data_I
_chemical_name_common  '/home/zhangsd/repos/MofS-CGCNN/ML/data/TSD/clean_cifs/WUSLED_clean'
_cell_length_a 19.55200
_cell_length_b 21.89800
_cell_length_c 25.29700
_cell_angle_alpha 90.00000
_cell_angle_beta  90.00000
_cell_angle_gamma 90.00000
_space_group_name_H-M_alt      'P 1'


loop_
_space_group_symop_operation_xyz
  'x, y, z' 

loop_
_atom_site_label
_atom_site_fract_x
_atom_site_fract_y
_atom_site_fract_z
_atom_site_type_symbol
H       0.0118   0.4398   0.3441     H
H       0.0118   0.5602   0.1559     H
P       0.0164   0.4934  0.05129     P
P       0.0164   0.5066  0.44871     P
C       0.0195   0.0777   0.3672     C
C       0.0195   0.9223   0.1328     C
H       0.0243   0.3763   0.0986     H
H       0.0243   0.6237   0.4014     H
O        0.026   0.0535   0.0222     O
O        0.026   0.9465   0.4778     O
C       0.0323   0.0508   0.4199     C
C       0.0323   0.9492   0.0801     C
H       0.0409   0.1527   0.3245     H
H       0.0409   0.8473   0.1755     H
C       0.0547   0.3988    0.119     C
C       0.0547   0.6012    0.381     C
C       0.0553   0.1298   0.3533     C
C       0.0553   0.8702   0.1467     C
C       0.0673   0.4594   0.1051     C
C       0.0673   0.5406   0.3949     C
H       0.0731   0.3312   0.1687     H
H       0.0731   0.6688   0.3313     H
H       0.0759   0.4641   0.9501     H
H       0.0759   0.5359   0.5499     H
C       0.0773   0.4709   0.4897     C
C       0.0773   0.5291   0.0103     C
C       0.0843   0.3714   0.1604     C
C       0.0843   0.6286   0.3396     C
C       0.0848   0.0728   0.4416     C
C       0.0848   0.9272   0.0584     C
C       0.0947   0.4983   0.5406     C
C       0.0947   0.5017   0.9594     C
H       0.1005   0.0515   0.4711     H
H       0.1005   0.9485   0.0289     H
H       0.1053   0.3944   0.4455     H
H       0.1053   0.6056   0.0545     H
C        0.113   0.4132   0.4779     C
C        0.113   0.5868   0.0221     C
C       0.1138    0.149   0.3824     C
C       0.1138   0.4898   0.1323     C
C       0.1138   0.5102   0.3677     C
C       0.1138    0.851   0.1176     C
H       0.1228   0.4697   0.3763     H
H       0.1228   0.5303   0.1237     H
C        0.125   0.1274   0.4271     C
C        0.125   0.8726   0.0729     C
C       0.1274   0.3999   0.1883     C
C       0.1274   0.6001   0.3117     C
C       0.1365   0.4704   0.5731     C
C       0.1365   0.5296   0.9269     C
O       0.1388   0.2239   0.3158     O
O       0.1388   0.7761   0.1842     O
H       0.1472   0.4878   0.6056     H
H       0.1472   0.5122   0.8944     H
C       0.1486   0.2012   0.3619     C
C       0.1486   0.7988   0.1381     C
O       0.1492   0.3212    0.245     O
O       0.1492   0.6788    0.255     O
C       0.1501   0.4621   0.1738     C
C       0.1501   0.5379   0.3262     C
C       0.1544    0.388   0.5108     C
C       0.1544    0.612   0.9892     C
H       0.1569   0.1447     0.45     H
H       0.1569   0.8553     0.05     H
C       0.1621   0.3734   0.2342     C
C       0.1621   0.6266   0.2658     C
C       0.1649   0.4139   0.5582     C
C       0.1649   0.5861   0.9418     C
H       0.1768    0.352   0.5018     H
H       0.1768    0.648   0.9982     H
H        0.186   0.4816   0.1911     H
H        0.186   0.5184   0.3089     H
O        0.195   0.2292   0.3897     O
O        0.195   0.7708   0.1103     O
O       0.2013   0.4001   0.2656     O
O       0.2013   0.5999   0.2344     O
U      0.20254  0.31849  0.33131     U
U      0.20254  0.68151  0.16869     U
C       0.2077   0.3847   0.5924     C
C       0.2077   0.6153   0.9076     C
O        0.231   0.4071   0.6389     O
O        0.231   0.5929   0.8611     O
O       0.2371    0.333   0.5844     O
O       0.2371    0.667   0.9156     O
O       0.2629    0.333   0.4156     O
O       0.2629    0.667   0.0844     O
O        0.269   0.4071   0.3611     O
O        0.269   0.5929   0.1389     O
C       0.2923   0.3847   0.4076     C
C       0.2923   0.6153   0.0924     C
U      0.29746  0.31849  0.66869     U
U      0.29746  0.68151  0.83131     U
O       0.2987   0.4001   0.7344     O
O       0.2987   0.5999   0.7656     O
O        0.305   0.2292   0.6103     O
O        0.305   0.7708   0.8897     O
H        0.314   0.4816   0.8089     H
H        0.314   0.5184   0.6911     H
H       0.3232    0.352   0.4982     H
H       0.3232    0.648   0.0018     H
C       0.3351   0.4139   0.4418     C
C       0.3351   0.5861   0.0582     C
C       0.3379   0.3734   0.7658     C
C       0.3379   0.6266   0.7342     C
H       0.3431   0.1447     0.55     H
H       0.3431   0.8553     0.95     H
C       0.3456    0.388   0.4892     C
C       0.3456    0.612   0.0108     C
C       0.3499   0.4621   0.8262     C
C       0.3499   0.5379   0.6738     C
O       0.3508   0.3212    0.755     O
O       0.3508   0.6788    0.745     O
C       0.3514   0.2012   0.6381     C
C       0.3514   0.7988   0.8619     C
H       0.3528   0.4878   0.3944     H
H       0.3528   0.5122   0.1056     H
O       0.3612   0.2239   0.6842     O
O       0.3612   0.7761   0.8158     O
C       0.3635   0.4704   0.4269     C
C       0.3635   0.5296   0.0731     C
C       0.3726   0.3999   0.8117     C
C       0.3726   0.6001   0.6883     C
C        0.375   0.1274   0.5729     C
C        0.375   0.8726   0.9271     C
H       0.3772   0.4697   0.6237     H
H       0.3772   0.5303   0.8763     H
C       0.3862    0.149   0.6176     C
C       0.3862   0.4898   0.8677     C
C       0.3862   0.5102   0.6323     C
C       0.3862    0.851   0.8824     C
C        0.387   0.4132   0.5221     C
C        0.387   0.5868   0.9779     C
H       0.3947   0.3944   0.5545     H
H       0.3947   0.6056   0.9455     H
H       0.3995   0.0515   0.5289     H
H       0.3995   0.9485   0.9711     H
C       0.4053   0.4983   0.4594     C
C       0.4053   0.5017   0.0406     C
C       0.4152   0.0728   0.5584     C
C       0.4152   0.9272   0.9416     C
C       0.4157   0.3714   0.8396     C
C       0.4157   0.6286   0.6604     C
C       0.4227   0.4709   0.5103     C
C       0.4227   0.5291   0.9897     C
H       0.4241   0.4641   0.0499     H
H       0.4241   0.5359   0.4501     H
H       0.4269   0.3312   0.8313     H
H       0.4269   0.6688   0.6687     H
C       0.4327   0.4594   0.8949     C
C       0.4327   0.5406   0.6051     C
C       0.4447   0.1298   0.6467     C
C       0.4447   0.8702   0.8533     C
C       0.4453   0.3988    0.881     C
C       0.4453   0.6012    0.619     C
H       0.4591   0.1527   0.6755     H
H       0.4591   0.8473   0.8245     H
C       0.4677   0.0508   0.5801     C
C       0.4677   0.9492   0.9199     C
O        0.474   0.0535   0.9778     O
O        0.474   0.9465   0.5222     O
H       0.4757   0.3763   0.9014     H
H       0.4757   0.6237   0.5986     H
C       0.4805   0.0777   0.6328     C
C       0.4805   0.9223   0.8672     C
P       0.4836   0.4934  0.94871     P
P       0.4836   0.5066  0.55129     P
H       0.4882   0.4398   0.6559     H
H       0.4882   0.5602   0.8441     H
H       0.5118   0.0602   0.6559     H
H       0.5118   0.9398   0.8441     H
P       0.5164   0.0066  0.94871     P
P       0.5164   0.9934  0.55129     P
C       0.5195   0.4223   0.6328     C
C       0.5195   0.5777   0.8672     C
H       0.5243   0.1237   0.9014     H
H       0.5243   0.8763   0.5986     H
O        0.526   0.4465   0.9778     O
O        0.526   0.5535   0.5222     O
C       0.5323   0.4492   0.5801     C
C       0.5323   0.5508   0.9199     C
H       0.5409   0.3473   0.6755     H
H       0.5409   0.6527   0.8245     H
C       0.5547   0.1012    0.881     C
C       0.5547   0.8988    0.619     C
C       0.5553   0.3702   0.6467     C
C       0.5553   0.6298   0.8533     C
C       0.5673   0.0406   0.8949     C
C       0.5673   0.9594   0.6051     C
H       0.5731   0.1688   0.8313     H
H       0.5731   0.8312   0.6687     H
H       0.5759   0.0359   0.0499     H
H       0.5759   0.9641   0.4501     H
C       0.5773   0.0291   0.5103     C
C       0.5773   0.9709   0.9897     C
C       0.5843   0.1286   0.8396     C
C       0.5843   0.8714   0.6604     C
C       0.5848   0.4272   0.5584     C
C       0.5848   0.5728   0.9416     C
C       0.5947   0.0017   0.4594     C
C       0.5947   0.9983   0.0406     C
H       0.6005   0.4485   0.5289     H
H       0.6005   0.5515   0.9711     H
H       0.6053   0.1056   0.5545     H
H       0.6053   0.8944   0.9455     H
C        0.613   0.0868   0.5221     C
C        0.613   0.9132   0.9779     C
C       0.6138   0.0102   0.8677     C
C       0.6138    0.351   0.6176     C
C       0.6138    0.649   0.8824     C
C       0.6138   0.9898   0.6323     C
H       0.6228   0.0303   0.6237     H
H       0.6228   0.9697   0.8763     H
C        0.625   0.3726   0.5729     C
C        0.625   0.6274   0.9271     C
C       0.6274   0.1001   0.8117     C
C       0.6274   0.8999   0.6883     C
C       0.6365   0.0296   0.4269     C
C       0.6365   0.9704   0.0731     C
O       0.6388   0.2761   0.6842     O
O       0.6388   0.7239   0.8158     O
H       0.6472   0.0122   0.3944     H
H       0.6472   0.9878   0.1056     H
C       0.6486   0.2988   0.6381     C
C       0.6486   0.7012   0.8619     C
O       0.6492   0.1788    0.755     O
O       0.6492   0.8212    0.745     O
C       0.6501   0.0379   0.8262     C
C       0.6501   0.9621   0.6738     C
C       0.6544    0.112   0.4892     C
C       0.6544    0.888   0.0108     C
H       0.6569   0.3553     0.55     H
H       0.6569   0.6447     0.95     H
C       0.6621   0.1266   0.7658     C
C       0.6621   0.8734   0.7342     C
C       0.6649   0.0861   0.4418     C
C       0.6649   0.9139   0.0582     C
H       0.6768    0.148   0.4982     H
H       0.6768    0.852   0.0018     H
H        0.686   0.0184   0.8089     H
H        0.686   0.9816   0.6911     H
O        0.695   0.2708   0.6103     O
O        0.695   0.7292   0.8897     O
O       0.7013   0.0999   0.7344     O
O       0.7013   0.9001   0.7656     O
U      0.70254  0.18151  0.66869     U
U      0.70254  0.81849  0.83131     U
C       0.7077   0.1153   0.4076     C
C       0.7077   0.8847   0.0924     C
O        0.731   0.0929   0.3611     O
O        0.731   0.9071   0.1389     O
O       0.7371    0.167   0.4156     O
O       0.7371    0.833   0.0844     O
O       0.7629    0.167   0.5844     O
O       0.7629    0.833   0.9156     O
O        0.769   0.0929   0.6389     O
O        0.769   0.9071   0.8611     O
C       0.7923   0.1153   0.5924     C
C       0.7923   0.8847   0.9076     C
U      0.79746  0.18151  0.33131     U
U      0.79746  0.81849  0.16869     U
O       0.7987   0.0999   0.2656     O
O       0.7987   0.9001   0.2344     O
O        0.805   0.2708   0.3897     O
O        0.805   0.7292   0.1103     O
H        0.814   0.0184   0.1911     H
H        0.814   0.9816   0.3089     H
H       0.8232    0.148   0.5018     H
H       0.8232    0.852   0.9982     H
C       0.8351   0.0861   0.5582     C
C       0.8351   0.9139   0.9418     C
C       0.8379   0.1266   0.2342     C
C       0.8379   0.8734   0.2658     C
H       0.8431   0.3553     0.45     H
H       0.8431   0.6447     0.05     H
C       0.8456    0.112   0.5108     C
C       0.8456    0.888   0.9892     C
C       0.8499   0.0379   0.1738     C
C       0.8499   0.9621   0.3262     C
O       0.8508   0.1788    0.245     O
O       0.8508   0.8212    0.255     O
C       0.8514   0.2988   0.3619     C
C       0.8514   0.7012   0.1381     C
H       0.8528   0.0122   0.6056     H
H       0.8528   0.9878   0.8944     H
O       0.8612   0.2761   0.3158     O
O       0.8612   0.7239   0.1842     O
C       0.8635   0.0296   0.5731     C
C       0.8635   0.9704   0.9269     C
C       0.8726   0.1001   0.1883     C
C       0.8726   0.8999   0.3117     C
C        0.875   0.3726   0.4271     C
C        0.875   0.6274   0.0729     C
H       0.8772   0.0303   0.3763     H
H       0.8772   0.9697   0.1237     H
C       0.8862   0.0102   0.1323     C
C       0.8862    0.351   0.3824     C
C       0.8862    0.649   0.1176     C
C       0.8862   0.9898   0.3677     C
C        0.887   0.0868   0.4779     C
C        0.887   0.9132   0.0221     C
H       0.8947   0.1056   0.4455     H
H       0.8947   0.8944   0.0545     H
H       0.8995   0.4485   0.4711     H
H       0.8995   0.5515   0.0289     H
C       0.9053   0.0017   0.5406     C
C       0.9053   0.9983   0.9594     C
C       0.9152   0.4272   0.4416     C
C       0.9152   0.5728   0.0584     C
C       0.9157   0.1286   0.1604     C
C       0.9157   0.8714   0.3396     C
C       0.9227   0.0291   0.4897     C
C       0.9227   0.9709   0.0103     C
H       0.9241   0.0359   0.9501     H
H       0.9241   0.9641   0.5499     H
H       0.9269   0.1688   0.1687     H
H       0.9269   0.8312   0.3313     H
C       0.9327   0.0406   0.1051     C
C       0.9327   0.9594   0.3949     C
C       0.9447   0.3702   0.3533     C
C       0.9447   0.6298   0.1467     C
C       0.9453   0.1012    0.119     C
C       0.9453   0.8988    0.381     C
H       0.9591   0.3473   0.3245     H
H       0.9591   0.6527   0.1755     H
C       0.9677   0.4492   0.4199     C
C       0.9677   0.5508   0.0801     C
O        0.974   0.4465   0.0222     O
O        0.974   0.5535   0.4778     O
H       0.9757   0.1237   0.0986     H
H       0.9757   0.8763   0.4014     H
C       0.9805   0.4223   0.3672     C
C       0.9805   0.5777   0.1328     C
P       0.9836   0.0066  0.05129     P
P       0.9836   0.9934  0.44871     P
H       0.9882   0.0602   0.3441     H
H       0.9882   0.9398   0.1559     H
