data_I
_chemical_name_common  '/home/zhangsd/repos/MofS-CGCNN/ML/data/TSD/clean_cifs/XACHOA_clean'
_cell_length_a 11.81900
_cell_length_b 12.67410
_cell_length_c 13.75850
_cell_angle_alpha 85.86530
_cell_angle_beta  81.61970
_cell_angle_gamma 84.09450
_space_group_name_H-M_alt      'P 1'


loop_
_space_group_symop_operation_xyz
  'x, y, z' 

loop_
_atom_site_label
_atom_site_fract_x
_atom_site_fract_y
_atom_site_fract_z
_atom_site_type_symbol
H        0.001    0.842    0.202     H
C       0.0082   0.6072   0.1486     C
C       0.0104   0.5962   0.6362     C
C       0.0148   0.1482   0.2379     C
H        0.024    0.295    0.969     H
H        0.027    0.306     0.48     H
C       0.0292   0.4841   0.2968     C
C       0.0343   0.0371   0.7041     C
C       0.0349   0.4714   0.7847     C
C       0.0388   0.0391   0.2351     C
C       0.0427   0.1368   0.7366     C
H        0.048    0.823    0.716     H
C       0.0547   0.3497   0.9241     C
C       0.0561   0.3608   0.4347     C
H        0.062     0.29    0.179     H
C       0.0802   0.2144   0.1752     C
H        0.082    0.631    0.152     H
H        0.083    0.622    0.639     H
H        0.096    0.943    0.589     H
C       0.0989   0.0112   0.6147     C
C       0.1125   0.2053    0.681     C
H        0.117    0.274    0.705     H
C       0.1311    0.521   0.3102     C
C       0.1322   0.0015   0.1678     C
C       0.1396   0.5052   0.7986     C
H        0.154    0.927    0.164     H
N       0.1584   0.3793   0.9346     N
N       0.1586    0.391   0.4434     N
H         0.16    0.579    0.269     H
C       0.1672    0.085   0.5635     C
N       0.1685   0.1796   0.1089     N
H        0.171    0.561    0.756     H
N       0.1753   0.1809   0.5947     N
C       0.1929   0.4724   0.3817     C
C       0.1933   0.0739    0.108     C
C       0.1972    0.459   0.8721     C
H        0.202    0.132    0.872     H
H        0.211    0.066    0.502     H
H        0.257    0.047    0.062     H
H        0.261    0.222    0.324     H
Cu     0.26461  0.27771  0.01228    Cu
H        0.265    0.498    0.388     H
H        0.269    0.484     0.88     H
Cu     0.27163  0.29616  0.51878    Cu
H        0.276    0.499     0.06     H
H        0.284    0.008     0.76     H
C       0.2845   0.1181   0.8614     C
C       0.3319   0.0441   0.7944     C
C       0.3337   0.1858   0.3369     C
C        0.336   0.4628   0.0925     C
H        0.339    0.514    0.536     H
N       0.3453   0.1714   0.9127     N
H        0.352    0.095    0.219     H
N       0.3579    0.371   0.6035     N
H        0.362    0.594    0.162     H
N        0.367    0.361   0.0753     N
C       0.3705   0.4749     0.59     C
N       0.3775   0.2115   0.4154     N
C       0.3865   0.5202   0.1539     C
C       0.3875   0.1114   0.2741     C
H        0.388    0.947    0.617     H
H          0.4    0.244    0.688     H
H        0.402    0.934    0.179     H
C       0.4052   0.3192   0.6785     C
C       0.4265   0.5295    0.648     C
H        0.431    0.675    0.785     H
H        0.433    0.604    0.635     H
C       0.4499   0.0218   0.7781     C
C       0.4553   0.3133   0.1199     C
C       0.4602   0.1508   0.8959     C
C       0.4611   0.9137   0.6308     C
C       0.4624   0.3672   0.7405     C
C       0.4719   0.4761   0.7272     C
C       0.4746    0.468   0.2027     C
C       0.4797   0.1611   0.4298     C
H        0.482    0.241    0.106     H
C       0.4846    0.922   0.1691     C
H        0.487    0.821    0.515     H
C       0.4916   0.6371   0.8166     C
C       0.4919    0.059   0.2892     C
H        0.494    0.812    0.069     H
H        0.495    0.326    0.793     H
H        0.505    0.674    0.207     H
H        0.506    0.188    0.931     H
C       0.5081    0.941   0.7108     C
C       0.5084   0.3629   0.1834     C
H        0.513    0.179    0.485     H
C       0.5154    0.078   0.8309     C
H        0.518    0.759    0.894     H
C       0.5203   0.8389   0.5702     C
C       0.5254    0.532   0.7973     C
C       0.5281   0.5239   0.2728     C
C       0.5376   0.6328   0.2595     C
C       0.5389   0.0863   0.3692     C
C       0.5398   0.8492   0.1041     C
C       0.5447   0.6867   0.8801     C
C       0.5501   0.9782   0.2219     C
H        0.567    0.396    0.365     H
H        0.569    0.325    0.215     H
C       0.5735   0.4705    0.352     C
C       0.5948   0.6808   0.3215     C
H        0.598    0.066    0.821     H
H          0.6    0.756    0.312     H
H        0.612    0.053    0.383     H
C       0.6125   0.8886   0.7259     C
C       0.6135   0.4798   0.8461     C
N       0.6225   0.7885   0.5846     N
C       0.6295   0.5251     0.41     C
N        0.633    0.639   0.9247     N
H        0.638    0.406    0.838     H
N       0.6421    0.629   0.3965     N
H        0.648    0.905    0.781     H
N       0.6547   0.8286   0.0873     N
H        0.661    0.486    0.464     H
C        0.664   0.5372   0.9075     C
C       0.6663   0.8142   0.6631     C
C       0.6681   0.9559   0.2056     C
C       0.7155   0.8819   0.1386     C
H        0.716    0.992     0.24     H
H        0.724    0.501     0.94     H
Cu     0.72837  0.70384  0.48122    Cu
H        0.731    0.516     0.12     H
H        0.735    0.502    0.612     H
Cu     0.73539  0.72229  0.98772    Cu
H        0.739    0.778    0.676     H
H        0.743    0.953    0.938     H
H        0.789    0.934    0.498     H
H        0.798    0.868    0.128     H
C       0.8028    0.541   0.1279     C
C       0.8067   0.9261    0.892     C
C       0.8071   0.5276   0.6183     C
N       0.8247   0.8191   0.4053     N
H        0.829    0.439    0.244     H
N       0.8315   0.8204   0.8911     N
C       0.8328    0.915   0.4365     C
H         0.84    0.421    0.731     H
N       0.8414    0.609   0.5566     N
N       0.8416   0.6207   0.0654     N
H        0.846    0.073    0.836     H
C       0.8604   0.4948   0.2014     C
C       0.8678   0.9985   0.8322     C
C       0.8689    0.479   0.6898     C
H        0.883    0.726    0.295     H
C       0.8875   0.7947    0.319     C
C       0.9011   0.9888   0.3853     C
H        0.904    0.057    0.411     H
H        0.917    0.378    0.361     H
H        0.918    0.369    0.848     H
C       0.9198   0.7856   0.8248     C
H        0.938     0.71    0.821     H
C       0.9439   0.6392   0.5653     C
C       0.9453   0.6503   0.0759     C
H        0.952    0.177    0.284     H
C       0.9573   0.8632   0.2634     C
C       0.9612   0.9609   0.7649     C
C       0.9651   0.5286   0.2153     C
C       0.9657   0.9629   0.2959     C
C       0.9708   0.5159   0.7032     C
H        0.973    0.694     0.52     H
H        0.976    0.705    0.031     H
C       0.9852   0.8518   0.7621     C
C       0.9896   0.4038   0.3638     C
C       0.9918   0.3928   0.8514     C
H        0.999    0.158    0.798     H
