data_I
_chemical_name_common  '/home/zhangsd/repos/MofS-CGCNN/ML/data/TSD/clean_cifs/XADDEN_manual'
_cell_length_a 18.65100
_cell_length_b 18.65100
_cell_length_c 18.65100
_cell_angle_alpha 60.00000
_cell_angle_beta  60.00000
_cell_angle_gamma 60.00000
_space_group_name_H-M_alt      'P 1'


loop_
_space_group_symop_operation_xyz
  'x, y, z' 

loop_
_atom_site_label
_atom_site_fract_x
_atom_site_fract_y
_atom_site_fract_z
_atom_site_type_symbol
O       0.0074  0.47868  0.62646     O
O       0.0074  0.47868  0.88746     O
O       0.0074  0.62646  0.47868     O
O       0.0074  0.62646  0.88746     O
O       0.0074  0.88746  0.47868     O
O       0.0074  0.88746  0.62646     O
H       0.0126   0.2274   0.2274     H
H       0.0126   0.2274   0.5326     H
H       0.0126   0.5326   0.2274     H
C       0.0691   0.0691  0.33606     C
C       0.0691   0.0691  0.52574     C
C       0.0691  0.33606   0.0691     C
C       0.0691  0.33606  0.52574     C
C       0.0691  0.52574   0.0691     C
C       0.0691  0.52574  0.33606     C
Cu     0.06986      0.5      0.5    Cu
Cu     0.06986      0.5  0.93014    Cu
Cu     0.06986  0.93014      0.5    Cu
C      0.07022   0.1985   0.1985     C
C      0.07022   0.1985  0.53278     C
C      0.07022  0.53278   0.1985     C
O      0.11254  0.37354  0.52132     O
O      0.11254  0.37354   0.9926     O
O      0.11254  0.52132  0.37354     O
O      0.11254  0.52132   0.9926     O
O      0.11254   0.9926  0.37354     O
O      0.11254   0.9926  0.52132     O
C       0.1126   0.1126  0.24192     C
C       0.1126   0.1126  0.53288     C
C       0.1126  0.24192   0.1126     C
C       0.1126  0.24192  0.53288     C
C       0.1126  0.53288   0.1126     C
C       0.1126  0.53288  0.24192     C
C       0.1985  0.07022   0.1985     C
C       0.1985  0.07022  0.53278     C
C       0.1985   0.1985  0.07022     C
C       0.1985   0.1985  0.53278     C
C       0.1985  0.53278  0.07022     C
C       0.1985  0.53278   0.1985     C
H       0.2274   0.0126   0.2274     H
H       0.2274   0.0126   0.5326     H
H       0.2274   0.2274   0.0126     H
H       0.2274   0.2274   0.5326     H
H       0.2274   0.5326   0.0126     H
H       0.2274   0.5326   0.2274     H
C      0.24192   0.1126   0.1126     C
C      0.24192   0.1126  0.53288     C
C      0.24192  0.53288   0.1126     C
C      0.33606   0.0691   0.0691     C
C      0.33606   0.0691  0.52574     C
C      0.33606  0.52574   0.0691     C
O      0.37354  0.11254  0.52132     O
O      0.37354  0.11254   0.9926     O
O      0.37354  0.52132  0.11254     O
O      0.37354  0.52132   0.9926     O
O      0.37354   0.9926  0.11254     O
O      0.37354   0.9926  0.52132     O
C      0.46712  0.75808   0.8874     C
C      0.46712   0.8874  0.75808     C
C      0.46712   0.8874   0.8874     C
C      0.46722   0.8015   0.8015     C
C      0.46722   0.8015  0.92978     C
C      0.46722  0.92978   0.8015     C
H       0.4674   0.7726   0.7726     H
H       0.4674   0.7726   0.9874     H
H       0.4674   0.9874   0.7726     H
C      0.47426  0.66394   0.9309     C
C      0.47426   0.9309  0.66394     C
C      0.47426   0.9309   0.9309     C
O      0.47868   0.0074  0.62646     O
O      0.47868   0.0074  0.88746     O
O      0.47868  0.62646   0.0074     O
O      0.47868  0.62646  0.88746     O
O      0.47868  0.88746   0.0074     O
O      0.47868  0.88746  0.62646     O
Cu         0.5  0.06986      0.5    Cu
Cu         0.5  0.06986  0.93014    Cu
Cu         0.5      0.5  0.06986    Cu
Cu         0.5      0.5  0.93014    Cu
Cu         0.5  0.93014  0.06986    Cu
Cu         0.5  0.93014      0.5    Cu
O      0.52132  0.11254  0.37354     O
O      0.52132  0.11254   0.9926     O
O      0.52132  0.37354  0.11254     O
O      0.52132  0.37354   0.9926     O
O      0.52132   0.9926  0.11254     O
O      0.52132   0.9926  0.37354     O
C      0.52574   0.0691   0.0691     C
C      0.52574   0.0691  0.33606     C
C      0.52574  0.33606   0.0691     C
H       0.5326   0.0126   0.2274     H
H       0.5326   0.2274   0.0126     H
H       0.5326   0.2274   0.2274     H
C      0.53278  0.07022   0.1985     C
C      0.53278   0.1985  0.07022     C
C      0.53278   0.1985   0.1985     C
C      0.53288   0.1126   0.1126     C
C      0.53288   0.1126  0.24192     C
C      0.53288  0.24192   0.1126     C
O      0.62646   0.0074  0.47868     O
O      0.62646   0.0074  0.88746     O
O      0.62646  0.47868   0.0074     O
O      0.62646  0.47868  0.88746     O
O      0.62646  0.88746   0.0074     O
O      0.62646  0.88746  0.47868     O
C      0.66394  0.47426   0.9309     C
C      0.66394   0.9309  0.47426     C
C      0.66394   0.9309   0.9309     C
C      0.75808  0.46712   0.8874     C
C      0.75808   0.8874  0.46712     C
C      0.75808   0.8874   0.8874     C
H       0.7726   0.4674   0.7726     H
H       0.7726   0.4674   0.9874     H
H       0.7726   0.7726   0.4674     H
H       0.7726   0.7726   0.9874     H
H       0.7726   0.9874   0.4674     H
H       0.7726   0.9874   0.7726     H
C       0.8015  0.46722   0.8015     C
C       0.8015  0.46722  0.92978     C
C       0.8015   0.8015  0.46722     C
C       0.8015   0.8015  0.92978     C
C       0.8015  0.92978  0.46722     C
C       0.8015  0.92978   0.8015     C
C       0.8874  0.46712  0.75808     C
C       0.8874  0.46712   0.8874     C
C       0.8874  0.75808  0.46712     C
C       0.8874  0.75808   0.8874     C
C       0.8874   0.8874  0.46712     C
C       0.8874   0.8874  0.75808     C
O      0.88746   0.0074  0.47868     O
O      0.88746   0.0074  0.62646     O
O      0.88746  0.47868   0.0074     O
O      0.88746  0.47868  0.62646     O
O      0.88746  0.62646   0.0074     O
O      0.88746  0.62646  0.47868     O
C      0.92978  0.46722   0.8015     C
C      0.92978   0.8015  0.46722     C
C      0.92978   0.8015   0.8015     C
Cu     0.93014  0.06986      0.5    Cu
Cu     0.93014      0.5  0.06986    Cu
Cu     0.93014      0.5      0.5    Cu
C       0.9309  0.47426  0.66394     C
C       0.9309  0.47426   0.9309     C
C       0.9309  0.66394  0.47426     C
C       0.9309  0.66394   0.9309     C
C       0.9309   0.9309  0.47426     C
C       0.9309   0.9309  0.66394     C
H       0.9874   0.4674   0.7726     H
H       0.9874   0.7726   0.4674     H
H       0.9874   0.7726   0.7726     H
O       0.9926  0.11254  0.37354     O
O       0.9926  0.11254  0.52132     O
O       0.9926  0.37354  0.11254     O
O       0.9926  0.37354  0.52132     O
O       0.9926  0.52132  0.11254     O
O       0.9926  0.52132  0.37354     O
