data_I
_chemical_name_common  '/home/zhangsd/repos/MofS-CGCNN/ML/data/TSD/clean_cifs/XADDIR_manual'
_cell_length_a 18.66260
_cell_length_b 18.66260
_cell_length_c 18.66260
_cell_angle_alpha 60.00000
_cell_angle_beta  60.00000
_cell_angle_gamma 60.00000
_space_group_name_H-M_alt      'P 1'


loop_
_space_group_symop_operation_xyz
  'x, y, z' 

loop_
_atom_site_label
_atom_site_fract_x
_atom_site_fract_y
_atom_site_fract_z
_atom_site_type_symbol
O      0.00756   0.4788  0.62606     O
O      0.00756   0.4788  0.88758     O
O      0.00756  0.62606   0.4788     O
O      0.00756  0.62606  0.88758     O
O      0.00756  0.88758   0.4788     O
O      0.00756  0.88758  0.62606     O
H       0.0118   0.2282   0.2282     H
H       0.0118   0.2282   0.5318     H
H       0.0118   0.5318   0.2282     H
C       0.0688   0.0688  0.33668     C
C       0.0688   0.0688  0.52572     C
C       0.0688  0.33668   0.0688     C
C       0.0688  0.33668  0.52572     C
C       0.0688  0.52572   0.0688     C
C       0.0688  0.52572  0.33668     C
C      0.06914   0.1991   0.1991     C
C      0.06914   0.1991  0.53266     C
C      0.06914  0.53266   0.1991     C
Cu     0.06986      0.5      0.5    Cu
Cu     0.06986      0.5  0.93014    Cu
Cu     0.06986  0.93014      0.5    Cu
O      0.11242  0.37394   0.5212     O
O      0.11242  0.37394  0.99244     O
O      0.11242   0.5212  0.37394     O
O      0.11242   0.5212  0.99244     O
O      0.11242  0.99244  0.37394     O
O      0.11242  0.99244   0.5212     O
C       0.1126   0.1126  0.24156     C
C       0.1126   0.1126  0.53324     C
C       0.1126  0.24156   0.1126     C
C       0.1126  0.24156  0.53324     C
C       0.1126  0.53324   0.1126     C
C       0.1126  0.53324  0.24156     C
C       0.1991  0.06914   0.1991     C
C       0.1991  0.06914  0.53266     C
C       0.1991   0.1991  0.06914     C
C       0.1991   0.1991  0.53266     C
C       0.1991  0.53266  0.06914     C
C       0.1991  0.53266   0.1991     C
H       0.2282   0.0118   0.2282     H
H       0.2282   0.0118   0.5318     H
H       0.2282   0.2282   0.0118     H
H       0.2282   0.2282   0.5318     H
H       0.2282   0.5318   0.0118     H
H       0.2282   0.5318   0.2282     H
C      0.24156   0.1126   0.1126     C
C      0.24156   0.1126  0.53324     C
C      0.24156  0.53324   0.1126     C
C      0.33668   0.0688   0.0688     C
C      0.33668   0.0688  0.52572     C
C      0.33668  0.52572   0.0688     C
O      0.37394  0.11242   0.5212     O
O      0.37394  0.11242  0.99244     O
O      0.37394   0.5212  0.11242     O
O      0.37394   0.5212  0.99244     O
O      0.37394  0.99244  0.11242     O
O      0.37394  0.99244   0.5212     O
C      0.46676  0.75844   0.8874     C
C      0.46676   0.8874  0.75844     C
C      0.46676   0.8874   0.8874     C
C      0.46734   0.8009   0.8009     C
C      0.46734   0.8009  0.93086     C
C      0.46734  0.93086   0.8009     C
H       0.4682   0.7718   0.7718     H
H       0.4682   0.7718   0.9882     H
H       0.4682   0.9882   0.7718     H
C      0.47428  0.66332   0.9312     C
C      0.47428   0.9312  0.66332     C
C      0.47428   0.9312   0.9312     C
O       0.4788  0.00756  0.62606     O
O       0.4788  0.00756  0.88758     O
O       0.4788  0.62606  0.00756     O
O       0.4788  0.62606  0.88758     O
O       0.4788  0.88758  0.00756     O
O       0.4788  0.88758  0.62606     O
Cu         0.5  0.06986      0.5    Cu
Cu         0.5  0.06986  0.93014    Cu
Cu         0.5      0.5  0.06986    Cu
Cu         0.5      0.5  0.93014    Cu
Cu         0.5  0.93014  0.06986    Cu
Cu         0.5  0.93014      0.5    Cu
O       0.5212  0.11242  0.37394     O
O       0.5212  0.11242  0.99244     O
O       0.5212  0.37394  0.11242     O
O       0.5212  0.37394  0.99244     O
O       0.5212  0.99244  0.11242     O
O       0.5212  0.99244  0.37394     O
C      0.52572   0.0688   0.0688     C
C      0.52572   0.0688  0.33668     C
C      0.52572  0.33668   0.0688     C
H       0.5318   0.0118   0.2282     H
H       0.5318   0.2282   0.0118     H
H       0.5318   0.2282   0.2282     H
C      0.53266  0.06914   0.1991     C
C      0.53266   0.1991  0.06914     C
C      0.53266   0.1991   0.1991     C
C      0.53324   0.1126   0.1126     C
C      0.53324   0.1126  0.24156     C
C      0.53324  0.24156   0.1126     C
O      0.62606  0.00756   0.4788     O
O      0.62606  0.00756  0.88758     O
O      0.62606   0.4788  0.00756     O
O      0.62606   0.4788  0.88758     O
O      0.62606  0.88758  0.00756     O
O      0.62606  0.88758   0.4788     O
C      0.66332  0.47428   0.9312     C
C      0.66332   0.9312  0.47428     C
C      0.66332   0.9312   0.9312     C
C      0.75844  0.46676   0.8874     C
C      0.75844   0.8874  0.46676     C
C      0.75844   0.8874   0.8874     C
H       0.7718   0.4682   0.7718     H
H       0.7718   0.4682   0.9882     H
H       0.7718   0.7718   0.4682     H
H       0.7718   0.7718   0.9882     H
H       0.7718   0.9882   0.4682     H
H       0.7718   0.9882   0.7718     H
C       0.8009  0.46734   0.8009     C
C       0.8009  0.46734  0.93086     C
C       0.8009   0.8009  0.46734     C
C       0.8009   0.8009  0.93086     C
C       0.8009  0.93086  0.46734     C
C       0.8009  0.93086   0.8009     C
C       0.8874  0.46676  0.75844     C
C       0.8874  0.46676   0.8874     C
C       0.8874  0.75844  0.46676     C
C       0.8874  0.75844   0.8874     C
C       0.8874   0.8874  0.46676     C
C       0.8874   0.8874  0.75844     C
O      0.88758  0.00756   0.4788     O
O      0.88758  0.00756  0.62606     O
O      0.88758   0.4788  0.00756     O
O      0.88758   0.4788  0.62606     O
O      0.88758  0.62606  0.00756     O
O      0.88758  0.62606   0.4788     O
Cu     0.93014  0.06986      0.5    Cu
Cu     0.93014      0.5  0.06986    Cu
Cu     0.93014      0.5      0.5    Cu
C      0.93086  0.46734   0.8009     C
C      0.93086   0.8009  0.46734     C
C      0.93086   0.8009   0.8009     C
C       0.9312  0.47428  0.66332     C
C       0.9312  0.47428   0.9312     C
C       0.9312  0.66332  0.47428     C
C       0.9312  0.66332   0.9312     C
C       0.9312   0.9312  0.47428     C
C       0.9312   0.9312  0.66332     C
H       0.9882   0.4682   0.7718     H
H       0.9882   0.7718   0.4682     H
H       0.9882   0.7718   0.7718     H
O      0.99244  0.11242  0.37394     O
O      0.99244  0.11242   0.5212     O
O      0.99244  0.37394  0.11242     O
O      0.99244  0.37394   0.5212     O
O      0.99244   0.5212  0.11242     O
O      0.99244   0.5212  0.37394     O
