data_I
_chemical_name_common  '/home/zhangsd/repos/MofS-CGCNN/ML/data/TSD/clean_cifs/XADGAM_clean'
_cell_length_a 10.98380
_cell_length_b 14.43360
_cell_length_c 16.12290
_cell_angle_alpha 90.00000
_cell_angle_beta  92.86710
_cell_angle_gamma 90.00000
_space_group_name_H-M_alt      'P 1'


loop_
_space_group_symop_operation_xyz
  'x, y, z' 

loop_
_atom_site_label
_atom_site_fract_x
_atom_site_fract_y
_atom_site_fract_z
_atom_site_type_symbol
H       0.0141   0.4568   0.0765     H
H       0.0289   0.3092   0.9543     H
Zn     0.03311  0.12474  0.03416    Zn
C       0.0341   0.7832   0.0786     C
H       0.0471   0.2182   0.3942     H
O       0.0483   0.2395   0.1166     O
O       0.0542   0.5522    0.887     O
H       0.0571   0.8974   0.1516     H
C       0.0622   0.9758   0.9077     C
H       0.0664   0.2252   0.2566     H
N       0.0677   0.7003   0.0601     N
H       0.0738    0.886    0.812     H
C       0.0835   0.8371   0.1433     C
C       0.0975   0.2628   0.3723     C
H       0.1097   0.0362   0.4132     H
H       0.1102   0.5968   0.7641     H
C       0.1115   0.2655    0.291     C
C       0.1174    0.931   0.8421     C
N       0.1203   0.0473   0.9485     N
H       0.1224   0.6324   0.6255     H
C       0.1429    0.501   0.9127     C
H       0.1481   0.3278   0.4837     H
C       0.1505    0.557   0.7293     C
C       0.1574   0.5778   0.6459     C
C       0.1585   0.2614   0.1095     C
C       0.1596   0.3284   0.4269     C
C       0.1617   0.6621   0.1077     C
H        0.172   0.7939   0.5467     H
O       0.1732    0.491   0.9846     O
C       0.1751   0.7967   0.1958     C
C       0.1843   0.9161   0.3086     C
H       0.1891   0.6032   0.0942     H
C       0.1926   0.0264   0.4243     C
C       0.1946   0.3289   0.2547     C
C       0.2052   0.4751   0.7615     C
C        0.207   0.4496   0.8465     C
H       0.2123   0.1173   0.5178     H
C       0.2145     0.52   0.5924     C
H       0.2166   0.5358   0.5365     H
C        0.217   0.7067   0.1739     C
C       0.2179   0.3317   0.1663     C
O        0.218   0.2365   0.0485     O
C       0.2315   0.9511   0.8215     C
C       0.2342   0.8427    0.269     C
C       0.2346   0.0696   0.9292     C
C       0.2365   0.3922   0.3931     C
C       0.2445   0.8536   0.6936     C
C       0.2539   0.3933   0.3078     C
C       0.2554   0.0751    0.487     C
C       0.2555   0.7841   0.5547     C
C       0.2565   0.9619    0.378     C
C       0.2673   0.4149   0.7045     C
C       0.2677   0.4404     0.62     C
H       0.2696   0.7178   0.4484     H
C       0.2709   0.3717   0.8731     C
H       0.2738   0.3562   0.9292     H
H       0.2744   0.1185   0.9566     H
H       0.2773    0.435   0.4275     H
H       0.2811    0.679   0.2044     H
C       0.2936   0.0207   0.8691     C
C       0.2939   0.3964   0.1374     C
C       0.3018   0.9038    0.755     C
H       0.3045   0.3992   0.0806     H
H       0.3049   0.4018   0.5826     H
C       0.3133   0.8154   0.6273     C
C       0.3143   0.7399   0.4948     C
C       0.3272   0.3342   0.7345     C
O       0.3286   0.2314   0.6196     O
C       0.3322   0.3151   0.8168     C
C       0.3385   0.4604   0.2736     C
C       0.3575   0.4593   0.1894     C
O        0.364   0.5691   0.3863     O
C       0.3727   0.9492   0.3973     C
N       0.3746   0.0647   0.5053     N
H       0.3747   0.0337   0.8598     H
H       0.3764    0.264   0.8366     H
C       0.3884   0.2687   0.6763     C
C       0.4115   0.5306   0.3268     C
H       0.4126   0.5003   0.1674     H
H        0.416   0.2481   0.4236     H
H       0.4174   0.9072   0.3673     H
C       0.4286   0.9985   0.4624     C
N        0.438   0.7267   0.5003     N
C       0.4417   0.8022   0.6336     C
Zn     0.47637   0.1476  0.58883    Zn
O       0.4833   0.0489   0.6934     O
H       0.4867   0.8236   0.6801     H
H       0.4906   0.4845   0.5227     H
O       0.4967   0.7559   0.3114     O
C       0.4997   0.2575   0.4293     C
C       0.5003   0.7575   0.5707     C
O       0.5033   0.2559   0.6886     O
H       0.5094   0.9845   0.4773     H
H       0.5133   0.3236   0.3199     H
O       0.5167   0.5489   0.3066     O
Zn     0.52363   0.6476  0.41117    Zn
C       0.5583   0.3022   0.3664     C
N        0.562   0.2267   0.4997     N
C       0.5714   0.4985   0.5376     C
H       0.5826   0.4072   0.6327     H
H        0.584   0.7481   0.5764     H
H       0.5874   0.0003   0.8326     H
C       0.5885   0.0306   0.6732     C
C       0.6116   0.7687   0.3237     C
H       0.6236    0.764   0.1634     H
H       0.6253   0.5337   0.1402     H
N       0.6254   0.5647   0.4947     N
C       0.6273   0.4492   0.6027     C
O        0.636   0.0691   0.6137     O
C       0.6425   0.9593   0.8106     C
C       0.6615   0.9604   0.7264     C
C       0.6678   0.8151   0.1832     C
O       0.6714   0.7314   0.3804     O
C       0.6728   0.8342   0.2655     C
C       0.6857   0.2399   0.5052     C
C       0.6867   0.3154   0.3727     C
H       0.6951   0.9018   0.4174     H
H       0.6955   0.8992   0.9194     H
C       0.6982   0.4038    0.245     C
C       0.7061   0.8964   0.8626     C
C       0.7064   0.5207   0.1309     C
H       0.7189    0.179   0.7956     H
H       0.7227    0.935   0.5725     H
H       0.7256   0.6185   0.0434     H
H       0.7262   0.8562   0.0708     H
C       0.7291   0.8717   0.1269     C
H       0.7304   0.2178   0.5516     H
C       0.7323   0.9404     0.38     C
C       0.7327   0.9149   0.2955     C
C       0.7435   0.4619    0.622     C
C       0.7445   0.2841   0.4453     C
C       0.7446   0.5751    0.513     C
C       0.7461   0.8933   0.6922     C
C       0.7555   0.3536   0.3064     C
C       0.7635   0.8922   0.6069     C
C       0.7654   0.5696   0.0708     C
C       0.7658   0.3427    0.731     C
C       0.7685   0.4511   0.1785     C
O        0.782   0.7365   0.9515     O
C       0.7821   0.8317   0.8337     C
C        0.783   0.2067   0.8261     C
H       0.7834   0.0358   0.4635     H
C       0.7855     0.02   0.4076     C
H       0.7877   0.6173   0.4822     H
C        0.793   0.9496   0.1535     C
C       0.7948   0.9751   0.2385     C
C       0.8054   0.8289   0.7453     C
C       0.8074   0.5264   0.5757     C
H       0.8109   0.1032   0.9058     H
C       0.8157   0.4161   0.6914     C
C       0.8249   0.2967   0.8042     C
O       0.8268    0.991   0.0154     O
H        0.828   0.2939   0.4533     H
C       0.8383   0.1621   0.8923     C
C       0.8404   0.8284   0.5731     C
C       0.8415   0.7614   0.8905     C
C       0.8426   0.0778   0.3541     C
C       0.8495    0.057   0.2707     C
H       0.8519   0.8278   0.5163     H
C       0.8571    0.001   0.0873     C
H       0.8776   0.1324   0.3745     H
N       0.8797   0.5473   0.0515     N
C       0.8826    0.431   0.1579     C
C       0.8885   0.7655    0.709     C
H       0.8898   0.0968   0.2359     H
H       0.8903   0.5362   0.5868     H
C       0.9025   0.7628   0.6277     C
C       0.9165   0.3371   0.8567     C
H       0.9262    0.386    0.188     H
N       0.9323   0.2003   0.9399     N
H       0.9336   0.7252   0.7434     H
C       0.9378   0.4758   0.0923     C
H       0.9429   0.3974   0.8484     H
O       0.9458   0.0522    0.113     O
O       0.9517   0.7395   0.8834     O
H       0.9529   0.7182   0.6058     H
C       0.9659   0.2832   0.9214     C
Zn     0.96689  0.62474  0.96584    Zn
H       0.9711   0.8092   0.0457     H
H       0.9859   0.9568   0.9235     H
