data_I
_chemical_name_common  '/home/zhangsd/repos/MofS-CGCNN/ML/data/TSD/clean_cifs/XAFFUH_clean'
_cell_length_a 24.08700
_cell_length_b 36.32950
_cell_length_c 36.32950
_cell_angle_alpha 90.00000
_cell_angle_beta  90.00000
_cell_angle_gamma 90.00000
_space_group_name_H-M_alt      'P 1'


loop_
_space_group_symop_operation_xyz
  'x, y, z' 

loop_
_atom_site_label
_atom_site_fract_x
_atom_site_fract_y
_atom_site_fract_z
_atom_site_type_symbol
Cu         0.0  0.00653  0.68713    Cu
Cu         0.0  0.01118  0.61507    Cu
Cu         0.0  0.31287  0.00653    Cu
Cu         0.0  0.38493  0.01118    Cu
Cu         0.0  0.61507  0.98882    Cu
Cu         0.0  0.68713  0.99347    Cu
Cu         0.0  0.98882  0.38493    Cu
Cu         0.0  0.99347  0.31287    Cu
O      0.05759   0.0447  0.68537     O
O      0.05759  0.31463   0.0447     O
O      0.05759  0.68537   0.9553     O
O      0.05759   0.9553  0.31463     O
O      0.05769  0.03044  0.32197     O
O      0.05769  0.32197  0.96956     O
O      0.05769  0.67803  0.03044     O
O      0.05769  0.96956  0.67803     O
O      0.05789  0.02682  0.38314     O
O      0.05789  0.38314  0.97318     O
O      0.05789  0.61686  0.02682     O
O      0.05789  0.97318  0.61686     O
O      0.05798  0.04816   0.6244     O
O      0.05798   0.3756  0.04816     O
O      0.05798   0.6244  0.95184     O
O      0.05798  0.95184   0.3756     O
C      0.07517  0.05745  0.65538     C
C      0.07517  0.34462  0.05745     C
C      0.07517  0.65538  0.94255     C
C      0.07517  0.94255  0.34462     C
C      0.07552   0.0395  0.35362     C
C      0.07552  0.35362   0.9605     C
C      0.07552  0.64638   0.0395     C
C      0.07552   0.9605  0.64638     C
C      0.12012  0.08538  0.65755     C
C      0.12012  0.34245  0.08538     C
C      0.12012  0.65755  0.91462     C
C      0.12012  0.91462  0.34245     C
C      0.12076  0.06687  0.35403     C
C      0.12076  0.35403  0.93313     C
C      0.12076  0.64597  0.06687     C
C      0.12076  0.93313  0.64597     C
H       0.1271    0.087   0.7126     H
H       0.1271   0.2874    0.087     H
H       0.1271   0.7126    0.913     H
H       0.1271    0.913   0.2874     H
H       0.1279   0.0708   0.4093     H
H       0.1279   0.4093   0.9292     H
H       0.1279   0.5907   0.0708     H
H       0.1279   0.9292   0.5907     H
H       0.1286   0.0722   0.2995     H
H       0.1286   0.2995   0.9278     H
H       0.1286   0.7005   0.0722     H
H       0.1286   0.9278   0.7005     H
H       0.1287   0.0929    0.603     H
H       0.1287    0.397   0.0929     H
H       0.1287    0.603   0.9071     H
H       0.1287   0.9071    0.397     H
C      0.14158  0.09663   0.6909     C
C      0.14158   0.3091  0.09663     C
C      0.14158   0.6909  0.90337     C
C      0.14158  0.90337   0.3091     C
C      0.14212  0.07965  0.38724     C
C      0.14212  0.38724  0.92035     C
C      0.14212  0.61276  0.07965     C
C      0.14212  0.92035  0.61276     C
C      0.14223  0.10021  0.62581     C
C      0.14223  0.37419  0.10021     C
C      0.14223  0.62581  0.89979     C
C      0.14223  0.89979  0.37419     C
C       0.1424   0.0804  0.32191     C
C       0.1424  0.32191   0.9196     C
C       0.1424  0.67809   0.0804     C
C       0.1424   0.9196  0.67809     C
H       0.1698   0.2465   0.7309     H
H       0.1698   0.2691   0.2465     H
H       0.1698   0.7309   0.7535     H
H       0.1698   0.7535   0.2691     H
H       0.1703   0.2031   0.6869     H
H       0.1703   0.2318   0.2877     H
H       0.1703   0.2877   0.7682     H
H       0.1703   0.3131   0.2031     H
H       0.1703   0.6869   0.7969     H
H       0.1703   0.7123   0.2318     H
H       0.1703   0.7682   0.7123     H
H       0.1703   0.7969   0.3131     H
H        0.173   0.1885    0.335     H
H        0.173    0.335   0.8115     H
H        0.173    0.665   0.1885     H
H        0.173   0.8115    0.665     H
C       0.1839  0.12173  0.69245     C
C       0.1839  0.30755  0.12173     C
C       0.1839  0.69245  0.87827     C
C       0.1839  0.87827  0.30755     C
C      0.18424  0.10533  0.38764     C
C      0.18424  0.38764  0.89467     C
C      0.18424  0.61236  0.10533     C
C      0.18424  0.89467  0.61236     C
C      0.18465  0.12595  0.62782     C
C      0.18465  0.37218  0.12595     C
C      0.18465  0.62782  0.87405     C
C      0.18465  0.87405  0.37218     C
C      0.18481  0.10631  0.32254     C
C      0.18481  0.32254  0.89369     C
C      0.18481  0.67746  0.10631     C
C      0.18481  0.89369  0.67746     C
H        0.198   0.1137     0.41     H
H        0.198     0.41   0.8863     H
H        0.198     0.59   0.1137     H
H        0.198   0.8863     0.59     H
H       0.1983   0.1287   0.7152     H
H       0.1983   0.2848   0.1287     H
H       0.1983   0.7152   0.8713     H
H       0.1983   0.8713   0.2848     H
H        0.199   0.1154   0.3005     H
H        0.199   0.1359   0.6062     H
H        0.199   0.3005   0.8846     H
H        0.199   0.3938   0.1359     H
H        0.199   0.6062   0.8641     H
H        0.199   0.6995   0.1154     H
H        0.199   0.8641   0.3938     H
H        0.199   0.8846   0.6995     H
C      0.20301  0.23466  0.72542     C
C      0.20301  0.27458  0.23466     C
C      0.20301  0.72542  0.76534     C
C      0.20301  0.76534  0.27458     C
C      0.20317  0.20857  0.69914     C
C      0.20317  0.30086  0.20857     C
C      0.20317  0.69914  0.79143     C
C      0.20317  0.79143  0.30086     C
C      0.20318  0.21933  0.29272     C
C      0.20318  0.29272  0.78067     C
C      0.20318  0.70728  0.21933     C
C      0.20318  0.78067  0.70728     C
C      0.20452  0.19249  0.32078     C
C      0.20452  0.32078  0.80751     C
C      0.20452  0.67922  0.19249     C
C      0.20452  0.80751  0.67922     C
C      0.20551   0.1369  0.66042     C
C      0.20551  0.33958   0.1369     C
C      0.20551  0.66042   0.8631     C
C      0.20551   0.8631  0.33958     C
C      0.20599  0.11854  0.35556     C
C      0.20599  0.35556  0.88146     C
C      0.20599  0.64444  0.11854     C
C      0.20599  0.88146  0.64444     C
N         0.25  0.14484  0.35516     N
N         0.25  0.16249  0.66249     N
C         0.25  0.17273  0.32727     C
C         0.25  0.18998  0.68998     C
C         0.25  0.22697  0.27303     C
C         0.25  0.24457  0.74457     C
C         0.25  0.25543  0.24457     C
C         0.25  0.27303  0.77303     C
C         0.25  0.31002  0.18998     C
C         0.25  0.32727  0.82727     C
N         0.25  0.33751  0.16249     N
N         0.25  0.35516  0.85516     N
N         0.25  0.64484  0.14484     N
N         0.25  0.66249  0.83751     N
C         0.25  0.67273  0.17273     C
C         0.25  0.68998  0.81002     C
C         0.25  0.72697  0.22697     C
C         0.25  0.74457  0.75543     C
C         0.25  0.75543  0.25543     C
C         0.25  0.77303  0.72697     C
C         0.25  0.81002  0.31002     C
C         0.25  0.82727  0.67273     C
N         0.25  0.83751  0.33751     N
N         0.25  0.85516  0.64484     N
C      0.29401  0.14444  0.38146     C
C      0.29401  0.38146  0.85556     C
C      0.29401  0.61854  0.14444     C
C      0.29401  0.85556  0.61854     C
C      0.29449  0.16042   0.6369     C
C      0.29449   0.3631  0.16042     C
C      0.29449   0.6369  0.83958     C
C      0.29449  0.83958   0.3631     C
C      0.29548  0.17922  0.30751     C
C      0.29548  0.30751  0.82078     C
C      0.29548  0.69249  0.17922     C
C      0.29548  0.82078  0.69249     C
C      0.29682  0.20728  0.28067     C
C      0.29682  0.28067  0.79272     C
C      0.29682  0.71933  0.20728     C
C      0.29682  0.79272  0.71933     C
C      0.29683  0.19914  0.70857     C
C      0.29683  0.29143  0.19914     C
C      0.29683  0.70857  0.80086     C
C      0.29683  0.80086  0.29143     C
C      0.29699  0.22542  0.73466     C
C      0.29699  0.26534  0.22542     C
C      0.29699  0.73466  0.77458     C
C      0.29699  0.77458  0.26534     C
H        0.301   0.1062   0.6359     H
H        0.301   0.1995   0.3846     H
H        0.301   0.3641   0.1062     H
H        0.301   0.3846   0.8005     H
H        0.301   0.6154   0.1995     H
H        0.301   0.6359   0.8938     H
H        0.301   0.8005   0.6154     H
H        0.301   0.8938   0.3641     H
H       0.3017   0.2152   0.6287     H
H       0.3017   0.3713   0.2152     H
H       0.3017   0.6287   0.7848     H
H       0.3017   0.7848   0.3713     H
H        0.302     0.09   0.3863     H
H        0.302   0.3863     0.91     H
H        0.302   0.6137     0.09     H
H        0.302     0.91   0.6137     H
C      0.31519  0.17746  0.39369     C
C      0.31519  0.39369  0.82254     C
C      0.31519  0.60631  0.17746     C
C      0.31519  0.82254  0.60631     C
C      0.31535  0.12782  0.62595     C
C      0.31535  0.37405  0.12782     C
C      0.31535  0.62595  0.87218     C
C      0.31535  0.87218  0.37405     C
C      0.31576  0.11236  0.39467     C
C      0.31576  0.39467  0.88764     C
C      0.31576  0.60533  0.11236     C
C      0.31576  0.88764  0.60533     C
C       0.3161  0.19245  0.62173     C
C       0.3161  0.37827  0.19245     C
C       0.3161  0.62173  0.80755     C
C       0.3161  0.80755  0.37827     C
H        0.327    0.165   0.3115     H
H        0.327   0.3115    0.835     H
H        0.327   0.6885    0.165     H
H        0.327    0.835   0.6885     H
H       0.3297   0.1869   0.7031     H
H       0.3297   0.2123   0.2682     H
H       0.3297   0.2682   0.7877     H
H       0.3297   0.2969   0.1869     H
H       0.3297   0.7031   0.8131     H
H       0.3297   0.7318   0.2123     H
H       0.3297   0.7877   0.7318     H
H       0.3297   0.8131   0.2969     H
H       0.3302   0.2309   0.7465     H
H       0.3302   0.2535   0.2309     H
H       0.3302   0.7465   0.7691     H
H       0.3302   0.7691   0.2535     H
C       0.3576  0.17809   0.4196     C
C       0.3576   0.4196  0.82191     C
C       0.3576   0.5804  0.17809     C
C       0.3576  0.82191   0.5804     C
C      0.35777  0.12581  0.60021     C
C      0.35777  0.39979  0.12581     C
C      0.35777  0.60021  0.87419     C
C      0.35777  0.87419  0.39979     C
C      0.35788  0.11276  0.42035     C
C      0.35788  0.42035  0.88724     C
C      0.35788  0.57965  0.11276     C
C      0.35788  0.88724  0.57965     C
C      0.35842   0.1909  0.59663     C
C      0.35842  0.40337   0.1909     C
C      0.35842  0.59663   0.8091     C
C      0.35842   0.8091  0.40337     C
H       0.3713    0.103   0.5929     H
H       0.3713   0.4071    0.103     H
H       0.3713   0.5929    0.897     H
H       0.3713    0.897   0.4071     H
H       0.3714   0.2005   0.4278     H
H       0.3714   0.4278   0.7995     H
H       0.3714   0.5722   0.2005     H
H       0.3714   0.7995   0.5722     H
H       0.3721   0.0907   0.4292     H
H       0.3721   0.4292   0.9093     H
H       0.3721   0.5708   0.0907     H
H       0.3721   0.9093   0.5708     H
H       0.3729   0.2126    0.587     H
H       0.3729    0.413   0.2126     H
H       0.3729    0.587   0.7874     H
H       0.3729   0.7874    0.413     H
C      0.37924  0.14597  0.43313     C
C      0.37924  0.43313  0.85403     C
C      0.37924  0.56687  0.14597     C
C      0.37924  0.85403  0.56687     C
C      0.37988  0.15755  0.58538     C
C      0.37988  0.41462  0.15755     C
C      0.37988  0.58538  0.84245     C
C      0.37988  0.84245  0.41462     C
C      0.42448  0.14638   0.4605     C
C      0.42448   0.4605  0.85362     C
C      0.42448   0.5395  0.14638     C
C      0.42448  0.85362   0.5395     C
C      0.42483  0.15538  0.55745     C
C      0.42483  0.44255  0.15538     C
C      0.42483  0.55745  0.84462     C
C      0.42483  0.84462  0.44255     C
O      0.44202   0.1244  0.54816     O
O      0.44202  0.45184   0.1244     O
O      0.44202  0.54816   0.8756     O
O      0.44202   0.8756  0.45184     O
O      0.44211  0.11686  0.47318     O
O      0.44211  0.47318  0.88314     O
O      0.44211  0.52682  0.11686     O
O      0.44211  0.88314  0.52682     O
O      0.44231  0.17803  0.46956     O
O      0.44231  0.46956  0.82197     O
O      0.44231  0.53044  0.17803     O
O      0.44231  0.82197  0.53044     O
O      0.44241  0.18537   0.5447     O
O      0.44241   0.4553  0.18537     O
O      0.44241   0.5447  0.81463     O
O      0.44241  0.81463   0.4553     O
Cu         0.5  0.11507  0.51118    Cu
Cu         0.5  0.18713  0.50653    Cu
Cu         0.5  0.48882  0.11507    Cu
Cu         0.5  0.49347  0.18713    Cu
Cu         0.5  0.50653  0.81287    Cu
Cu         0.5  0.51118  0.88493    Cu
Cu         0.5  0.81287  0.49347    Cu
Cu         0.5  0.88493  0.48882    Cu
O      0.55759  0.18537   0.5447     O
O      0.55759   0.4553  0.18537     O
O      0.55759   0.5447  0.81463     O
O      0.55759  0.81463   0.4553     O
O      0.55769  0.17803  0.46956     O
O      0.55769  0.46956  0.82197     O
O      0.55769  0.53044  0.17803     O
O      0.55769  0.82197  0.53044     O
O      0.55789  0.11686  0.47318     O
O      0.55789  0.47318  0.88314     O
O      0.55789  0.52682  0.11686     O
O      0.55789  0.88314  0.52682     O
O      0.55798   0.1244  0.54816     O
O      0.55798  0.45184   0.1244     O
O      0.55798  0.54816   0.8756     O
O      0.55798   0.8756  0.45184     O
C      0.57517  0.15538  0.55745     C
C      0.57517  0.44255  0.15538     C
C      0.57517  0.55745  0.84462     C
C      0.57517  0.84462  0.44255     C
C      0.57552  0.14638   0.4605     C
C      0.57552   0.4605  0.85362     C
C      0.57552   0.5395  0.14638     C
C      0.57552  0.85362   0.5395     C
C      0.62012  0.15755  0.58538     C
C      0.62012  0.41462  0.15755     C
C      0.62012  0.58538  0.84245     C
C      0.62012  0.84245  0.41462     C
C      0.62076  0.14597  0.43313     C
C      0.62076  0.43313  0.85403     C
C      0.62076  0.56687  0.14597     C
C      0.62076  0.85403  0.56687     C
H       0.6271   0.2126    0.587     H
H       0.6271    0.413   0.2126     H
H       0.6271    0.587   0.7874     H
H       0.6271   0.7874    0.413     H
H       0.6279   0.0907   0.4292     H
H       0.6279   0.4292   0.9093     H
H       0.6279   0.5708   0.0907     H
H       0.6279   0.9093   0.5708     H
H       0.6286   0.2005   0.4278     H
H       0.6286   0.4278   0.7995     H
H       0.6286   0.5722   0.2005     H
H       0.6286   0.7995   0.5722     H
H       0.6287    0.103   0.5929     H
H       0.6287   0.4071    0.103     H
H       0.6287   0.5929    0.897     H
H       0.6287    0.897   0.4071     H
C      0.64158   0.1909  0.59663     C
C      0.64158  0.40337   0.1909     C
C      0.64158  0.59663   0.8091     C
C      0.64158   0.8091  0.40337     C
C      0.64212  0.11276  0.42035     C
C      0.64212  0.42035  0.88724     C
C      0.64212  0.57965  0.11276     C
C      0.64212  0.88724  0.57965     C
C      0.64223  0.12581  0.60021     C
C      0.64223  0.39979  0.12581     C
C      0.64223  0.60021  0.87419     C
C      0.64223  0.87419  0.39979     C
C       0.6424  0.17809   0.4196     C
C       0.6424   0.4196  0.82191     C
C       0.6424   0.5804  0.17809     C
C       0.6424  0.82191   0.5804     C
H       0.6698   0.2309   0.7465     H
H       0.6698   0.2535   0.2309     H
H       0.6698   0.7465   0.7691     H
H       0.6698   0.7691   0.2535     H
H       0.6703   0.1869   0.7031     H
H       0.6703   0.2123   0.2682     H
H       0.6703   0.2682   0.7877     H
H       0.6703   0.2969   0.1869     H
H       0.6703   0.7031   0.8131     H
H       0.6703   0.7318   0.2123     H
H       0.6703   0.7877   0.7318     H
H       0.6703   0.8131   0.2969     H
H        0.673    0.165   0.3115     H
H        0.673   0.3115    0.835     H
H        0.673   0.6885    0.165     H
H        0.673    0.835   0.6885     H
C       0.6839  0.19245  0.62173     C
C       0.6839  0.37827  0.19245     C
C       0.6839  0.62173  0.80755     C
C       0.6839  0.80755  0.37827     C
C      0.68424  0.11236  0.39467     C
C      0.68424  0.39467  0.88764     C
C      0.68424  0.60533  0.11236     C
C      0.68424  0.88764  0.60533     C
C      0.68465  0.12782  0.62595     C
C      0.68465  0.37405  0.12782     C
C      0.68465  0.62595  0.87218     C
C      0.68465  0.87218  0.37405     C
C      0.68481  0.17746  0.39369     C
C      0.68481  0.39369  0.82254     C
C      0.68481  0.60631  0.17746     C
C      0.68481  0.82254  0.60631     C
H        0.698     0.09   0.3863     H
H        0.698   0.3863     0.91     H
H        0.698   0.6137     0.09     H
H        0.698     0.91   0.6137     H
H       0.6983   0.2152   0.6287     H
H       0.6983   0.3713   0.2152     H
H       0.6983   0.6287   0.7848     H
H       0.6983   0.7848   0.3713     H
H        0.699   0.1062   0.6359     H
H        0.699   0.1995   0.3846     H
H        0.699   0.3641   0.1062     H
H        0.699   0.3846   0.8005     H
H        0.699   0.6154   0.1995     H
H        0.699   0.6359   0.8938     H
H        0.699   0.8005   0.6154     H
H        0.699   0.8938   0.3641     H
C      0.70301  0.22542  0.73466     C
C      0.70301  0.26534  0.22542     C
C      0.70301  0.73466  0.77458     C
C      0.70301  0.77458  0.26534     C
C      0.70317  0.19914  0.70857     C
C      0.70317  0.29143  0.19914     C
C      0.70317  0.70857  0.80086     C
C      0.70317  0.80086  0.29143     C
C      0.70318  0.20728  0.28067     C
C      0.70318  0.28067  0.79272     C
C      0.70318  0.71933  0.20728     C
C      0.70318  0.79272  0.71933     C
C      0.70452  0.17922  0.30751     C
C      0.70452  0.30751  0.82078     C
C      0.70452  0.69249  0.17922     C
C      0.70452  0.82078  0.69249     C
C      0.70551  0.16042   0.6369     C
C      0.70551   0.3631  0.16042     C
C      0.70551   0.6369  0.83958     C
C      0.70551  0.83958   0.3631     C
C      0.70599  0.14444  0.38146     C
C      0.70599  0.38146  0.85556     C
C      0.70599  0.61854  0.14444     C
C      0.70599  0.85556  0.61854     C
N         0.75  0.14484  0.35516     N
N         0.75  0.16249  0.66249     N
C         0.75  0.17273  0.32727     C
C         0.75  0.18998  0.68998     C
C         0.75  0.22697  0.27303     C
C         0.75  0.24457  0.74457     C
C         0.75  0.25543  0.24457     C
C         0.75  0.27303  0.77303     C
C         0.75  0.31002  0.18998     C
C         0.75  0.32727  0.82727     C
N         0.75  0.33751  0.16249     N
N         0.75  0.35516  0.85516     N
N         0.75  0.64484  0.14484     N
N         0.75  0.66249  0.83751     N
C         0.75  0.67273  0.17273     C
C         0.75  0.68998  0.81002     C
C         0.75  0.72697  0.22697     C
C         0.75  0.74457  0.75543     C
C         0.75  0.75543  0.25543     C
C         0.75  0.77303  0.72697     C
C         0.75  0.81002  0.31002     C
C         0.75  0.82727  0.67273     C
N         0.75  0.83751  0.33751     N
N         0.75  0.85516  0.64484     N
C      0.79401  0.11854  0.35556     C
C      0.79401  0.35556  0.88146     C
C      0.79401  0.64444  0.11854     C
C      0.79401  0.88146  0.64444     C
C      0.79449   0.1369  0.66042     C
C      0.79449  0.33958   0.1369     C
C      0.79449  0.66042   0.8631     C
C      0.79449   0.8631  0.33958     C
C      0.79548  0.19249  0.32078     C
C      0.79548  0.32078  0.80751     C
C      0.79548  0.67922  0.19249     C
C      0.79548  0.80751  0.67922     C
C      0.79682  0.21933  0.29272     C
C      0.79682  0.29272  0.78067     C
C      0.79682  0.70728  0.21933     C
C      0.79682  0.78067  0.70728     C
C      0.79683  0.20857  0.69914     C
C      0.79683  0.30086  0.20857     C
C      0.79683  0.69914  0.79143     C
C      0.79683  0.79143  0.30086     C
C      0.79699  0.23466  0.72542     C
C      0.79699  0.27458  0.23466     C
C      0.79699  0.72542  0.76534     C
C      0.79699  0.76534  0.27458     C
H        0.801   0.1154   0.3005     H
H        0.801   0.1359   0.6062     H
H        0.801   0.3005   0.8846     H
H        0.801   0.3938   0.1359     H
H        0.801   0.6062   0.8641     H
H        0.801   0.6995   0.1154     H
H        0.801   0.8641   0.3938     H
H        0.801   0.8846   0.6995     H
H       0.8017   0.1287   0.7152     H
H       0.8017   0.2848   0.1287     H
H       0.8017   0.7152   0.8713     H
H       0.8017   0.8713   0.2848     H
H        0.802   0.1137     0.41     H
H        0.802     0.41   0.8863     H
H        0.802     0.59   0.1137     H
H        0.802   0.8863     0.59     H
C      0.81519  0.10631  0.32254     C
C      0.81519  0.32254  0.89369     C
C      0.81519  0.67746  0.10631     C
C      0.81519  0.89369  0.67746     C
C      0.81535  0.12595  0.62782     C
C      0.81535  0.37218  0.12595     C
C      0.81535  0.62782  0.87405     C
C      0.81535  0.87405  0.37218     C
C      0.81576  0.10533  0.38764     C
C      0.81576  0.38764  0.89467     C
C      0.81576  0.61236  0.10533     C
C      0.81576  0.89467  0.61236     C
C       0.8161  0.12173  0.69245     C
C       0.8161  0.30755  0.12173     C
C       0.8161  0.69245  0.87827     C
C       0.8161  0.87827  0.30755     C
H        0.827   0.1885    0.335     H
H        0.827    0.335   0.8115     H
H        0.827    0.665   0.1885     H
H        0.827   0.8115    0.665     H
H       0.8297   0.2031   0.6869     H
H       0.8297   0.2318   0.2877     H
H       0.8297   0.2877   0.7682     H
H       0.8297   0.3131   0.2031     H
H       0.8297   0.6869   0.7969     H
H       0.8297   0.7123   0.2318     H
H       0.8297   0.7682   0.7123     H
H       0.8297   0.7969   0.3131     H
H       0.8302   0.2465   0.7309     H
H       0.8302   0.2691   0.2465     H
H       0.8302   0.7309   0.7535     H
H       0.8302   0.7535   0.2691     H
C       0.8576   0.0804  0.32191     C
C       0.8576  0.32191   0.9196     C
C       0.8576  0.67809   0.0804     C
C       0.8576   0.9196  0.67809     C
C      0.85777  0.10021  0.62581     C
C      0.85777  0.37419  0.10021     C
C      0.85777  0.62581  0.89979     C
C      0.85777  0.89979  0.37419     C
C      0.85788  0.07965  0.38724     C
C      0.85788  0.38724  0.92035     C
C      0.85788  0.61276  0.07965     C
C      0.85788  0.92035  0.61276     C
C      0.85842  0.09663   0.6909     C
C      0.85842   0.3091  0.09663     C
C      0.85842   0.6909  0.90337     C
C      0.85842  0.90337   0.3091     C
H       0.8713   0.0929    0.603     H
H       0.8713    0.397   0.0929     H
H       0.8713    0.603   0.9071     H
H       0.8713   0.9071    0.397     H
H       0.8714   0.0722   0.2995     H
H       0.8714   0.2995   0.9278     H
H       0.8714   0.7005   0.0722     H
H       0.8714   0.9278   0.7005     H
H       0.8721   0.0708   0.4093     H
H       0.8721   0.4093   0.9292     H
H       0.8721   0.5907   0.0708     H
H       0.8721   0.9292   0.5907     H
H       0.8729    0.087   0.7126     H
H       0.8729   0.2874    0.087     H
H       0.8729   0.7126    0.913     H
H       0.8729    0.913   0.2874     H
C      0.87924  0.06687  0.35403     C
C      0.87924  0.35403  0.93313     C
C      0.87924  0.64597  0.06687     C
C      0.87924  0.93313  0.64597     C
C      0.87988  0.08538  0.65755     C
C      0.87988  0.34245  0.08538     C
C      0.87988  0.65755  0.91462     C
C      0.87988  0.91462  0.34245     C
C      0.92448   0.0395  0.35362     C
C      0.92448  0.35362   0.9605     C
C      0.92448  0.64638   0.0395     C
C      0.92448   0.9605  0.64638     C
C      0.92483  0.05745  0.65538     C
C      0.92483  0.34462  0.05745     C
C      0.92483  0.65538  0.94255     C
C      0.92483  0.94255  0.34462     C
O      0.94202  0.04816   0.6244     O
O      0.94202   0.3756  0.04816     O
O      0.94202   0.6244  0.95184     O
O      0.94202  0.95184   0.3756     O
O      0.94211  0.02682  0.38314     O
O      0.94211  0.38314  0.97318     O
O      0.94211  0.61686  0.02682     O
O      0.94211  0.97318  0.61686     O
O      0.94231  0.03044  0.32197     O
O      0.94231  0.32197  0.96956     O
O      0.94231  0.67803  0.03044     O
O      0.94231  0.96956  0.67803     O
O      0.94241   0.0447  0.68537     O
O      0.94241  0.31463   0.0447     O
O      0.94241  0.68537   0.9553     O
O      0.94241   0.9553  0.31463     O
