data_I
_chemical_name_common  '/home/zhangsd/repos/MofS-CGCNN/ML/data/TSD/clean_cifs/XAFXOT_clean'
_cell_length_a  4.55880
_cell_length_b 11.90180
_cell_length_c 15.80050
_cell_angle_alpha 85.91200
_cell_angle_beta  84.81100
_cell_angle_gamma 83.24900
_space_group_name_H-M_alt      'P 1'


loop_
_space_group_symop_operation_xyz
  'x, y, z' 

loop_
_atom_site_label
_atom_site_fract_x
_atom_site_fract_y
_atom_site_fract_z
_atom_site_type_symbol
C       0.0246   0.7625  0.44563     C
H       0.0304   0.0277   0.1276     H
H       0.0306   0.8516   0.9228     H
C       0.0309   0.7821   0.2895     C
O       0.0516  0.02403  0.35126     O
O       0.0748  0.20812  0.48274     O
N       0.0907   0.1909  0.62454     N
H       0.1078   0.8507   0.2609     H
C       0.1275   0.9138    0.891     C
H       0.1333   0.2354   0.7425     H
La     0.19167  0.22426  0.32633    La
O       0.1961  0.79867  0.77374     O
O       0.2002   0.1396  0.88961     O
H       0.2087   0.6006   0.4708     H
C       0.2143   0.9816   0.6245     C
O       0.2346  0.42553  0.38787     O
H        0.236   0.4502   0.6079     H
H       0.2675   0.4517   0.7078     H
C       0.2744   0.6852   0.2831     C
C       0.2757   0.6695   0.4398     C
N       0.3046    0.963  0.94744     N
H       0.3068   0.8455   0.0442     H
C       0.3096   0.8677   0.8128     C
O       0.3222  0.65697  0.65137     O
C       0.3275   0.0976    0.617     C
C        0.336   0.0725   0.9395     C
O       0.3634   0.6526  0.21226     O
C       0.3778   0.4558   0.6509     C
N       0.3925   0.6404   0.3544     N
O       0.3987  0.89788    0.607     O
H       0.4272   0.1782   0.0273     H
H       0.4397   0.6916   0.4698     H
O       0.4409   0.0998  0.20653     O
H       0.4427   0.1071   0.5613     H
C       0.4577   0.8818   0.0062     C
H       0.4632    0.101    0.662     H
C       0.4994   0.5695  0.63659     C
C       0.5006   0.4305  0.36341     C
H       0.5368    0.899    0.338     H
C       0.5423   0.1182   0.9938     C
H       0.5573   0.8929   0.4387     H
O       0.5591   0.9002  0.79347     O
H       0.5603   0.3084   0.5302     H
H       0.5728   0.8218   0.9727     H
O       0.6013  0.10212    0.393     O
N       0.6075   0.3596   0.6456     N
C       0.6222   0.5442   0.3491     C
O       0.6366   0.3474  0.78774     O
C        0.664   0.9275   0.0605     C
C       0.6725   0.9024    0.383     C
O       0.6778  0.34303  0.34863     O
C       0.6904   0.1323   0.1872     C
H       0.6932   0.1545   0.9558     H
N       0.6954    0.037  0.05256     N
C       0.7243   0.3305   0.5602     C
C       0.7256   0.3148   0.7169     C
H       0.7325   0.5483   0.2922     H
H        0.764   0.5498   0.3921     H
O       0.7654  0.57447  0.61213     O
C       0.7857   0.0184   0.3755     C
H       0.7913   0.3994   0.5292     H
O       0.7998   0.8604  0.11039     O
O       0.8039  0.20133  0.22626     O
La     0.80833  0.77574  0.67367    La
H       0.8667   0.7646   0.2575     H
C       0.8725   0.0862    0.109     C
H       0.8922   0.1493   0.7391     H
N       0.9093   0.8091  0.37546     N
O       0.9252  0.79188  0.51726     O
O       0.9484  0.97597  0.64874     O
C       0.9691   0.2179   0.7105     C
H       0.9694   0.1484   0.0772     H
H       0.9696   0.9723   0.8724     H
C       0.9754   0.2375  0.55437     C
