data_I
_chemical_name_common  '/home/zhangsd/repos/MofS-CGCNN/ML/data/TSD/clean_cifs/XAJQAC_SL'
_cell_length_a 15.63230
_cell_length_b 16.18540
_cell_length_c 14.32530
_cell_angle_alpha 90.00000
_cell_angle_beta  103.23700
_cell_angle_gamma 90.00000
_space_group_name_H-M_alt      'P 1'


loop_
_space_group_symop_operation_xyz
  'x, y, z' 

loop_
_atom_site_label
_atom_site_fract_x
_atom_site_fract_y
_atom_site_fract_z
_atom_site_type_symbol
C       0.0445   0.4966   0.2657     C
C       0.0445   0.5034   0.7657     C
C       0.0483   0.3359   0.2688     C
C       0.0483   0.6641   0.7688     C
C       0.0484    0.343   0.7694     C
C       0.0484    0.657   0.2694     C
H       0.0891   0.2806   0.2826     H
H       0.0891   0.2878   0.7847     H
H       0.0891   0.7122   0.2847     H
H       0.0891   0.7194   0.7826     H
C       0.0895   0.4176   0.2739     C
C       0.0895   0.5824   0.7739     C
C       0.0896   0.4245   0.7736     C
C       0.0896   0.5755   0.2736     C
C       0.1814   0.4187   0.2969     C
C       0.1814   0.5813   0.7969     C
C       0.1815   0.4256   0.7976     C
C       0.1815   0.5744   0.2976     C
H       0.1918   0.2935   0.4293     H
H       0.1918   0.7065   0.9293     H
H          0.2   0.3014    0.933     H
H          0.2   0.6986    0.433     H
C       0.2297   0.4965    0.318     C
C       0.2297   0.5035    0.818     C
C       0.2307   0.2794   0.3772     C
C       0.2307   0.7206   0.8772     C
C       0.2313   0.3344   0.3055     C
C       0.2313   0.6656   0.8055     C
C       0.2318   0.3411   0.8046     C
C       0.2318   0.6589   0.3046     C
C       0.2367   0.2876   0.8788     C
C       0.2367   0.7124   0.3788     C
H       0.2686   0.3508    0.671     H
H       0.2686   0.6492    0.171     H
C       0.2692   0.3118   0.7333     C
C       0.2692   0.6882   0.2333     C
C       0.2695   0.3045   0.2352     C
C       0.2695   0.6955   0.7352     C
H       0.2719   0.3438   0.1741     H
H       0.2719   0.6562   0.6741     H
C       0.2788   0.2047   0.3864     C
C       0.2788   0.7953   0.8864     C
H       0.2826   0.1663   0.4498     H
H       0.2826   0.8337   0.9498     H
C       0.2878   0.2144   0.8881     C
C       0.2878   0.7856   0.3881     C
H       0.2975   0.1785   0.9541     H
H       0.2975   0.8215   0.4541     H
H       0.3003   0.4965   0.3484     H
H       0.3003   0.5035   0.8484     H
C       0.3059   0.2243   0.2397     C
C       0.3059   0.7757   0.7397     C
C       0.3087   0.2327    0.738     C
C       0.3087   0.7673    0.238     C
C       0.3194   0.1805   0.3198     C
C       0.3194   0.8195   0.8198     C
H       0.3232   0.1982   0.1763     H
H       0.3232   0.8018   0.6763     H
C       0.3241   0.1889   0.8183     C
C       0.3241   0.8111   0.3183     C
H       0.3266   0.2075   0.6746     H
H       0.3266   0.7925   0.1746     H
H      0.38123   0.0014    0.613     H
H      0.38123   0.9986    0.113     H
C       0.3896   0.1187   0.3413     C
C       0.3896   0.8813   0.8413     C
C       0.3897   0.1225   0.8348     C
C       0.3897   0.8775   0.3348     C
O       0.4173   0.1052   0.7642     O
O       0.4173   0.8948   0.2642     O
O       0.4213   0.0996   0.4256     O
O       0.4213   0.9004   0.9256     O
O       0.4219   0.0987   0.9223     O
O       0.4219   0.9013   0.4223     O
O       0.4263   0.1005   0.2684     O
O       0.4263   0.8995   0.7684     O
O       0.4452   0.0014    0.613     O
O       0.4452   0.9986    0.113     O
In         0.5     -0.0      0.0    In
In         0.5     -0.0      0.5    In
In         0.5   0.0082     0.75    In
In         0.5   0.9918     0.25    In
O       0.5548   0.0014    0.887     O
O       0.5548   0.9986    0.387     O
O       0.5737   0.1005   0.2316     O
O       0.5737   0.8995   0.7316     O
O       0.5781   0.0987   0.5777     O
O       0.5781   0.9013   0.0777     O
O       0.5787   0.0996   0.0744     O
O       0.5787   0.9004   0.5744     O
O       0.5827   0.1052   0.7358     O
O       0.5827   0.8948   0.2358     O
C       0.6103   0.1225   0.6652     C
C       0.6103   0.8775   0.1652     C
C       0.6104   0.1187   0.1587     C
C       0.6104   0.8813   0.6587     C
H      0.61877   0.0014    0.887     H
H      0.61877   0.9986    0.387     H
H       0.6734   0.2075   0.8254     H
H       0.6734   0.7925   0.3254     H
C       0.6759   0.1889   0.6817     C
C       0.6759   0.8111   0.1817     C
H       0.6768   0.1982   0.3237     H
H       0.6768   0.8018   0.8237     H
C       0.6806   0.1805   0.1802     C
C       0.6806   0.8195   0.6802     C
C       0.6913   0.2327    0.762     C
C       0.6913   0.7673    0.262     C
C       0.6941   0.2243   0.2603     C
C       0.6941   0.7757   0.7603     C
H       0.6997   0.4965   0.1516     H
H       0.6997   0.5035   0.6516     H
H       0.7025   0.1785   0.5459     H
H       0.7025   0.8215   0.0459     H
C       0.7122   0.2144   0.6119     C
C       0.7122   0.7856   0.1119     C
H       0.7174   0.1663   0.0502     H
H       0.7174   0.8337   0.5502     H
C       0.7212   0.2047   0.1136     C
C       0.7212   0.7953   0.6136     C
H       0.7281   0.3438   0.3259     H
H       0.7281   0.6562   0.8259     H
C       0.7305   0.3045   0.2648     C
C       0.7305   0.6955   0.7648     C
C       0.7308   0.3118   0.7667     C
C       0.7308   0.6882   0.2667     C
H       0.7314   0.3508    0.829     H
H       0.7314   0.6492    0.329     H
C       0.7633   0.2876   0.6212     C
C       0.7633   0.7124   0.1212     C
C       0.7682   0.3411   0.6954     C
C       0.7682   0.6589   0.1954     C
C       0.7687   0.3344   0.1945     C
C       0.7687   0.6656   0.6945     C
C       0.7693   0.2794   0.1228     C
C       0.7693   0.7206   0.6228     C
C       0.7703   0.4965    0.182     C
C       0.7703   0.5035    0.682     C
H          0.8   0.3014    0.567     H
H          0.8   0.6986    0.067     H
H       0.8082   0.2935   0.0707     H
H       0.8082   0.7065   0.5707     H
C       0.8185   0.4256   0.7024     C
C       0.8185   0.5744   0.2024     C
C       0.8186   0.4187   0.2031     C
C       0.8186   0.5813   0.7031     C
C       0.9104   0.4245   0.7264     C
C       0.9104   0.5755   0.2264     C
C       0.9105   0.4176   0.2261     C
C       0.9105   0.5824   0.7261     C
H       0.9109   0.2806   0.2174     H
H       0.9109   0.2878   0.7153     H
H       0.9109   0.7122   0.2153     H
H       0.9109   0.7194   0.7174     H
C       0.9516    0.343   0.7306     C
C       0.9516    0.657   0.2306     C
C       0.9517   0.3359   0.2312     C
C       0.9517   0.6641   0.7312     C
C       0.9555   0.4966   0.2343     C
C       0.9555   0.5034   0.7343     C
