data_I
_chemical_name_common  '/home/zhangsd/repos/MofS-CGCNN/ML/data/TSD/clean_cifs/XALMII_clean'
_cell_length_a 19.73000
_cell_length_b 24.65000
_cell_length_c 24.65000
_cell_angle_alpha 120.00000
_cell_angle_beta  90.00000
_cell_angle_gamma 90.00000
_space_group_name_H-M_alt      'P 1'


loop_
_space_group_symop_operation_xyz
  'x, y, z' 

loop_
_atom_site_label
_atom_site_fract_x
_atom_site_fract_y
_atom_site_fract_z
_atom_site_type_symbol
C      0.00238  0.40688  0.94323     C
C      0.00851  0.03269  0.14592     C
H      0.00917   0.9193   0.4455     H
H      0.01283   0.1261   0.1736     H
C       0.0196  0.51369  0.92017     C
H      0.02003   0.0816   0.0994     H
O      0.02427   0.6514  0.86636     O
H      0.02557   0.9189   0.8746     H
H      0.02587   0.9164   0.3502     H
H      0.02967   0.8114   0.5277     H
H       0.0323   0.4351   0.3828     H
C      0.03315  0.08741  0.14034     C
C      0.03319  0.56761  0.91864     C
C       0.0337  0.83114  0.57196     C
C      0.03766  0.39094  0.35872     C
O       0.0381  0.95731  0.27315     O
O      0.04339  0.98412  0.12136     O
C      0.04363  0.88464  0.69884     C
Co     0.04477  0.89534  0.10932    Co
N      0.04481  0.30694  0.92327     N
H      0.04637   0.9027    0.743     H
H       0.0493   0.6658   0.0451     H
C      0.05266  0.26252   0.2879     C
O      0.05362   0.8047  0.09825     O
Co     0.05471  0.80365  0.96371    Co
H       0.0578   0.2183   0.2637     H
C      0.06122   0.4176   0.9202     C
O      0.06252  0.86175  0.92833     O
O       0.0657  0.73913  0.99634     O
C      0.06575  0.75192  0.05248     C
C      0.07278  0.47651  0.91954     C
C       0.0752  0.91747  0.87508     C
H        0.082   0.7156   0.1108     H
H      0.08263   0.0902   0.1444     H
C      0.08281  0.69948  0.06553     C
C      0.08439  0.81311  0.59761     C
C      0.09047  0.84016  0.66134     C
H      0.09277   0.9582   0.9073     H
H      0.09287   0.9078    0.834     H
C      0.09361  0.95234  0.24618     C
N      0.09586   0.5873  0.91743     N
C       0.0975  0.86734   0.8894     C
C      0.10114  0.31708   0.8996     C
C      0.10198  0.36571  0.33762     C
O      0.10433  0.92577  0.18849     O
H      0.10547   0.0107   0.3711     H
C      0.10897  0.30062   0.3011     C
H       0.1092   0.7439   0.8712     H
C      0.11136  0.37187  0.89737     C
Co     0.11496  0.66793  0.91136    Co
H      0.11557   0.7816    0.571     H
O      0.11892  0.86507  0.03862     O
O      0.12669  0.74566  0.90362     O
H      0.12743   0.2342   0.9344     H
H        0.128   0.6831   0.0491     H
H       0.1331   0.4793   0.4365     H
C      0.13789  0.49725  0.91884     C
H       0.1407   0.5803   0.5019     H
C      0.14761  0.55277  0.91741     C
C      0.14801  0.82296  0.68989     C
C      0.14879  0.00779  0.35306     C
O      0.14892  0.84711  0.74792     O
O      0.14997  0.83464   0.8624     O
H      0.15203   0.3779   0.8805     H
H       0.1522   0.2826   0.2854     H
C      0.15489  0.26822  0.87781     C
C      0.15552  0.97845  0.28779     C
C      0.15931  0.23009  0.90363     C
H       0.1628   0.6736    0.592     H
C      0.16293  0.40541  0.35122     C
C      0.16905  0.46365  0.40688     C
C      0.17518  0.88677  0.03269     C
H      0.17583   0.4738   0.9193     H
H       0.1795   0.9525   0.1261     H
C      0.18627  0.59352  0.51369     C
H       0.1867   0.9822   0.0816     H
O      0.19094  0.78504   0.6514     O
H      0.19223   0.0443   0.9189     H
H      0.19253   0.5662   0.9164     H
H      0.19633   0.2837   0.8114     H
H      0.19897   0.0523   0.4351     H
C      0.19982  0.94707  0.08741     C
C      0.19986  0.64897  0.56761     C
C      0.20036  0.25918  0.83114     C
C      0.20433  0.03222  0.39094     C
O      0.20476  0.68416  0.95731     O
O      0.21006  0.86276  0.98412     O
C      0.21029   0.1858  0.88464     C
Co     0.21144  0.78602  0.89534    Co
N      0.21148  0.38367  0.30694     N
H      0.21303   0.1597   0.9027     H
H      0.21597   0.6207   0.6658     H
C      0.21933  0.97462  0.26252     C
O      0.22029  0.70645   0.8047     O
Co     0.22137  0.83994  0.80365    Co
H      0.22447   0.9546   0.2183     H
C      0.22789   0.4974   0.4176     C
O      0.22918  0.93342  0.86175     O
O      0.23237  0.74279  0.73913     O
C      0.23242  0.69944  0.75192     C
C      0.23945  0.55697  0.47651     C
C      0.24186  0.04239  0.91747     C
H      0.24867   0.6048   0.7156     H
H       0.2493   0.9458   0.0902     H
C      0.24948  0.63395  0.69948     C
C      0.25105   0.2155  0.81311     C
C      0.25713  0.17882  0.84016     C
H      0.25943   0.0509   0.9582     H
H      0.25953   0.0738   0.9078     H
C      0.26027  0.70616  0.95234     C
N      0.26253  0.66987   0.5873     N
C      0.26416  0.97794  0.86734     C
C      0.26781  0.41748  0.31708     C
C      0.26865  0.02809  0.36571     C
O      0.27099  0.73728  0.92577     O
H      0.27213   0.6396   0.0107     H
C      0.27564  0.99952  0.30062     C
H      0.27587   0.8727   0.7439     H
C      0.27803   0.4745  0.37187     C
Co     0.28162  0.75657  0.66793    Co
H      0.28223   0.2106   0.7816     H
O      0.28559  0.82645  0.86507     O
O      0.29336  0.84204  0.74566     O
H       0.2941   0.2998   0.2342     H
H      0.29467    0.634   0.6831     H
H      0.29977   0.0428   0.4793     H
C      0.30456  0.57841  0.49725     C
H      0.30737   0.0784   0.5803     H
C      0.31428  0.63536  0.55277     C
C      0.31467  0.13307  0.82296     C
C      0.31545  0.65473  0.00779     C
O      0.31558  0.09919  0.84711     O
O      0.31663  0.97224  0.83464     O
H       0.3187   0.4974   0.3779     H
H      0.31887   0.9972   0.2826     H
C      0.32156  0.39041  0.26822     C
C      0.32218  0.69066  0.97845     C
C      0.32598  0.32646  0.23009     C
H      0.32947   0.0816   0.6736     H
C       0.3296  0.05419  0.40541     C
C      0.33572  0.05677  0.46365     C
C      0.34185  0.85408  0.88677     C
H       0.3425   0.5545   0.4738     H
H      0.34617   0.8264   0.9525     H
C      0.35294  0.07983  0.59352     C
H      0.35337   0.9006   0.9822     H
O       0.3576  0.13364  0.78504     O
H       0.3589   0.1254   0.0443     H
H       0.3592   0.6498   0.5662     H
H        0.363   0.4723   0.2837     H
H      0.36563   0.6172   0.0523     H
C      0.36649  0.85966  0.94707     C
C      0.36653  0.08136  0.64897     C
C      0.36703  0.42804  0.25918     C
C      0.37099  0.64128  0.03222     C
O      0.37143  0.72685  0.68416     O
O      0.37673  0.87864  0.86276     O
C      0.37696  0.30116   0.1858     C
Co      0.3781  0.89068  0.78602    Co
N      0.37815  0.07673  0.38367     N
H       0.3797    0.257   0.1597     H
H      0.38263   0.9549   0.6207     H
C      0.38599   0.7121  0.97462     C
O      0.38695  0.90175  0.70645     O
Co     0.38804  0.03629  0.83994    Co
H      0.39113   0.7363   0.9546     H
C      0.39456   0.0798   0.4974     C
O      0.39585  0.07167  0.93342     O
O      0.39903  0.00366  0.74279     O
C      0.39908  0.94752  0.69944     C
C      0.40612  0.08046  0.55697     C
C      0.40853  0.12492  0.04239     C
H      0.41533   0.8892   0.6048     H
H      0.41597   0.8556   0.9458     H
C      0.41614  0.93447  0.63395     C
C      0.41772  0.40239   0.2155     C
C       0.4238  0.33866  0.17882     C
H       0.4261   0.0927   0.0509     H
H       0.4262    0.166   0.0738     H
C      0.42694  0.75382  0.70616     C
N       0.4292  0.08257  0.66987     N
C      0.43083   0.1106  0.97794     C
C      0.43448   0.1004  0.41748     C
C      0.43531  0.66238  0.02809     C
O      0.43766  0.81151  0.73728     O
H       0.4388   0.6289   0.6396     H
C       0.4423   0.6989  0.99952     C
H      0.44253   0.1288   0.8727     H
C       0.4447  0.10263   0.4745     C
Co     0.44829  0.08864  0.75657    Co
H       0.4489    0.429   0.2106     H
O      0.45225  0.96138  0.82645     O
O      0.46002  0.09638  0.84204     O
H      0.46077   0.0656   0.2998     H
H      0.46133   0.9509    0.634     H
H      0.46643   0.5635   0.0428     H
C      0.47123  0.08116  0.57841     C
H      0.47403   0.4981   0.0784     H
C      0.48095  0.08259  0.63536     C
C      0.48134  0.31011  0.13307     C
C      0.48212  0.64694  0.65473     C
O      0.48225  0.25208  0.09919     O
O       0.4833   0.1376  0.97224     O
H      0.48537   0.1195   0.4974     H
H      0.48553   0.7146   0.9972     H
C      0.48823  0.12219  0.39041     C
C      0.48885  0.71221  0.69066     C
C      0.49265  0.09637  0.32646     C
H      0.49613    0.408   0.0816     H
C      0.49626  0.64878  0.05419     C
C      0.50238  0.59312  0.05677     C
C      0.50851  0.96731  0.85408     C
H      0.50917   0.0807   0.5545     H
H      0.51283   0.8739   0.8264     H
C       0.5196  0.48631  0.07983     C
H      0.52003   0.9184   0.9006     H
O      0.52427   0.3486  0.13364     O
H      0.52557   0.0811   0.1254     H
H      0.52587   0.0836   0.6498     H
H      0.52967   0.1886   0.4723     H
H       0.5323   0.5649   0.6172     H
C      0.53315  0.91259  0.85966     C
C      0.53319  0.43239  0.08136     C
C       0.5337  0.16886  0.42804     C
C      0.53766  0.60906  0.64128     C
O       0.5381  0.04269  0.72685     O
O      0.54339  0.01588  0.87864     O
C      0.54363  0.11536  0.30116     C
Co     0.54477  0.10466  0.89068    Co
N      0.54481  0.69306  0.07673     N
H      0.54637   0.0973    0.257     H
H       0.5493   0.3342   0.9549     H
C      0.55266  0.73748   0.7121     C
O      0.55362   0.1953  0.90175     O
Co     0.55471  0.19635  0.03629    Co
H       0.5578   0.7817   0.7363     H
C      0.56122   0.5824   0.0798     C
O      0.56252  0.13825  0.07167     O
O       0.5657  0.26087  0.00366     O
C      0.56575  0.24808  0.94752     C
C      0.57278  0.52349  0.08046     C
C       0.5752  0.08253  0.12492     C
H        0.582   0.2844   0.8892     H
H      0.58263   0.9098   0.8556     H
C      0.58281  0.30052  0.93447     C
C      0.58439  0.18689  0.40239     C
C      0.59047  0.15984  0.33866     C
H      0.59277   0.0418   0.0927     H
H      0.59287   0.0922    0.166     H
C      0.59361  0.04766  0.75382     C
N      0.59586   0.4127  0.08257     N
C       0.5975  0.13266   0.1106     C
C      0.60114  0.68292   0.1004     C
C      0.60198  0.63429  0.66238     C
O      0.60433  0.07423  0.81151     O
H      0.60547   0.9893   0.6289     H
C      0.60897  0.69938   0.6989     C
H       0.6092   0.2561   0.1288     H
C      0.61136  0.62813  0.10263     C
Co     0.61496  0.33207  0.08864    Co
H      0.61557   0.2184    0.429     H
O      0.61892  0.13493  0.96138     O
O      0.62669  0.25434  0.09638     O
H      0.62743   0.7658   0.0656     H
H        0.628   0.3169   0.9509     H
H       0.6331   0.5207   0.5635     H
C      0.63789  0.50275  0.08116     C
H       0.6407   0.4197   0.4981     H
C      0.64761  0.44723  0.08259     C
C      0.64801  0.17704  0.31011     C
C      0.64879  0.99221  0.64694     C
O      0.64892  0.15289  0.25208     O
O      0.64997  0.16536   0.1376     O
H      0.65203   0.6221   0.1195     H
H       0.6522   0.7174   0.7146     H
C      0.65489  0.73178  0.12219     C
C      0.65552  0.02155  0.71221     C
C      0.65931  0.76991  0.09637     C
H       0.6628   0.3264    0.408     H
C      0.66293  0.59459  0.64878     C
C      0.66905  0.53635  0.59312     C
C      0.67518  0.11323  0.96731     C
H      0.67583   0.5262   0.0807     H
H       0.6795   0.0475   0.8739     H
C      0.68627  0.40648  0.48631     C
H       0.6867   0.0178   0.9184     H
O      0.69094  0.21496   0.3486     O
H      0.69223   0.9557   0.0811     H
H      0.69253   0.4338   0.0836     H
H      0.69633   0.7163   0.1886     H
H      0.69897   0.9477   0.5649     H
C      0.69982  0.05293  0.91259     C
C      0.69986  0.35103  0.43239     C
C      0.70036  0.74082  0.16886     C
C      0.70433  0.96778  0.60906     C
O      0.70476  0.31584  0.04269     O
O      0.71006  0.13724  0.01588     O
C      0.71029   0.8142  0.11536     C
Co     0.71144  0.21398  0.10466    Co
N      0.71148  0.61633  0.69306     N
H      0.71303   0.8403   0.0973     H
H      0.71597   0.3793   0.3342     H
C      0.71933  0.02538  0.73748     C
O      0.72029  0.29355   0.1953     O
Co     0.72137  0.16006  0.19635    Co
H      0.72447   0.0454   0.7817     H
C      0.72789   0.5026   0.5824     C
O      0.72918  0.06658  0.13825     O
O      0.73237  0.25721  0.26087     O
C      0.73242  0.30056  0.24808     C
C      0.73945  0.44303  0.52349     C
C      0.74186  0.95761  0.08253     C
H      0.74867   0.3952   0.2844     H
H       0.7493   0.0542   0.9098     H
C      0.74948  0.36605  0.30052     C
C      0.75105   0.7845  0.18689     C
C      0.75713  0.82118  0.15984     C
H      0.75943   0.9491   0.0418     H
H      0.75953   0.9262   0.0922     H
C      0.76027  0.29384  0.04766     C
N      0.76253  0.33013   0.4127     N
C      0.76416  0.02206  0.13266     C
C      0.76781  0.58252  0.68292     C
C      0.76865  0.97191  0.63429     C
O      0.77099  0.26272  0.07423     O
H      0.77213   0.3604   0.9893     H
C      0.77564  0.00048  0.69938     C
H      0.77587   0.1273   0.2561     H
C      0.77803   0.5255  0.62813     C
Co     0.78162  0.24343  0.33207    Co
H      0.78223   0.7894   0.2184     H
O      0.78559  0.17355  0.13493     O
O      0.79336  0.15796  0.25434     O
H       0.7941   0.7002   0.7658     H
H      0.79467    0.366   0.3169     H
H      0.79977   0.9572   0.5207     H
C      0.80456  0.42159  0.50275     C
H      0.80737   0.9216   0.4197     H
C      0.81428  0.36464  0.44723     C
C      0.81467  0.86693  0.17704     C
C      0.81545  0.34527  0.99221     C
O      0.81558  0.90081  0.15289     O
O      0.81663  0.02776  0.16536     O
H       0.8187   0.5026   0.6221     H
H      0.81887   0.0028   0.7174     H
C      0.82156  0.60959  0.73178     C
C      0.82218  0.30934  0.02155     C
C      0.82598  0.67354  0.76991     C
H      0.82947   0.9184   0.3264     H
C       0.8296  0.94581  0.59459     C
C      0.83572  0.94323  0.53635     C
C      0.84185  0.14592  0.11323     C
H       0.8425   0.4455   0.5262     H
H      0.84617   0.1736   0.0475     H
C      0.85294  0.92017  0.40648     C
H      0.85337   0.0994   0.0178     H
O       0.8576  0.86636  0.21496     O
H       0.8589   0.8746   0.9557     H
H       0.8592   0.3502   0.4338     H
H        0.863   0.5277   0.7163     H
H      0.86563   0.3828   0.9477     H
C      0.86649  0.14034  0.05293     C
C      0.86653  0.91864  0.35103     C
C      0.86703  0.57196  0.74082     C
C      0.87099  0.35872  0.96778     C
O      0.87143  0.27315  0.31584     O
O      0.87673  0.12136  0.13724     O
C      0.87696  0.69884   0.8142     C
Co      0.8781  0.10932  0.21398    Co
N      0.87815  0.92327  0.61633     N
H       0.8797    0.743   0.8403     H
H      0.88263   0.0451   0.3793     H
C      0.88599   0.2879  0.02538     C
O      0.88695  0.09825  0.29355     O
Co     0.88804  0.96371  0.16006    Co
H      0.89113   0.2637   0.0454     H
C      0.89456   0.9202   0.5026     C
O      0.89585  0.92833  0.06658     O
O      0.89903  0.99634  0.25721     O
C      0.89908  0.05248  0.30056     C
C      0.90612  0.91954  0.44303     C
C      0.90853  0.87508  0.95761     C
H      0.91533   0.1108   0.3952     H
H      0.91597   0.1444   0.0542     H
C      0.91614  0.06553  0.36605     C
C      0.91772  0.59761   0.7845     C
C       0.9238  0.66134  0.82118     C
H       0.9261   0.9073   0.9491     H
H       0.9262    0.834   0.9262     H
C      0.92694  0.24618  0.29384     C
N       0.9292  0.91743  0.33013     N
C      0.93083   0.8894  0.02206     C
C      0.93448   0.8996  0.58252     C
C      0.93531  0.33762  0.97191     C
O      0.93766  0.18849  0.26272     O
H       0.9388   0.3711   0.3604     H
C       0.9423   0.3011  0.00048     C
H      0.94253   0.8712   0.1273     H
C       0.9447  0.89737   0.5255     C
Co     0.94829  0.91136  0.24343    Co
H       0.9489    0.571   0.7894     H
O      0.95225  0.03862  0.17355     O
O      0.96002  0.90362  0.15796     O
H      0.96077   0.9344   0.7002     H
H      0.96133   0.0491    0.366     H
H      0.96643   0.4365   0.9572     H
C      0.97123  0.91884  0.42159     C
H      0.97403   0.5019   0.9216     H
C      0.98095  0.91741  0.36464     C
C      0.98134  0.68989  0.86693     C
C      0.98212  0.35306  0.34527     C
O      0.98225  0.74792  0.90081     O
O       0.9833   0.8624  0.02776     O
H      0.98537   0.8805   0.5026     H
H      0.98553   0.2854   0.0028     H
C      0.98823  0.87781  0.60959     C
C      0.98885  0.28779  0.30934     C
C      0.99265  0.90363  0.67354     C
H      0.99613    0.592   0.9184     H
C      0.99626  0.35122  0.94581     C
