data_I
_chemical_name_common  '/home/zhangsd/repos/MofS-CGCNN/ML/data/TSD/clean_cifs/XALTOV_clean'
_cell_length_a 15.36610
_cell_length_b 15.36610
_cell_length_c 15.36610
_cell_angle_alpha 60.00000
_cell_angle_beta  60.00000
_cell_angle_gamma 60.00000
_space_group_name_H-M_alt      'P 1'


loop_
_space_group_symop_operation_xyz
  'x, y, z' 

loop_
_atom_site_label
_atom_site_fract_x
_atom_site_fract_y
_atom_site_fract_z
_atom_site_type_symbol
C       0.0044   0.1008   0.4474     C
C       0.0044   0.4474   0.1008     C
C       0.0044   0.4474   0.4474     C
Co      0.0233   0.6589   0.6589    Co
N       0.0397   0.1849   0.3877     N
N       0.0397   0.3877   0.1849     N
N       0.0397   0.3877   0.3877     N
C       0.0998      0.5      0.5     C
C       0.0998      0.5   0.9002     C
C       0.0998   0.9002      0.5     C
C       0.1008   0.0044   0.4474     C
C       0.1008   0.4474   0.0044     C
C       0.1008   0.4474   0.4474     C
N      0.14464  0.14464  0.35536     N
N      0.14464  0.35536  0.14464     N
N      0.14464  0.35536  0.35536     N
H       0.1604      0.5      0.5     H
H       0.1604      0.5   0.8396     H
H       0.1604   0.8396      0.5     H
Cl      0.1838   0.6054   0.6054    Cl
N       0.1849   0.0397   0.3877     N
N       0.1849   0.3877   0.0397     N
N       0.1849   0.3877   0.3877     N
Co      0.3411   0.3411   0.3411    Co
Co      0.3411   0.3411   0.9767    Co
Co      0.3411   0.9767   0.3411    Co
N      0.35536  0.14464  0.14464     N
N      0.35536  0.14464  0.35536     N
N      0.35536  0.35536  0.14464     N
N       0.3877   0.0397   0.1849     N
N       0.3877   0.0397   0.3877     N
N       0.3877   0.1849   0.0397     N
N       0.3877   0.1849   0.3877     N
N       0.3877   0.3877   0.0397     N
N       0.3877   0.3877   0.1849     N
Cl      0.3946   0.3946   0.3946    Cl
Cl      0.3946   0.3946   0.8162    Cl
Cl      0.3946   0.8162   0.3946    Cl
C       0.4474   0.0044   0.1008     C
C       0.4474   0.0044   0.4474     C
C       0.4474   0.1008   0.0044     C
C       0.4474   0.1008   0.4474     C
C       0.4474   0.4474   0.0044     C
C       0.4474   0.4474   0.1008     C
C          0.5   0.0998      0.5     C
C          0.5   0.0998   0.9002     C
H          0.5   0.1604      0.5     H
H          0.5   0.1604   0.8396     H
C          0.5      0.5   0.0998     C
H          0.5      0.5   0.1604     H
H          0.5      0.5   0.8396     H
C          0.5      0.5   0.9002     C
H          0.5   0.8396   0.1604     H
H          0.5   0.8396      0.5     H
C          0.5   0.9002   0.0998     C
C          0.5   0.9002      0.5     C
C       0.5526   0.5526   0.8992     C
C       0.5526   0.5526   0.9956     C
C       0.5526   0.8992   0.5526     C
C       0.5526   0.8992   0.9956     C
C       0.5526   0.9956   0.5526     C
C       0.5526   0.9956   0.8992     C
Cl      0.6054   0.1838   0.6054    Cl
Cl      0.6054   0.6054   0.1838    Cl
Cl      0.6054   0.6054   0.6054    Cl
N       0.6123   0.6123   0.8151     N
N       0.6123   0.6123   0.9603     N
N       0.6123   0.8151   0.6123     N
N       0.6123   0.8151   0.9603     N
N       0.6123   0.9603   0.6123     N
N       0.6123   0.9603   0.8151     N
N      0.64464  0.64464  0.85536     N
N      0.64464  0.85536  0.64464     N
N      0.64464  0.85536  0.85536     N
Co      0.6589   0.0233   0.6589    Co
Co      0.6589   0.6589   0.0233    Co
Co      0.6589   0.6589   0.6589    Co
N       0.8151   0.6123   0.6123     N
N       0.8151   0.6123   0.9603     N
N       0.8151   0.9603   0.6123     N
Cl      0.8162   0.3946   0.3946    Cl
H       0.8396   0.1604      0.5     H
H       0.8396      0.5   0.1604     H
H       0.8396      0.5      0.5     H
N      0.85536  0.64464  0.64464     N
N      0.85536  0.64464  0.85536     N
N      0.85536  0.85536  0.64464     N
C       0.8992   0.5526   0.5526     C
C       0.8992   0.5526   0.9956     C
C       0.8992   0.9956   0.5526     C
C       0.9002   0.0998      0.5     C
C       0.9002      0.5   0.0998     C
C       0.9002      0.5      0.5     C
N       0.9603   0.6123   0.6123     N
N       0.9603   0.6123   0.8151     N
N       0.9603   0.8151   0.6123     N
Co      0.9767   0.3411   0.3411    Co
C       0.9956   0.5526   0.5526     C
C       0.9956   0.5526   0.8992     C
C       0.9956   0.8992   0.5526     C
