data_I
_chemical_name_common  '/home/zhangsd/repos/MofS-CGCNN/ML/data/TSD/clean_cifs/XAPCOH_clean'
_cell_length_a 27.26800
_cell_length_b 13.69920
_cell_length_c 45.88800
_cell_angle_alpha 90.00000
_cell_angle_beta  90.00000
_cell_angle_gamma 90.00000
_space_group_name_H-M_alt      'P 1'


loop_
_space_group_symop_operation_xyz
  'x, y, z' 

loop_
_atom_site_label
_atom_site_fract_x
_atom_site_fract_y
_atom_site_fract_z
_atom_site_type_symbol
H       0.0122   0.0884   0.1505     H
H       0.0122   0.4116   0.6505     H
I      0.01664  0.72364  0.45771     I
I      0.01664  0.77636  0.95771     I
I      0.01807  0.04135  0.40269     I
I      0.01807  0.45865  0.90269     I
Zn     0.03116  0.64266  0.40852    Zn
Zn     0.03116  0.85734  0.90852    Zn
H       0.0314   0.0557   0.5416     H
H       0.0314   0.4443   0.0416     H
N       0.0357   0.1039  0.10989     N
N       0.0357   0.3961  0.60989     N
C       0.0406   0.0878  0.13852     C
C       0.0406   0.4122  0.63852     C
I      0.04743  0.67698  0.56354     I
I      0.04743  0.82302  0.06354     I
Zn     0.04807  0.63921   0.0714    Zn
Zn     0.04807  0.86079   0.5714    Zn
C        0.052   0.0239  0.52785     C
C        0.052   0.4761  0.02785     C
H       0.0593   0.1415   0.5021     H
H       0.0593   0.3585   0.0021     H
N       0.0621   0.5083  0.41615     N
N       0.0621   0.9917  0.91615     N
N       0.0641   0.5701   0.0324     N
N       0.0641   0.9299   0.5324     N
H       0.0655   0.5184   0.4587     H
H       0.0655   0.9816   0.9587     H
H       0.0668   0.0268   0.8744     H
H       0.0668   0.4732   0.3744     H
C        0.068   0.0748  0.50434     C
C        0.068   0.4252  0.00434     C
C        0.071   0.0237  0.94262     C
C        0.071   0.4763  0.44262     C
C        0.072   0.0508   0.8936     C
C        0.072   0.4492   0.3936     C
H       0.0726   0.1104   0.0727     H
H       0.0726   0.3896   0.5727     H
C       0.0759   0.1013  0.09314     C
C       0.0759   0.3987  0.59314     C
I      0.07766  0.72526  0.36767     I
I      0.07766  0.77474  0.86767     I
H       0.0783   0.5717    0.131     H
H       0.0783   0.9283    0.631     H
C       0.0853   0.0704  0.15117     C
C       0.0853   0.4296  0.65117     C
H       0.0873   0.0578   0.1715     H
H       0.0873   0.4422   0.6715     H
C       0.0886   0.1181   0.9477     C
C       0.0886   0.3819   0.4477     C
C       0.0895   0.1443  0.89684     C
C       0.0895   0.3557  0.39684     C
C       0.0916   0.6143  0.01207     C
C       0.0916   0.8857  0.51207     C
H       0.0939   0.1402   0.9671     H
H       0.0939   0.3598   0.4671     H
H       0.0955   0.1843   0.8803     H
H       0.0955   0.3157   0.3803     H
C       0.0972   0.0298  0.48356     C
C       0.0972   0.4702  0.98356     C
C       0.0981   0.1787  0.92458     C
C       0.0981   0.3213  0.42458     C
H       0.0995   0.6813   0.0148     H
H       0.0995   0.8187   0.5148     H
N       0.1025   0.1783  0.45522     N
N       0.1025   0.3217  0.95522     N
C       0.1091   0.5683  0.98752     C
C       0.1091   0.9317  0.48752     C
C       0.1096   0.5808  0.12226     C
C       0.1096   0.9192  0.62226     C
N       0.1115   0.6084  0.09402     N
N       0.1115   0.8916  0.59402     N
C       0.1139   0.0824  0.45695     C
C       0.1139   0.2187  0.42961     C
C       0.1139   0.2813  0.92961     C
C       0.1139   0.4176  0.95695     C
C       0.1221   0.0856  0.10483     C
C       0.1221   0.4144  0.60483     C
C       0.1276   0.0712  0.13459     C
C       0.1276   0.4288  0.63459     C
H       0.1287   0.6022   0.9737     H
H       0.1287   0.8978   0.4737     H
N       0.1366   0.1734  0.40756     N
N       0.1366   0.3266  0.90756     N
N       0.1377   0.0305  0.43707     N
N       0.1377   0.4695  0.93707     N
H       0.1475   0.5471   0.1588     H
H       0.1475   0.9529   0.6588     H
C       0.1481   0.0807  0.41272     C
C       0.1481   0.4193  0.91272     C
H         0.15   0.0847   0.0924     H
H         0.15   0.4153   0.5924     H
C       0.1505   0.5653  0.13888     C
C       0.1505   0.9347  0.63888     C
H       0.1552   0.5282   0.7254     H
H       0.1552   0.9718   0.2254     H
H       0.1553   0.6092    0.904     H
H       0.1553   0.8908    0.404     H
C       0.1564   0.6189    0.082     C
C       0.1564   0.8811    0.582     C
H       0.1587   0.6379   0.0621     H
H       0.1587   0.8621   0.5621     H
I      0.16247  0.17277  0.82224     I
I      0.16247  0.32723  0.32224     I
H       0.1665   0.5888   0.7726     H
H       0.1665   0.9112   0.2726     H
C         0.17   0.5746  0.88836     C
C         0.17   0.9254  0.38836     C
C       0.1708   0.0265  0.38839     C
C       0.1708   0.4735  0.88839     C
C       0.1764   0.0594  0.14792     C
C       0.1764   0.4406  0.64792     C
N       0.1778   0.0345  0.17606     N
N       0.1778   0.4655  0.67606     N
C       0.1872    0.533  0.73347     C
C       0.1872    0.967  0.23347     C
H       0.1898   0.6936   0.8656     H
H       0.1898   0.8064   0.3656     H
C       0.1908   0.6242   0.8655     C
C       0.1908   0.8758   0.3655     C
H       0.1913    0.045   0.7679     H
H       0.1913    0.455   0.2679     H
C       0.1925   0.0738  0.36545     C
C       0.1925   0.4262  0.86545     C
H       0.1934   0.1431   0.3648     H
H       0.1934   0.3569   0.8648     H
C       0.1944    0.569   0.7617     C
C       0.1944    0.931   0.2617     C
I      0.19445  0.68838  0.30358     I
I      0.19445  0.81162  0.80358     I
C       0.1965   0.5764  0.12635     C
C       0.1965   0.9236  0.62635     C
H       0.1973   0.5135   0.2208     H
H       0.1973   0.9865   0.7208     H
C       0.1987   0.6032  0.09744     C
C       0.1987   0.8968  0.59744     C
N       0.2125   0.5791  0.84303     N
N       0.2125   0.9209  0.34303     N
C       0.2131   0.0194  0.34317     C
C       0.2131   0.4806  0.84317     C
N       0.2154   0.0723  0.13065     N
N       0.2154   0.4277  0.63065     N
C       0.2226   0.0257  0.18658     C
C       0.2226   0.0436  0.75879     C
C       0.2226   0.4564  0.25879     C
C       0.2226   0.4743  0.68658     C
C       0.2257   0.0081  0.73093     C
C       0.2257   0.4919  0.23093     C
C       0.2279   0.5047   0.7178     C
C       0.2279   0.9953   0.2178     C
H       0.2282   0.0526   0.3274     H
H       0.2282   0.4474   0.8274     H
H       0.2296   0.6108   0.0882     H
H       0.2296   0.8892   0.5882     H
N       0.2354   0.5388  0.17184     N
N       0.2354   0.9612  0.67184     N
N       0.2383   0.5766   0.7739     N
N       0.2383   0.9234   0.2739     N
C       0.2416   0.5613  0.14388     C
C       0.2416   0.9387  0.64388     C
Zn     0.24641  0.65819  0.81108    Zn
Zn     0.24641  0.84181  0.31108    Zn
Zn     0.25359  0.15819  0.81108    Zn
Zn     0.25359  0.34181  0.31108    Zn
C       0.2584   0.0613  0.14388     C
C       0.2584   0.4387  0.64388     C
N       0.2617   0.0766   0.7739     N
N       0.2617   0.4234   0.2739     N
N       0.2646   0.0388  0.17184     N
N       0.2646   0.4612  0.67184     N
H       0.2704   0.1108   0.0882     H
H       0.2704   0.3892   0.5882     H
H       0.2718   0.5526   0.3274     H
H       0.2718   0.9474   0.8274     H
C       0.2721   0.0047   0.7178     C
C       0.2721   0.4953   0.2178     C
C       0.2743   0.5081  0.73093     C
C       0.2743   0.9919  0.23093     C
C       0.2774   0.5257  0.18658     C
C       0.2774   0.5436  0.75879     C
C       0.2774   0.9564  0.25879     C
C       0.2774   0.9743  0.68658     C
N       0.2846   0.5723  0.13065     N
N       0.2846   0.9277  0.63065     N
C       0.2869   0.5194  0.34317     C
C       0.2869   0.9806  0.84317     C
N       0.2875   0.0791  0.84303     N
N       0.2875   0.4209  0.34303     N
C       0.3013   0.1032  0.09744     C
C       0.3013   0.3968  0.59744     C
H       0.3027   0.0135   0.2208     H
H       0.3027   0.4865   0.7208     H
C       0.3035   0.0764  0.12635     C
C       0.3035   0.4236  0.62635     C
I      0.30555  0.18838  0.30358     I
I      0.30555  0.31162  0.80358     I
C       0.3056    0.069   0.7617     C
C       0.3056    0.431   0.2617     C
H       0.3066   0.6431   0.3648     H
H       0.3066   0.8569   0.8648     H
C       0.3075   0.5738  0.36545     C
C       0.3075   0.9262  0.86545     C
H       0.3087    0.545   0.7679     H
H       0.3087    0.955   0.2679     H
C       0.3092   0.1242   0.8655     C
C       0.3092   0.3758   0.3655     C
H       0.3102   0.1936   0.8656     H
H       0.3102   0.3064   0.3656     H
C       0.3128    0.033  0.73347     C
C       0.3128    0.467  0.23347     C
N       0.3222   0.5345  0.17606     N
N       0.3222   0.9655  0.67606     N
C       0.3236   0.5594  0.14792     C
C       0.3236   0.9406  0.64792     C
C       0.3292   0.5265  0.38839     C
C       0.3292   0.9735  0.88839     C
C         0.33   0.0746  0.88836     C
C         0.33   0.4254  0.38836     C
H       0.3335   0.0888   0.7726     H
H       0.3335   0.4112   0.2726     H
I      0.33753  0.67277  0.82224     I
I      0.33753  0.82723  0.32224     I
H       0.3413   0.1379   0.0621     H
H       0.3413   0.3621   0.5621     H
C       0.3436   0.1189    0.082     C
C       0.3436   0.3811    0.582     C
H       0.3447   0.1092    0.904     H
H       0.3447   0.3908    0.404     H
H       0.3448   0.0282   0.7254     H
H       0.3448   0.4718   0.2254     H
C       0.3495   0.0653  0.13888     C
C       0.3495   0.4347  0.63888     C
H         0.35   0.5847   0.0924     H
H         0.35   0.9153   0.5924     H
C       0.3519   0.5807  0.41272     C
C       0.3519   0.9193  0.91272     C
H       0.3525   0.0471   0.1588     H
H       0.3525   0.4529   0.6588     H
N       0.3623   0.5305  0.43707     N
N       0.3623   0.9695  0.93707     N
N       0.3634   0.6734  0.40756     N
N       0.3634   0.8266  0.90756     N
H       0.3713   0.1022   0.9737     H
H       0.3713   0.3978   0.4737     H
C       0.3724   0.5712  0.13459     C
C       0.3724   0.9288  0.63459     C
C       0.3779   0.5856  0.10483     C
C       0.3779   0.9144  0.60483     C
C       0.3861   0.5824  0.45695     C
C       0.3861   0.7187  0.42961     C
C       0.3861   0.7813  0.92961     C
C       0.3861   0.9176  0.95695     C
N       0.3885   0.1084  0.09402     N
N       0.3885   0.3916  0.59402     N
C       0.3904   0.0808  0.12226     C
C       0.3904   0.4192  0.62226     C
C       0.3909   0.0683  0.98752     C
C       0.3909   0.4317  0.48752     C
N       0.3975   0.6783  0.45522     N
N       0.3975   0.8217  0.95522     N
H       0.4005   0.1813   0.0148     H
H       0.4005   0.3187   0.5148     H
C       0.4019   0.6787  0.92458     C
C       0.4019   0.8213  0.42458     C
C       0.4028   0.5298  0.48356     C
C       0.4028   0.9702  0.98356     C
H       0.4045   0.6843   0.8803     H
H       0.4045   0.8157   0.3803     H
H       0.4061   0.6402   0.9671     H
H       0.4061   0.8598   0.4671     H
C       0.4084   0.1143  0.01207     C
C       0.4084   0.3857  0.51207     C
C       0.4105   0.6443  0.89684     C
C       0.4105   0.8557  0.39684     C
C       0.4114   0.6181   0.9477     C
C       0.4114   0.8819   0.4477     C
H       0.4127   0.5578   0.1715     H
H       0.4127   0.9422   0.6715     H
C       0.4147   0.5704  0.15117     C
C       0.4147   0.9296  0.65117     C
H       0.4217   0.0717    0.131     H
H       0.4217   0.4283    0.631     H
I      0.42234  0.22526  0.36767     I
I      0.42234  0.27474  0.86767     I
C       0.4241   0.6013  0.09314     C
C       0.4241   0.8987  0.59314     C
H       0.4274   0.6104   0.0727     H
H       0.4274   0.8896   0.5727     H
C        0.428   0.5508   0.8936     C
C        0.428   0.9492   0.3936     C
C        0.429   0.5237  0.94262     C
C        0.429   0.9763  0.44262     C
C        0.432   0.5748  0.50434     C
C        0.432   0.9252  0.00434     C
H       0.4332   0.5268   0.8744     H
H       0.4332   0.9732   0.3744     H
H       0.4345   0.0184   0.4587     H
H       0.4345   0.4816   0.9587     H
N       0.4359   0.0701   0.0324     N
N       0.4359   0.4299   0.5324     N
N       0.4379   0.0083  0.41615     N
N       0.4379   0.4917  0.91615     N
H       0.4407   0.6415   0.5021     H
H       0.4407   0.8585   0.0021     H
C        0.448   0.5239  0.52785     C
C        0.448   0.9761  0.02785     C
Zn     0.45193  0.13921   0.0714    Zn
Zn     0.45193  0.36079   0.5714    Zn
I      0.45257  0.17698  0.56354     I
I      0.45257  0.32302  0.06354     I
C       0.4594   0.5878  0.13852     C
C       0.4594   0.9122  0.63852     C
N       0.4643   0.6039  0.10989     N
N       0.4643   0.8961  0.60989     N
H       0.4686   0.5557   0.5416     H
H       0.4686   0.9443   0.0416     H
Zn     0.46884  0.14266  0.40852    Zn
Zn     0.46884  0.35734  0.90852    Zn
I      0.48193  0.54135  0.40269     I
I      0.48193  0.95865  0.90269     I
I      0.48336  0.22364  0.45771     I
I      0.48336  0.27636  0.95771     I
H       0.4878   0.5884   0.1505     H
H       0.4878   0.9116   0.6505     H
H       0.5122   0.0884   0.3495     H
H       0.5122   0.4116   0.8495     H
I      0.51664  0.72364  0.04229     I
I      0.51664  0.77636  0.54229     I
I      0.51807  0.04135  0.09731     I
I      0.51807  0.45865  0.59731     I
Zn     0.53116  0.64266  0.09148    Zn
Zn     0.53116  0.85734  0.59148    Zn
H       0.5314   0.0557   0.9584     H
H       0.5314   0.4443   0.4584     H
N       0.5357   0.1039  0.39011     N
N       0.5357   0.3961  0.89011     N
C       0.5406   0.0878  0.36148     C
C       0.5406   0.4122  0.86148     C
I      0.54743  0.67698  0.93646     I
I      0.54743  0.82302  0.43646     I
Zn     0.54807  0.63921   0.4286    Zn
Zn     0.54807  0.86079   0.9286    Zn
C        0.552   0.0239  0.97215     C
C        0.552   0.4761  0.47215     C
H       0.5593   0.1415   0.9979     H
H       0.5593   0.3585   0.4979     H
N       0.5621   0.5083  0.08385     N
N       0.5621   0.9917  0.58385     N
N       0.5641   0.5701   0.4676     N
N       0.5641   0.9299   0.9676     N
H       0.5655   0.5184   0.0413     H
H       0.5655   0.9816   0.5413     H
H       0.5668   0.0268   0.6256     H
H       0.5668   0.4732   0.1256     H
C        0.568   0.0748  0.99566     C
C        0.568   0.4252  0.49566     C
C        0.571   0.0237  0.55738     C
C        0.571   0.4763  0.05738     C
C        0.572   0.0508   0.6064     C
C        0.572   0.4492   0.1064     C
H       0.5726   0.1104   0.4273     H
H       0.5726   0.3896   0.9273     H
C       0.5759   0.1013  0.40686     C
C       0.5759   0.3987  0.90686     C
I      0.57766  0.72526  0.13233     I
I      0.57766  0.77474  0.63233     I
H       0.5783   0.5717    0.369     H
H       0.5783   0.9283    0.869     H
C       0.5853   0.0704  0.34883     C
C       0.5853   0.4296  0.84883     C
H       0.5873   0.0578   0.3285     H
H       0.5873   0.4422   0.8285     H
C       0.5886   0.1181   0.5523     C
C       0.5886   0.3819   0.0523     C
C       0.5895   0.1443  0.60316     C
C       0.5895   0.3557  0.10316     C
C       0.5916   0.6143  0.48793     C
C       0.5916   0.8857  0.98793     C
H       0.5939   0.1402   0.5329     H
H       0.5939   0.3598   0.0329     H
H       0.5955   0.1843   0.6197     H
H       0.5955   0.3157   0.1197     H
C       0.5972   0.0298  0.01644     C
C       0.5972   0.4702  0.51644     C
C       0.5981   0.1787  0.57542     C
C       0.5981   0.3213  0.07542     C
H       0.5995   0.6813   0.4852     H
H       0.5995   0.8187   0.9852     H
N       0.6025   0.1783  0.04478     N
N       0.6025   0.3217  0.54478     N
C       0.6091   0.5683  0.51248     C
C       0.6091   0.9317  0.01248     C
C       0.6096   0.5808  0.37774     C
C       0.6096   0.9192  0.87774     C
N       0.6115   0.6084  0.40598     N
N       0.6115   0.8916  0.90598     N
C       0.6139   0.0824  0.04305     C
C       0.6139   0.2187  0.07039     C
C       0.6139   0.2813  0.57039     C
C       0.6139   0.4176  0.54305     C
C       0.6221   0.0856  0.39517     C
C       0.6221   0.4144  0.89517     C
C       0.6276   0.0712  0.36541     C
C       0.6276   0.4288  0.86541     C
H       0.6287   0.6022   0.5263     H
H       0.6287   0.8978   0.0263     H
N       0.6366   0.1734  0.09244     N
N       0.6366   0.3266  0.59244     N
N       0.6377   0.0305  0.06293     N
N       0.6377   0.4695  0.56293     N
H       0.6475   0.5471   0.3412     H
H       0.6475   0.9529   0.8412     H
C       0.6481   0.0807  0.08728     C
C       0.6481   0.4193  0.58728     C
H         0.65   0.0847   0.4076     H
H         0.65   0.4153   0.9076     H
C       0.6505   0.5653  0.36112     C
C       0.6505   0.9347  0.86112     C
H       0.6552   0.5282   0.7746     H
H       0.6552   0.9718   0.2746     H
H       0.6553   0.6092    0.596     H
H       0.6553   0.8908    0.096     H
C       0.6564   0.6189    0.418     C
C       0.6564   0.8811    0.918     C
H       0.6587   0.6379   0.4379     H
H       0.6587   0.8621   0.9379     H
I      0.66247  0.17277  0.67776     I
I      0.66247  0.32723  0.17776     I
H       0.6665   0.5888   0.7274     H
H       0.6665   0.9112   0.2274     H
C         0.67   0.5746  0.61164     C
C         0.67   0.9254  0.11164     C
C       0.6708   0.0265  0.11161     C
C       0.6708   0.4735  0.61161     C
C       0.6764   0.0594  0.35208     C
C       0.6764   0.4406  0.85208     C
N       0.6778   0.0345  0.32394     N
N       0.6778   0.4655  0.82394     N
C       0.6872    0.533  0.76653     C
C       0.6872    0.967  0.26653     C
H       0.6898   0.6936   0.6344     H
H       0.6898   0.8064   0.1344     H
C       0.6908   0.6242   0.6345     C
C       0.6908   0.8758   0.1345     C
H       0.6913    0.045   0.7321     H
H       0.6913    0.455   0.2321     H
C       0.6925   0.0738  0.13455     C
C       0.6925   0.4262  0.63455     C
H       0.6934   0.1431   0.1352     H
H       0.6934   0.3569   0.6352     H
C       0.6944    0.569   0.7383     C
C       0.6944    0.931   0.2383     C
I      0.69445  0.68838  0.19642     I
I      0.69445  0.81162  0.69642     I
C       0.6965   0.5764  0.37365     C
C       0.6965   0.9236  0.87365     C
H       0.6973   0.5135   0.2792     H
H       0.6973   0.9865   0.7792     H
C       0.6987   0.6032  0.40256     C
C       0.6987   0.8968  0.90256     C
N       0.7125   0.5791  0.65697     N
N       0.7125   0.9209  0.15697     N
C       0.7131   0.0194  0.15683     C
C       0.7131   0.4806  0.65683     C
N       0.7154   0.0723  0.36935     N
N       0.7154   0.4277  0.86935     N
C       0.7226   0.0257  0.31342     C
C       0.7226   0.0436  0.74121     C
C       0.7226   0.4564  0.24121     C
C       0.7226   0.4743  0.81342     C
C       0.7257   0.0081  0.76907     C
C       0.7257   0.4919  0.26907     C
C       0.7279   0.5047   0.7822     C
C       0.7279   0.9953   0.2822     C
H       0.7282   0.0526   0.1726     H
H       0.7282   0.4474   0.6726     H
H       0.7296   0.6108   0.4118     H
H       0.7296   0.8892   0.9118     H
N       0.7354   0.5388  0.32816     N
N       0.7354   0.9612  0.82816     N
N       0.7383   0.5766   0.7261     N
N       0.7383   0.9234   0.2261     N
C       0.7416   0.5613  0.35612     C
C       0.7416   0.9387  0.85612     C
Zn     0.74641  0.65819  0.68892    Zn
Zn     0.74641  0.84181  0.18892    Zn
Zn     0.75359  0.15819  0.68892    Zn
Zn     0.75359  0.34181  0.18892    Zn
C       0.7584   0.0613  0.35612     C
C       0.7584   0.4387  0.85612     C
N       0.7617   0.0766   0.7261     N
N       0.7617   0.4234   0.2261     N
N       0.7646   0.0388  0.32816     N
N       0.7646   0.4612  0.82816     N
H       0.7704   0.1108   0.4118     H
H       0.7704   0.3892   0.9118     H
H       0.7718   0.5526   0.1726     H
H       0.7718   0.9474   0.6726     H
C       0.7721   0.0047   0.7822     C
C       0.7721   0.4953   0.2822     C
C       0.7743   0.5081  0.76907     C
C       0.7743   0.9919  0.26907     C
C       0.7774   0.5257  0.31342     C
C       0.7774   0.5436  0.74121     C
C       0.7774   0.9564  0.24121     C
C       0.7774   0.9743  0.81342     C
N       0.7846   0.5723  0.36935     N
N       0.7846   0.9277  0.86935     N
C       0.7869   0.5194  0.15683     C
C       0.7869   0.9806  0.65683     C
N       0.7875   0.0791  0.65697     N
N       0.7875   0.4209  0.15697     N
C       0.8013   0.1032  0.40256     C
C       0.8013   0.3968  0.90256     C
H       0.8027   0.0135   0.2792     H
H       0.8027   0.4865   0.7792     H
C       0.8035   0.0764  0.37365     C
C       0.8035   0.4236  0.87365     C
I      0.80555  0.18838  0.19642     I
I      0.80555  0.31162  0.69642     I
C       0.8056    0.069   0.7383     C
C       0.8056    0.431   0.2383     C
H       0.8066   0.6431   0.1352     H
H       0.8066   0.8569   0.6352     H
C       0.8075   0.5738  0.13455     C
C       0.8075   0.9262  0.63455     C
H       0.8087    0.545   0.7321     H
H       0.8087    0.955   0.2321     H
C       0.8092   0.1242   0.6345     C
C       0.8092   0.3758   0.1345     C
H       0.8102   0.1936   0.6344     H
H       0.8102   0.3064   0.1344     H
C       0.8128    0.033  0.76653     C
C       0.8128    0.467  0.26653     C
N       0.8222   0.5345  0.32394     N
N       0.8222   0.9655  0.82394     N
C       0.8236   0.5594  0.35208     C
C       0.8236   0.9406  0.85208     C
C       0.8292   0.5265  0.11161     C
C       0.8292   0.9735  0.61161     C
C         0.83   0.0746  0.61164     C
C         0.83   0.4254  0.11164     C
H       0.8335   0.0888   0.7274     H
H       0.8335   0.4112   0.2274     H
I      0.83753  0.67277  0.67776     I
I      0.83753  0.82723  0.17776     I
H       0.8413   0.1379   0.4379     H
H       0.8413   0.3621   0.9379     H
C       0.8436   0.1189    0.418     C
C       0.8436   0.3811    0.918     C
H       0.8447   0.1092    0.596     H
H       0.8447   0.3908    0.096     H
H       0.8448   0.0282   0.7746     H
H       0.8448   0.4718   0.2746     H
C       0.8495   0.0653  0.36112     C
C       0.8495   0.4347  0.86112     C
H         0.85   0.5847   0.4076     H
H         0.85   0.9153   0.9076     H
C       0.8519   0.5807  0.08728     C
C       0.8519   0.9193  0.58728     C
H       0.8525   0.0471   0.3412     H
H       0.8525   0.4529   0.8412     H
N       0.8623   0.5305  0.06293     N
N       0.8623   0.9695  0.56293     N
N       0.8634   0.6734  0.09244     N
N       0.8634   0.8266  0.59244     N
H       0.8713   0.1022   0.5263     H
H       0.8713   0.3978   0.0263     H
C       0.8724   0.5712  0.36541     C
C       0.8724   0.9288  0.86541     C
C       0.8779   0.5856  0.39517     C
C       0.8779   0.9144  0.89517     C
C       0.8861   0.5824  0.04305     C
C       0.8861   0.7187  0.07039     C
C       0.8861   0.7813  0.57039     C
C       0.8861   0.9176  0.54305     C
N       0.8885   0.1084  0.40598     N
N       0.8885   0.3916  0.90598     N
C       0.8904   0.0808  0.37774     C
C       0.8904   0.4192  0.87774     C
C       0.8909   0.0683  0.51248     C
C       0.8909   0.4317  0.01248     C
N       0.8975   0.6783  0.04478     N
N       0.8975   0.8217  0.54478     N
H       0.9005   0.1813   0.4852     H
H       0.9005   0.3187   0.9852     H
C       0.9019   0.6787  0.57542     C
C       0.9019   0.8213  0.07542     C
C       0.9028   0.5298  0.01644     C
C       0.9028   0.9702  0.51644     C
H       0.9045   0.6843   0.6197     H
H       0.9045   0.8157   0.1197     H
H       0.9061   0.6402   0.5329     H
H       0.9061   0.8598   0.0329     H
C       0.9084   0.1143  0.48793     C
C       0.9084   0.3857  0.98793     C
C       0.9105   0.6443  0.60316     C
C       0.9105   0.8557  0.10316     C
C       0.9114   0.6181   0.5523     C
C       0.9114   0.8819   0.0523     C
H       0.9127   0.5578   0.3285     H
H       0.9127   0.9422   0.8285     H
C       0.9147   0.5704  0.34883     C
C       0.9147   0.9296  0.84883     C
H       0.9217   0.0717    0.369     H
H       0.9217   0.4283    0.869     H
I      0.92234  0.22526  0.13233     I
I      0.92234  0.27474  0.63233     I
C       0.9241   0.6013  0.40686     C
C       0.9241   0.8987  0.90686     C
H       0.9274   0.6104   0.4273     H
H       0.9274   0.8896   0.9273     H
C        0.928   0.5508   0.6064     C
C        0.928   0.9492   0.1064     C
C        0.929   0.5237  0.55738     C
C        0.929   0.9763  0.05738     C
C        0.932   0.5748  0.99566     C
C        0.932   0.9252  0.49566     C
H       0.9332   0.5268   0.6256     H
H       0.9332   0.9732   0.1256     H
H       0.9345   0.0184   0.0413     H
H       0.9345   0.4816   0.5413     H
N       0.9359   0.0701   0.4676     N
N       0.9359   0.4299   0.9676     N
N       0.9379   0.0083  0.08385     N
N       0.9379   0.4917  0.58385     N
H       0.9407   0.6415   0.9979     H
H       0.9407   0.8585   0.4979     H
C        0.948   0.5239  0.97215     C
C        0.948   0.9761  0.47215     C
Zn     0.95193  0.13921   0.4286    Zn
Zn     0.95193  0.36079   0.9286    Zn
I      0.95257  0.17698  0.93646     I
I      0.95257  0.32302  0.43646     I
C       0.9594   0.5878  0.36148     C
C       0.9594   0.9122  0.86148     C
N       0.9643   0.6039  0.39011     N
N       0.9643   0.8961  0.89011     N
H       0.9686   0.5557   0.9584     H
H       0.9686   0.9443   0.4584     H
Zn     0.96884  0.14266  0.09148    Zn
Zn     0.96884  0.35734  0.59148    Zn
I      0.98193  0.54135  0.09731     I
I      0.98193  0.95865  0.59731     I
I      0.98336  0.22364  0.04229     I
I      0.98336  0.27636  0.54229     I
H       0.9878   0.5884   0.3495     H
H       0.9878   0.9116   0.8495     H
