data_I
_chemical_name_common  '/home/zhangsd/repos/MofS-CGCNN/ML/data/TSD/clean_cifs/XAPCUN_clean'
_cell_length_a 27.64790
_cell_length_b 13.75000
_cell_length_c 45.71400
_cell_angle_alpha 90.00000
_cell_angle_beta  90.00000
_cell_angle_gamma 90.00000
_space_group_name_H-M_alt      'P 1'


loop_
_space_group_symop_operation_xyz
  'x, y, z' 

loop_
_atom_site_label
_atom_site_fract_x
_atom_site_fract_y
_atom_site_fract_z
_atom_site_type_symbol
I      0.00895  0.71687  0.46084     I
I      0.00895  0.78313  0.96084     I
H       0.0118   0.0846   0.1483     H
H       0.0118   0.4154   0.6483     H
I      0.01607  0.05256  0.39815     I
I      0.01607  0.44744  0.89815     I
Zn     0.02768  0.63847  0.41131    Zn
Zn     0.02768  0.86153  0.91131    Zn
H       0.0333   0.0489   0.5467     H
H       0.0333   0.4511   0.0467     H
N      0.03725   0.0986  0.10797     N
N      0.03725   0.4014  0.60797     N
C       0.0407   0.0841  0.13698     C
C       0.0407   0.4159  0.63698     C
H       0.0443   0.5005   0.4622     H
H       0.0443   0.9995   0.9622     H
Zn     0.05075   0.6443  0.07533    Zn
Zn     0.05075   0.8557  0.57533    Zn
C        0.051   0.0164  0.53183     C
C        0.051   0.4836  0.03183     C
H       0.0561    0.134   0.5053     H
H       0.0561    0.366   0.0053     H
I      0.05634  0.67242  0.56806     I
I      0.05634  0.82758  0.06806     I
C       0.0573   0.0357  0.94635     C
C       0.0573   0.4643  0.44635     C
N      0.05902   0.5055  0.41973     N
N      0.05902   0.9945  0.91973     N
N        0.062   0.5778  0.03528     N
N        0.062   0.9222  0.53528     N
C       0.0647   0.0674  0.50718     C
C       0.0647   0.4326  0.00718     C
H       0.0719   0.1573   0.9705     H
H       0.0719   0.3427   0.4705     H
C       0.0739   0.1296  0.95147     C
C       0.0739   0.3704  0.45147     C
I      0.07449  0.72536  0.37142     I
I      0.07449  0.77464  0.87142     I
H        0.076    0.105   0.0717     H
H        0.076    0.395   0.5717     H
C       0.0774   0.0463   0.8975     C
C       0.0774   0.4537   0.3975     C
C       0.0781   0.0967  0.09228     C
C       0.0781   0.4033  0.59228     C
H       0.0785    0.018   0.8786     H
H       0.0785    0.482   0.3786     H
H       0.0824   0.5652   0.1331     H
H       0.0824   0.9348   0.6331     H
C      0.08429   0.0686  0.15125     C
C      0.08429   0.4314  0.65125     C
H       0.0852   0.0575   0.1718     H
H       0.0852   0.4425   0.6718     H
C       0.0858   0.6234  0.01346     C
C       0.0858   0.8766  0.51346     C
C      0.09061   0.0225  0.48539     C
C      0.09061   0.4775  0.98539     C
H       0.0928   0.6907   0.0155     H
H       0.0928   0.8093   0.5155     H
C      0.09309   0.1819  0.92854     C
C      0.09309   0.3181  0.42854     C
C       0.0949   0.1399  0.90132     C
C       0.0949   0.3601  0.40132     C
N      0.09495   0.1707  0.45738     N
N      0.09495   0.3293  0.95738     N
C       0.1005   0.5766  0.98824     C
C       0.1005   0.9234  0.48824     C
C      0.10658    0.077  0.45899     C
C      0.10658    0.423  0.95899     C
H       0.1081   0.1747   0.8852     H
H       0.1081   0.3253   0.3852     H
C      0.10837   0.2152   0.4326     C
C      0.10837   0.2848   0.9326     C
C      0.11311   0.5761  0.12438     C
C      0.11311   0.9239  0.62438     C
N      0.11465   0.6054  0.09627     N
N      0.11465   0.8946  0.59627     N
H       0.1169    0.611   0.9732     H
H       0.1169    0.889   0.4732     H
C      0.12317   0.0832  0.10462     C
C      0.12317   0.4168  0.60462     C
C      0.12678   0.0697  0.13476     C
C      0.12678   0.4303  0.63476     C
N      0.13053   0.0271  0.43844     N
N      0.13053   0.4729  0.93844     N
N      0.13324   0.1729  0.41083     N
N      0.13324   0.3271  0.91083     N
C      0.14236    0.079  0.41476     C
C      0.14236    0.421  0.91476     C
H       0.1514   0.0831   0.0927     H
H       0.1514   0.4169   0.5927     H
H       0.1515   0.5427   0.1609     H
H       0.1515   0.9573   0.6609     H
H        0.153   0.6107    0.906     H
H        0.153   0.8893    0.406     H
H       0.1534   0.5127   0.7297     H
H       0.1534   0.9873   0.2297     H
C      0.15405   0.5612  0.14098     C
C      0.15405   0.9388  0.64098     C
C      0.15841   0.6174  0.08387     C
C      0.15841   0.8826  0.58387     C
H         0.16   0.6374    0.064     H
H         0.16   0.8626    0.564     H
I      0.16422  0.16684  0.82434     I
I      0.16422  0.33316  0.32434     I
H       0.1654   0.5724   0.7768     H
H       0.1654   0.9276   0.2768     H
C      0.16649   0.0266  0.39059     C
C      0.16649   0.4734  0.89059     C
C       0.1674   0.5748  0.89052     C
C       0.1674   0.9252  0.39052     C
C      0.17456   0.0581  0.14874     C
C      0.17456   0.4419  0.64874     C
N      0.17586   0.0357   0.1774     N
N      0.17586   0.4643   0.6774     N
C      0.18526   0.5221    0.737     C
C      0.18526   0.9779    0.237     C
H       0.1855   0.1442    0.366     H
H       0.1855   0.3558    0.866     H
C       0.1868   0.0753  0.36703     C
C       0.1868   0.4247  0.86703     C
C       0.1897   0.6224  0.86743     C
C       0.1897   0.8776  0.36743     C
H       0.1903   0.6915   0.8674     H
H       0.1903   0.8085   0.3674     H
C      0.19282   0.5573  0.76514     C
C      0.19282   0.9427  0.26514     C
H       0.1935   0.0515   0.7685     H
H       0.1935   0.4485   0.2685     H
I      0.19528  0.69144  0.30583     I
I      0.19528  0.80856  0.80583     I
C      0.19948   0.5738  0.12799     C
C      0.19948   0.9262  0.62799     C
H       0.2009   0.5055   0.2209     H
H       0.2009   0.9945   0.7209     H
C      0.20094   0.6018  0.09871     C
C      0.20094   0.8982  0.59871     C
C       0.2091   0.0222  0.34505     C
C       0.2091   0.4778  0.84505     C
N      0.21045    0.575  0.84516     N
N      0.21045    0.925  0.34516     N
N      0.21353   0.0711   0.1319     N
N      0.21353   0.4289   0.6319     N
C      0.22036   0.0272  0.18852     C
C      0.22036   0.4728  0.68852     C
H       0.2239   0.0561   0.3293     H
H       0.2239   0.4439   0.8293     H
C      0.22482   0.0455  0.76017     C
C      0.22482   0.4545  0.26017     C
C      0.22542    0.501  0.71977     C
C      0.22542    0.999  0.21977     C
C       0.2289    0.011  0.73183     C
C       0.2289    0.489  0.23183     C
H       0.2311     0.61   0.0891     H
H       0.2311     0.89   0.5891     H
N      0.23691    0.571  0.77646     N
N      0.23691    0.929  0.27646     N
N      0.23836   0.5386  0.17367     N
N      0.23836   0.9614  0.67367     N
C      0.24375   0.5603  0.14528     C
C      0.24375   0.9397  0.64528     C
Zn     0.24547  0.65365  0.81345    Zn
Zn     0.24547  0.84635  0.31345    Zn
Zn     0.25453  0.15365  0.81345    Zn
Zn     0.25453  0.34635  0.31345    Zn
C      0.25625   0.0603  0.14528     C
C      0.25625   0.4397  0.64528     C
N      0.26164   0.0386  0.17367     N
N      0.26164   0.4614  0.67367     N
N      0.26309    0.071  0.77646     N
N      0.26309    0.429  0.27646     N
H       0.2689     0.11   0.0891     H
H       0.2689     0.39   0.5891     H
C       0.2711    0.511  0.73183     C
C       0.2711    0.989  0.23183     C
C      0.27458    0.001  0.71977     C
C      0.27458    0.499  0.21977     C
C      0.27518   0.5455  0.76017     C
C      0.27518   0.9545  0.26017     C
H       0.2761   0.5561   0.3293     H
H       0.2761   0.9439   0.8293     H
C      0.27964   0.5272  0.18852     C
C      0.27964   0.9728  0.68852     C
N      0.28647   0.5711   0.1319     N
N      0.28647   0.9289   0.6319     N
N      0.28955    0.075  0.84516     N
N      0.28955    0.425  0.34516     N
C       0.2909   0.5222  0.34505     C
C       0.2909   0.9778  0.84505     C
C      0.29906   0.1018  0.09871     C
C      0.29906   0.3982  0.59871     C
H       0.2991   0.0055   0.2209     H
H       0.2991   0.4945   0.7209     H
C      0.30052   0.0738  0.12799     C
C      0.30052   0.4262  0.62799     C
I      0.30472  0.19144  0.30583     I
I      0.30472  0.30856  0.80583     I
H       0.3065   0.5515   0.7685     H
H       0.3065   0.9485   0.2685     H
C      0.30718   0.0573  0.76514     C
C      0.30718   0.4427  0.26514     C
H       0.3097   0.1915   0.8674     H
H       0.3097   0.3085   0.3674     H
C       0.3103   0.1224  0.86743     C
C       0.3103   0.3776  0.36743     C
C       0.3132   0.5753  0.36703     C
C       0.3132   0.9247  0.86703     C
H       0.3145   0.6442    0.366     H
H       0.3145   0.8558    0.866     H
C      0.31474   0.0221    0.737     C
C      0.31474   0.4779    0.237     C
N      0.32414   0.5357   0.1774     N
N      0.32414   0.9643   0.6774     N
C      0.32544   0.5581  0.14874     C
C      0.32544   0.9419  0.64874     C
C       0.3326   0.0748  0.89052     C
C       0.3326   0.4252  0.39052     C
C      0.33351   0.5266  0.39059     C
C      0.33351   0.9734  0.89059     C
H       0.3346   0.0724   0.7768     H
H       0.3346   0.4276   0.2768     H
I      0.33578  0.66684  0.82434     I
I      0.33578  0.83316  0.32434     I
H         0.34   0.1374    0.064     H
H         0.34   0.3626    0.564     H
C      0.34159   0.1174  0.08387     C
C      0.34159   0.3826  0.58387     C
C      0.34595   0.0612  0.14098     C
C      0.34595   0.4388  0.64098     C
H       0.3466   0.0127   0.7297     H
H       0.3466   0.4873   0.2297     H
H        0.347   0.1107    0.906     H
H        0.347   0.3893    0.406     H
H       0.3485   0.0427   0.1609     H
H       0.3485   0.4573   0.6609     H
H       0.3486   0.5831   0.0927     H
H       0.3486   0.9169   0.5927     H
C      0.35764    0.579  0.41476     C
C      0.35764    0.921  0.91476     C
N      0.36676   0.6729  0.41083     N
N      0.36676   0.8271  0.91083     N
N      0.36947   0.5271  0.43844     N
N      0.36947   0.9729  0.93844     N
C      0.37322   0.5697  0.13476     C
C      0.37322   0.9303  0.63476     C
C      0.37683   0.5832  0.10462     C
C      0.37683   0.9168  0.60462     C
H       0.3831    0.111   0.9732     H
H       0.3831    0.389   0.4732     H
N      0.38535   0.1054  0.09627     N
N      0.38535   0.3946  0.59627     N
C      0.38689   0.0761  0.12438     C
C      0.38689   0.4239  0.62438     C
C      0.39163   0.7152   0.4326     C
C      0.39163   0.7848   0.9326     C
H       0.3919   0.6747   0.8852     H
H       0.3919   0.8253   0.3852     H
C      0.39342    0.577  0.45899     C
C      0.39342    0.923  0.95899     C
C       0.3995   0.0766  0.98824     C
C       0.3995   0.4234  0.48824     C
N      0.40505   0.6707  0.45738     N
N      0.40505   0.8293  0.95738     N
C       0.4051   0.6399  0.90132     C
C       0.4051   0.8601  0.40132     C
C      0.40691   0.6819  0.92854     C
C      0.40691   0.8181  0.42854     C
H       0.4072   0.1907   0.0155     H
H       0.4072   0.3093   0.5155     H
C      0.40939   0.5225  0.48539     C
C      0.40939   0.9775  0.98539     C
C       0.4142   0.1234  0.01346     C
C       0.4142   0.3766  0.51346     C
H       0.4148   0.5575   0.1718     H
H       0.4148   0.9425   0.6718     H
C      0.41571   0.5686  0.15125     C
C      0.41571   0.9314  0.65125     C
H       0.4176   0.0652   0.1331     H
H       0.4176   0.4348   0.6331     H
H       0.4215    0.518   0.8786     H
H       0.4215    0.982   0.3786     H
C       0.4219   0.5967  0.09228     C
C       0.4219   0.9033  0.59228     C
C       0.4226   0.5463   0.8975     C
C       0.4226   0.9537   0.3975     C
H        0.424    0.605   0.0717     H
H        0.424    0.895   0.5717     H
I      0.42551  0.22536  0.37142     I
I      0.42551  0.27464  0.87142     I
C       0.4261   0.6296  0.95147     C
C       0.4261   0.8704  0.45147     C
H       0.4281   0.6573   0.9705     H
H       0.4281   0.8427   0.4705     H
C       0.4353   0.5674  0.50718     C
C       0.4353   0.9326  0.00718     C
N        0.438   0.0778  0.03528     N
N        0.438   0.4222  0.53528     N
N      0.44098   0.0055  0.41973     N
N      0.44098   0.4945  0.91973     N
C       0.4427   0.5357  0.94635     C
C       0.4427   0.9643  0.44635     C
I      0.44366  0.17242  0.56806     I
I      0.44366  0.32758  0.06806     I
H       0.4439    0.634   0.5053     H
H       0.4439    0.866   0.0053     H
C        0.449   0.5164  0.53183     C
C        0.449   0.9836  0.03183     C
Zn     0.44925   0.1443  0.07533    Zn
Zn     0.44925   0.3557  0.57533    Zn
H       0.4557   0.0005   0.4622     H
H       0.4557   0.4995   0.9622     H
C       0.4593   0.5841  0.13698     C
C       0.4593   0.9159  0.63698     C
N      0.46275   0.5986  0.10797     N
N      0.46275   0.9014  0.60797     N
H       0.4667   0.5489   0.5467     H
H       0.4667   0.9511   0.0467     H
Zn     0.47232  0.13847  0.41131    Zn
Zn     0.47232  0.36153  0.91131    Zn
I      0.48393  0.55256  0.39815     I
I      0.48393  0.94744  0.89815     I
H       0.4882   0.5846   0.1483     H
H       0.4882   0.9154   0.6483     H
I      0.49105  0.21687  0.46084     I
I      0.49105  0.28313  0.96084     I
I      0.50895  0.71687  0.03916     I
I      0.50895  0.78313  0.53916     I
H       0.5118   0.0846   0.3517     H
H       0.5118   0.4154   0.8517     H
I      0.51607  0.05256  0.10185     I
I      0.51607  0.44744  0.60185     I
Zn     0.52768  0.63847  0.08869    Zn
Zn     0.52768  0.86153  0.58869    Zn
H       0.5333   0.0489   0.9533     H
H       0.5333   0.4511   0.4533     H
N      0.53725   0.0986  0.39203     N
N      0.53725   0.4014  0.89203     N
C       0.5407   0.0841  0.36302     C
C       0.5407   0.4159  0.86302     C
H       0.5443   0.5005   0.0378     H
H       0.5443   0.9995   0.5378     H
Zn     0.55075   0.6443  0.42467    Zn
Zn     0.55075   0.8557  0.92467    Zn
C        0.551   0.0164  0.96817     C
C        0.551   0.4836  0.46817     C
H       0.5561    0.134   0.9947     H
H       0.5561    0.366   0.4947     H
I      0.55634  0.67242  0.93194     I
I      0.55634  0.82758  0.43194     I
C       0.5573   0.0357  0.55365     C
C       0.5573   0.4643  0.05365     C
N      0.55902   0.5055  0.08027     N
N      0.55902   0.9945  0.58027     N
N        0.562   0.5778  0.46472     N
N        0.562   0.9222  0.96472     N
C       0.5647   0.0674  0.99282     C
C       0.5647   0.4326  0.49282     C
H       0.5719   0.1573   0.5295     H
H       0.5719   0.3427   0.0295     H
C       0.5739   0.1296  0.54853     C
C       0.5739   0.3704  0.04853     C
I      0.57449  0.72536  0.12858     I
I      0.57449  0.77464  0.62858     I
H        0.576    0.105   0.4283     H
H        0.576    0.395   0.9283     H
C       0.5774   0.0463   0.6025     C
C       0.5774   0.4537   0.1025     C
C       0.5781   0.0967  0.40772     C
C       0.5781   0.4033  0.90772     C
H       0.5785    0.018   0.6214     H
H       0.5785    0.482   0.1214     H
H       0.5824   0.5652   0.3669     H
H       0.5824   0.9348   0.8669     H
C      0.58429   0.0686  0.34875     C
C      0.58429   0.4314  0.84875     C
H       0.5852   0.0575   0.3282     H
H       0.5852   0.4425   0.8282     H
C       0.5858   0.6234  0.48654     C
C       0.5858   0.8766  0.98654     C
C      0.59061   0.0225  0.01461     C
C      0.59061   0.4775  0.51461     C
H       0.5928   0.6907   0.4845     H
H       0.5928   0.8093   0.9845     H
C      0.59309   0.1819  0.57146     C
C      0.59309   0.3181  0.07146     C
C       0.5949   0.1399  0.59868     C
C       0.5949   0.3601  0.09868     C
N      0.59495   0.1707  0.04262     N
N      0.59495   0.3293  0.54262     N
C       0.6005   0.5766  0.51176     C
C       0.6005   0.9234  0.01176     C
C      0.60658    0.077  0.04101     C
C      0.60658    0.423  0.54101     C
H       0.6081   0.1747   0.6148     H
H       0.6081   0.3253   0.1148     H
C      0.60837   0.2152   0.0674     C
C      0.60837   0.2848   0.5674     C
C      0.61311   0.5761  0.37562     C
C      0.61311   0.9239  0.87562     C
N      0.61465   0.6054  0.40373     N
N      0.61465   0.8946  0.90373     N
H       0.6169    0.611   0.5268     H
H       0.6169    0.889   0.0268     H
C      0.62317   0.0832  0.39538     C
C      0.62317   0.4168  0.89538     C
C      0.62678   0.0697  0.36524     C
C      0.62678   0.4303  0.86524     C
N      0.63053   0.0271  0.06156     N
N      0.63053   0.4729  0.56156     N
N      0.63324   0.1729  0.08917     N
N      0.63324   0.3271  0.58917     N
C      0.64236    0.079  0.08524     C
C      0.64236    0.421  0.58524     C
H       0.6514   0.0831   0.4073     H
H       0.6514   0.4169   0.9073     H
H       0.6515   0.5427   0.3391     H
H       0.6515   0.9573   0.8391     H
H        0.653   0.6107    0.594     H
H        0.653   0.8893    0.094     H
H       0.6534   0.5127   0.7703     H
H       0.6534   0.9873   0.2703     H
C      0.65405   0.5612  0.35902     C
C      0.65405   0.9388  0.85902     C
C      0.65841   0.6174  0.41613     C
C      0.65841   0.8826  0.91613     C
H         0.66   0.6374    0.436     H
H         0.66   0.8626    0.936     H
I      0.66422  0.16684  0.67566     I
I      0.66422  0.33316  0.17566     I
H       0.6654   0.5724   0.7232     H
H       0.6654   0.9276   0.2232     H
C      0.66649   0.0266  0.10941     C
C      0.66649   0.4734  0.60941     C
C       0.6674   0.5748  0.60948     C
C       0.6674   0.9252  0.10948     C
C      0.67456   0.0581  0.35126     C
C      0.67456   0.4419  0.85126     C
N      0.67586   0.0357   0.3226     N
N      0.67586   0.4643   0.8226     N
C      0.68526   0.5221    0.763     C
C      0.68526   0.9779    0.263     C
H       0.6855   0.1442    0.134     H
H       0.6855   0.3558    0.634     H
C       0.6868   0.0753  0.13297     C
C       0.6868   0.4247  0.63297     C
C       0.6897   0.6224  0.63257     C
C       0.6897   0.8776  0.13257     C
H       0.6903   0.6915   0.6326     H
H       0.6903   0.8085   0.1326     H
C      0.69282   0.5573  0.73486     C
C      0.69282   0.9427  0.23486     C
H       0.6935   0.0515   0.7315     H
H       0.6935   0.4485   0.2315     H
I      0.69528  0.69144  0.19417     I
I      0.69528  0.80856  0.69417     I
C      0.69948   0.5738  0.37201     C
C      0.69948   0.9262  0.87201     C
H       0.7009   0.5055   0.2791     H
H       0.7009   0.9945   0.7791     H
C      0.70094   0.6018  0.40129     C
C      0.70094   0.8982  0.90129     C
C       0.7091   0.0222  0.15495     C
C       0.7091   0.4778  0.65495     C
N      0.71045    0.575  0.65484     N
N      0.71045    0.925  0.15484     N
N      0.71353   0.0711   0.3681     N
N      0.71353   0.4289   0.8681     N
C      0.72036   0.0272  0.31148     C
C      0.72036   0.4728  0.81148     C
H       0.7239   0.0561   0.1707     H
H       0.7239   0.4439   0.6707     H
C      0.72482   0.0455  0.73983     C
C      0.72482   0.4545  0.23983     C
C      0.72542    0.501  0.78023     C
C      0.72542    0.999  0.28023     C
C       0.7289    0.011  0.76817     C
C       0.7289    0.489  0.26817     C
H       0.7311     0.61   0.4109     H
H       0.7311     0.89   0.9109     H
N      0.73691    0.571  0.72354     N
N      0.73691    0.929  0.22354     N
N      0.73836   0.5386  0.32633     N
N      0.73836   0.9614  0.82633     N
C      0.74375   0.5603  0.35472     C
C      0.74375   0.9397  0.85472     C
Zn     0.74547  0.65365  0.68655    Zn
Zn     0.74547  0.84635  0.18655    Zn
Zn     0.75453  0.15365  0.68655    Zn
Zn     0.75453  0.34635  0.18655    Zn
C      0.75625   0.0603  0.35472     C
C      0.75625   0.4397  0.85472     C
N      0.76164   0.0386  0.32633     N
N      0.76164   0.4614  0.82633     N
N      0.76309    0.071  0.72354     N
N      0.76309    0.429  0.22354     N
H       0.7689     0.11   0.4109     H
H       0.7689     0.39   0.9109     H
C       0.7711    0.511  0.76817     C
C       0.7711    0.989  0.26817     C
C      0.77458    0.001  0.78023     C
C      0.77458    0.499  0.28023     C
C      0.77518   0.5455  0.73983     C
C      0.77518   0.9545  0.23983     C
H       0.7761   0.5561   0.1707     H
H       0.7761   0.9439   0.6707     H
C      0.77964   0.5272  0.31148     C
C      0.77964   0.9728  0.81148     C
N      0.78647   0.5711   0.3681     N
N      0.78647   0.9289   0.8681     N
N      0.78955    0.075  0.65484     N
N      0.78955    0.425  0.15484     N
C       0.7909   0.5222  0.15495     C
C       0.7909   0.9778  0.65495     C
C      0.79906   0.1018  0.40129     C
C      0.79906   0.3982  0.90129     C
H       0.7991   0.0055   0.2791     H
H       0.7991   0.4945   0.7791     H
C      0.80052   0.0738  0.37201     C
C      0.80052   0.4262  0.87201     C
I      0.80472  0.19144  0.19417     I
I      0.80472  0.30856  0.69417     I
H       0.8065   0.5515   0.7315     H
H       0.8065   0.9485   0.2315     H
C      0.80718   0.0573  0.73486     C
C      0.80718   0.4427  0.23486     C
H       0.8097   0.1915   0.6326     H
H       0.8097   0.3085   0.1326     H
C       0.8103   0.1224  0.63257     C
C       0.8103   0.3776  0.13257     C
C       0.8132   0.5753  0.13297     C
C       0.8132   0.9247  0.63297     C
H       0.8145   0.6442    0.134     H
H       0.8145   0.8558    0.634     H
C      0.81474   0.0221    0.763     C
C      0.81474   0.4779    0.263     C
N      0.82414   0.5357   0.3226     N
N      0.82414   0.9643   0.8226     N
C      0.82544   0.5581  0.35126     C
C      0.82544   0.9419  0.85126     C
C       0.8326   0.0748  0.60948     C
C       0.8326   0.4252  0.10948     C
C      0.83351   0.5266  0.10941     C
C      0.83351   0.9734  0.60941     C
H       0.8346   0.0724   0.7232     H
H       0.8346   0.4276   0.2232     H
I      0.83578  0.66684  0.67566     I
I      0.83578  0.83316  0.17566     I
H         0.84   0.1374    0.436     H
H         0.84   0.3626    0.936     H
C      0.84159   0.1174  0.41613     C
C      0.84159   0.3826  0.91613     C
C      0.84595   0.0612  0.35902     C
C      0.84595   0.4388  0.85902     C
H       0.8466   0.0127   0.7703     H
H       0.8466   0.4873   0.2703     H
H        0.847   0.1107    0.594     H
H        0.847   0.3893    0.094     H
H       0.8485   0.0427   0.3391     H
H       0.8485   0.4573   0.8391     H
H       0.8486   0.5831   0.4073     H
H       0.8486   0.9169   0.9073     H
C      0.85764    0.579  0.08524     C
C      0.85764    0.921  0.58524     C
N      0.86676   0.6729  0.08917     N
N      0.86676   0.8271  0.58917     N
N      0.86947   0.5271  0.06156     N
N      0.86947   0.9729  0.56156     N
C      0.87322   0.5697  0.36524     C
C      0.87322   0.9303  0.86524     C
C      0.87683   0.5832  0.39538     C
C      0.87683   0.9168  0.89538     C
H       0.8831    0.111   0.5268     H
H       0.8831    0.389   0.0268     H
N      0.88535   0.1054  0.40373     N
N      0.88535   0.3946  0.90373     N
C      0.88689   0.0761  0.37562     C
C      0.88689   0.4239  0.87562     C
C      0.89163   0.7152   0.0674     C
C      0.89163   0.7848   0.5674     C
H       0.8919   0.6747   0.6148     H
H       0.8919   0.8253   0.1148     H
C      0.89342    0.577  0.04101     C
C      0.89342    0.923  0.54101     C
C       0.8995   0.0766  0.51176     C
C       0.8995   0.4234  0.01176     C
N      0.90505   0.6707  0.04262     N
N      0.90505   0.8293  0.54262     N
C       0.9051   0.6399  0.59868     C
C       0.9051   0.8601  0.09868     C
C      0.90691   0.6819  0.57146     C
C      0.90691   0.8181  0.07146     C
H       0.9072   0.1907   0.4845     H
H       0.9072   0.3093   0.9845     H
C      0.90939   0.5225  0.01461     C
C      0.90939   0.9775  0.51461     C
C       0.9142   0.1234  0.48654     C
C       0.9142   0.3766  0.98654     C
H       0.9148   0.5575   0.3282     H
H       0.9148   0.9425   0.8282     H
C      0.91571   0.5686  0.34875     C
C      0.91571   0.9314  0.84875     C
H       0.9176   0.0652   0.3669     H
H       0.9176   0.4348   0.8669     H
H       0.9215    0.518   0.6214     H
H       0.9215    0.982   0.1214     H
C       0.9219   0.5967  0.40772     C
C       0.9219   0.9033  0.90772     C
C       0.9226   0.5463   0.6025     C
C       0.9226   0.9537   0.1025     C
H        0.924    0.605   0.4283     H
H        0.924    0.895   0.9283     H
I      0.92551  0.22536  0.12858     I
I      0.92551  0.27464  0.62858     I
C       0.9261   0.6296  0.54853     C
C       0.9261   0.8704  0.04853     C
H       0.9281   0.6573   0.5295     H
H       0.9281   0.8427   0.0295     H
C       0.9353   0.5674  0.99282     C
C       0.9353   0.9326  0.49282     C
N        0.938   0.0778  0.46472     N
N        0.938   0.4222  0.96472     N
N      0.94098   0.0055  0.08027     N
N      0.94098   0.4945  0.58027     N
C       0.9427   0.5357  0.55365     C
C       0.9427   0.9643  0.05365     C
I      0.94366  0.17242  0.93194     I
I      0.94366  0.32758  0.43194     I
H       0.9439    0.634   0.9947     H
H       0.9439    0.866   0.4947     H
C        0.949   0.5164  0.96817     C
C        0.949   0.9836  0.46817     C
Zn     0.94925   0.1443  0.42467    Zn
Zn     0.94925   0.3557  0.92467    Zn
H       0.9557   0.0005   0.0378     H
H       0.9557   0.4995   0.5378     H
C       0.9593   0.5841  0.36302     C
C       0.9593   0.9159  0.86302     C
N      0.96275   0.5986  0.39203     N
N      0.96275   0.9014  0.89203     N
H       0.9667   0.5489   0.9533     H
H       0.9667   0.9511   0.4533     H
Zn     0.97232  0.13847  0.08869    Zn
Zn     0.97232  0.36153  0.58869    Zn
I      0.98393  0.55256  0.10185     I
I      0.98393  0.94744  0.60185     I
H       0.9882   0.5846   0.3517     H
H       0.9882   0.9154   0.8517     H
I      0.99105  0.21687  0.03916     I
I      0.99105  0.28313  0.53916     I
