data_I
_chemical_name_common  '/home/zhangsd/repos/MofS-CGCNN/ML/data/TSD/clean_cifs/XEDGIY_clean'
_cell_length_a 14.30600
_cell_length_b 19.50900
_cell_length_c 36.48200
_cell_angle_alpha 90.00000
_cell_angle_beta  99.62900
_cell_angle_gamma 90.00000
_space_group_name_H-M_alt      'P 1'


loop_
_space_group_symop_operation_xyz
  'x, y, z' 

loop_
_atom_site_label
_atom_site_fract_x
_atom_site_fract_y
_atom_site_fract_z
_atom_site_type_symbol
C       0.0013   0.0398  0.90656     C
C       0.0013   0.4602  0.40656     C
H       0.0105   0.5784   0.5791     H
H       0.0105   0.9216   0.0791     H
C        0.026   0.0221   0.1528     C
C        0.026   0.4779   0.6528     C
H       0.0298   0.6861   0.5093     H
H       0.0298   0.8139   0.0093     H
H       0.0411   0.7103   0.0404     H
H       0.0411   0.7897   0.5404     H
C       0.0436   0.5683  0.36289     C
C       0.0436   0.9317  0.86289     C
C       0.0476   0.5336  0.63042     C
C       0.0476   0.9664  0.13042     C
H       0.0608   0.6048   0.3481     H
H       0.0608   0.8952   0.8481     H
H        0.063   0.0687    0.203     H
H        0.063   0.4313    0.703     H
C       0.0646   0.5081  0.42188     C
C       0.0646   0.9919  0.92188     C
C       0.0773   0.0312  0.18831     C
C       0.0773   0.4688  0.68831     C
C       0.0809   0.6936  0.52919     C
C       0.0809   0.8064  0.02919     C
C       0.0882   0.5623  0.39929     C
C       0.0882   0.7443  0.04735     C
C       0.0882   0.7557  0.54735     C
C       0.0882   0.9377  0.89929     C
H       0.0955   0.6111   0.4682     H
H       0.0955   0.8889   0.9682     H
C       0.0996   0.5079  0.46263     C
C       0.0996   0.9921  0.96263     C
C       0.1095   0.5698  0.48182     C
C       0.1095   0.9302  0.98182     C
H       0.1136   0.0945   0.9708     H
H       0.1136   0.4055   0.4708     H
H       0.1142   0.0857   0.0885     H
H       0.1142   0.4143   0.5885     H
C       0.1197   0.0515  0.98319     C
C       0.1197   0.4485  0.48319     C
C       0.1211   0.5803  0.64547     C
C       0.1211   0.9197  0.14547     C
H       0.1282   0.6334    0.088     H
H       0.1282   0.8666    0.588     H
H       0.1351   0.5948   0.4093     H
H       0.1351   0.9052   0.9093     H
H       0.1356   0.6183   0.6312     H
H       0.1356   0.8817   0.1312     H
C       0.1391   0.5739  0.52019     C
C       0.1391   0.9261  0.02019     C
C       0.1482   0.6405  0.53948     C
C       0.1482   0.8595  0.03948     C
C       0.1488   0.0501  0.02149     C
C       0.1488   0.4499  0.52149     C
C       0.1505   0.1205  0.07935     C
C       0.1505   0.3795  0.57935     C
C       0.1509   0.5149  0.70283     C
C       0.1509   0.9851  0.20283     C
C       0.1579   0.5123  0.53948     C
C       0.1579   0.9877  0.03948     C
H       0.1636   0.1793   0.1255     H
H       0.1636   0.3207   0.6255     H
C       0.1642   0.7306  0.07594     C
C       0.1642   0.7694  0.57594     C
C       0.1707   0.5701  0.68064     C
C       0.1707   0.9299  0.18064     C
C       0.1726   0.1144  0.04368     C
C       0.1726   0.3856  0.54368     C
C       0.1748   0.6679  0.09463     C
C       0.1748   0.8321  0.59463     C
H       0.1773   0.5134   0.5657     H
H       0.1773   0.9866   0.0657     H
C       0.1804   0.1759  0.10143     C
C       0.1804   0.3241  0.60143     C
Cd     0.18127  0.05438  0.66345    Cd
Cd     0.18127  0.44562  0.16345    Cd
O       0.1901   0.5448  0.13524     O
O       0.1901   0.9552  0.63524     O
O       0.1905   0.0467  0.26019     O
O       0.1905   0.4533  0.76019     O
C       0.2089   0.5055  0.74048     C
C       0.2089   0.9945  0.24048     C
H       0.2198   0.6012   0.6902     H
H       0.2198   0.8988   0.1902     H
C       0.2226   0.6537  0.56808     C
C       0.2226   0.8463  0.06808     C
C       0.2233   0.1654   0.0305     C
C       0.2233   0.3346   0.5305     C
C       0.2327   0.7182   0.5864     C
C       0.2327   0.7818   0.0864     C
C       0.2358   0.2281  0.08878     C
C       0.2358   0.2719  0.58878     C
H       0.2364   0.1622   0.0059     H
H       0.2364   0.3378   0.5059     H
H       0.2432   0.1594   0.8764     H
H       0.2432   0.3406   0.3764     H
H       0.2478   0.0696   0.9167     H
H       0.2478   0.4304   0.4167     H
C        0.251   0.6541   0.1225     C
C        0.251   0.8459   0.6225     C
H       0.2525   0.2104   0.6351     H
H       0.2525   0.2896   0.1351     H
C       0.2565   0.2228  0.05239     C
C       0.2565   0.2772  0.55239     C
C       0.2568   0.5866  0.14205     C
C       0.2568   0.9134  0.64205     C
C       0.2672   0.2141  0.61069     C
C       0.2672   0.2859  0.11069     C
H        0.268   0.6188   0.5757     H
H        0.268   0.8812   0.0757     H
O       0.2721    0.547  0.75181     O
O       0.2721    0.953  0.25181     O
H       0.2736   0.6977   0.9648     H
H       0.2736   0.8023   0.4648     H
H       0.2859   0.6993    0.496     H
H       0.2859   0.8007    0.996     H
C        0.286   0.1604  0.89932     C
C        0.286   0.3396  0.39932     C
C       0.2893   0.1073  0.92298     C
C       0.2893   0.3927  0.42298     C
O       0.2928    0.555   0.8518     O
O       0.2928    0.945   0.3518     O
H       0.3044   0.6269   0.9112     H
H       0.3044   0.8731   0.4112     H
C       0.3078   0.7343  0.95613     C
C       0.3078   0.7657  0.45613     C
H       0.3082    0.227   0.3596     H
H       0.3082    0.273   0.8596     H
C        0.312   0.2258  0.53915     C
C        0.312   0.2742  0.03915     C
C       0.3121    0.733  0.61491     C
C       0.3121    0.767  0.11491     C
C       0.3149   0.7046  0.47452     C
C       0.3149   0.7954  0.97452     C
C       0.3177   0.1638  0.59764     C
C       0.3177   0.3362  0.09764     C
Cd     0.31783  0.01968  0.30493    Cd
Cd     0.31783  0.48032  0.80493    Cd
C       0.3203   0.7042  0.13181     C
C       0.3203   0.7958  0.63181     C
O       0.3256  0.09395  0.65174     O
O       0.3256  0.40605  0.15174     O
H       0.3282   0.2293    0.515     H
H       0.3282   0.2707    0.015     H
O       0.3333   0.5771  0.16572     O
O       0.3333   0.9229  0.66572     O
O       0.3364   0.1119  0.33884     O
O       0.3364   0.3881  0.83884     O
C       0.3414   0.6632  0.90381     C
C       0.3414   0.8368  0.40381     C
H       0.3416   0.1151   0.1533     H
H       0.3416   0.3849   0.6533     H
C       0.3425   0.1703  0.56168     C
C       0.3425   0.3297  0.06168     C
H        0.343   0.5227   0.4358     H
H        0.343   0.9773   0.9358     H
C       0.3463   0.2183  0.90827     C
C       0.3463   0.2817  0.40827     C
C       0.3493   0.2262  0.38297     C
C       0.3493   0.2738  0.88297     C
C       0.3499   0.7249   0.9247     C
C       0.3499   0.7751   0.4247     C
C       0.3509   0.1021  0.62039     C
C       0.3509   0.3979  0.12039     C
C       0.3539   0.1064  0.95749     C
C       0.3539   0.3936  0.45749     C
H       0.3544   0.0709   0.0905     H
H       0.3544   0.4291   0.5905     H
C       0.3574   0.5209  0.46215     C
C       0.3574   0.9791  0.96215     C
H       0.3592    0.699   0.6221     H
H       0.3592    0.801   0.1221     H
C       0.3649   0.6489  0.46208     C
C       0.3649   0.8511  0.96208     C
C       0.3655   0.0434  0.97998     C
C       0.3655   0.4566  0.47998     C
C       0.3664   0.5906   0.8499     C
C       0.3664   0.9094   0.3499     C
C       0.3698   0.5809  0.48177     C
C       0.3698   0.9191  0.98177     C
H       0.3741   0.6946   0.1502     H
H       0.3741   0.8054   0.6502     H
H       0.3802    0.108   0.2181     H
H       0.3802    0.392   0.7181     H
H       0.3806    0.136    0.553     H
H       0.3806    0.364    0.053     H
C        0.381   0.0791  0.16454     C
C        0.381   0.4209  0.66454     C
C        0.384    0.654  0.87364     C
C        0.384    0.846  0.37364     C
C       0.3875   0.0437  0.01864     C
C       0.3875   0.4563  0.51864     C
C       0.3881   0.5793  0.52086     C
C       0.3881   0.9207  0.02086     C
C       0.3915   0.0341  0.10208     C
C       0.3915   0.4659  0.60208     C
H       0.3925    0.621   0.5345     H
H       0.3925    0.879   0.0345     H
H       0.3945   0.0865   0.0313     H
H       0.3945   0.4135   0.5313     H
C       0.3997   0.5169  0.53963     C
C       0.3997   0.9831  0.03963     C
C       0.4042   0.7215  0.41312     C
C       0.4042   0.7785  0.91312     C
C       0.4044   0.0751  0.20294     C
C       0.4044   0.4249  0.70294     C
O       0.4051  0.06029  0.60815     O
O       0.4051  0.43971  0.10815     O
C       0.4079   0.1136  0.36491     C
C       0.4079   0.3864  0.86491     C
C       0.4084   0.2205  0.94345     C
C       0.4084   0.2795  0.44345     C
C        0.409   0.1634  0.96731     C
C        0.409   0.3366  0.46731     C
C       0.4092   0.1721  0.39131     C
C       0.4092   0.3279  0.89131     C
C       0.4096   0.6586   0.4318     C
C       0.4096   0.8414   0.9318     C
C       0.4154   0.0301  0.14271     C
C       0.4154   0.4699  0.64271     C
O       0.4224   0.5758  0.82807     O
O       0.4224   0.9242  0.32807     O
C       0.4239   0.5169  0.58102     C
C       0.4239   0.9831  0.08102     C
C       0.4433   0.7071  0.86351     C
C       0.4433   0.7929  0.36351     C
H       0.4445    0.622   0.4235     H
H       0.4445    0.878   0.9235     H
O       0.4466   0.0243  0.72436     O
O       0.4466   0.4757  0.22436     O
O       0.4468   0.0564  0.28135     O
O       0.4468   0.4436  0.78135     O
Cd     0.44687  0.00011  0.66267    Cd
Cd     0.44687  0.49989  0.16267    Cd
H       0.4489   0.1643   0.9909     H
H       0.4489   0.3357   0.4909     H
C       0.4538   0.7332  0.38212     C
C       0.4538   0.7668  0.88212     C
H       0.4546   0.1088   0.8516     H
H       0.4546   0.3912   0.3516     H
C       0.4633    0.023  0.21928     C
C       0.4633    0.477  0.71928     C
H       0.4645   0.0614   0.7893     H
H       0.4645   0.4386   0.2893     H
C       0.4707   0.1719  0.42669     C
C       0.4707   0.2232  0.45172     C
C       0.4707   0.2768  0.95172     C
C       0.4707   0.3281  0.92669     C
O       0.4738   0.0708   0.3701     O
O       0.4738   0.4292   0.8701     O
C       0.4738   0.5243  0.65897     C
C       0.4738   0.9757  0.15897     C
H        0.476   0.7001   0.8432     H
H        0.476   0.7999   0.3432     H
C       0.4815   0.5691  0.59899     C
C       0.4815   0.9309  0.09899     C
H       0.4872   0.6345   0.0672     H
H       0.4872   0.8655   0.5672     H
H       0.4874   0.7214   0.0252     H
H       0.4874   0.7786   0.5252     H
C       0.4886   0.0182  0.26191     C
C       0.4886   0.4818  0.76191     C
H       0.4938   0.6986   0.3749     H
H       0.4938   0.8014   0.8749     H
C       0.4939   0.0726   0.8627     C
C       0.4939   0.4274   0.3627     C
H       0.4954   0.1034   0.9157     H
H       0.4954   0.3966   0.4157     H
C       0.4967   0.5258  0.69878     C
C       0.4967   0.9742  0.19878     C
C       0.5033   0.0258  0.80122     C
C       0.5033   0.4742  0.30122     C
H       0.5046   0.6034   0.5843     H
H       0.5046   0.8966   0.0843     H
C       0.5061   0.5726   0.6373     C
C       0.5061   0.9274   0.1373     C
H       0.5062   0.1986   0.1251     H
H       0.5062   0.3014   0.6251     H
C       0.5114   0.5182  0.23809     C
C       0.5114   0.9818  0.73809     C
H       0.5126   0.2214   0.4748     H
H       0.5126   0.2786   0.9748     H
H       0.5128   0.1345   0.4328     H
H       0.5128   0.3655   0.9328     H
C       0.5185   0.0691  0.90101     C
C       0.5185   0.4309  0.40101     C
H        0.524   0.2001   0.6568     H
H        0.524   0.2999   0.1568     H
C       0.5262   0.0243  0.84103     C
C       0.5262   0.4757  0.34103     C
O       0.5262   0.5708   0.1299     O
O       0.5262   0.9292   0.6299     O
C       0.5293   0.6719  0.07331     C
C       0.5293   0.7232  0.04828     C
C       0.5293   0.7768  0.54828     C
C       0.5293   0.8281  0.57331     C
H       0.5355   0.5614   0.7107     H
H       0.5355   0.9386   0.2107     H
C       0.5367    0.523  0.28072     C
C       0.5367    0.977  0.78072     C
H       0.5454   0.6088   0.6484     H
H       0.5454   0.8912   0.1484     H
C       0.5462   0.2332  0.11788     C
C       0.5462   0.2668  0.61788     C
H       0.5511   0.6643   0.5091     H
H       0.5511   0.8357   0.0091     H
Cd     0.55313  0.50011  0.83733    Cd
Cd     0.55313  0.99989  0.33733    Cd
O       0.5532   0.5564  0.21865     O
O       0.5532   0.9436  0.71865     O
O       0.5534   0.5243  0.77564     O
O       0.5534   0.9757  0.27564     O
H       0.5555    0.122   0.0765     H
H       0.5555    0.378   0.5765     H
C       0.5567   0.2071  0.63649     C
C       0.5567   0.2929  0.13649     C
C       0.5761   0.0169  0.91898     C
C       0.5761   0.4831  0.41898     C
O       0.5776   0.0758  0.67193     O
O       0.5776   0.4242  0.17193     O
C       0.5846   0.5301  0.35729     C
C       0.5846   0.9699  0.85729     C
C       0.5904   0.1586   0.0682     C
C       0.5904   0.3414   0.5682     C
C       0.5908   0.6721  0.10869     C
C       0.5908   0.8279  0.60869     C
C        0.591   0.6634  0.53269     C
C        0.591   0.8366  0.03269     C
C       0.5916   0.7205  0.55655     C
C       0.5916   0.7795  0.05655     C
C       0.5921   0.6136  0.13509     C
C       0.5921   0.8864  0.63509     C
O       0.5949  0.56029  0.89185     O
O       0.5949  0.93971  0.39185     O
C       0.5956   0.5751  0.29706     C
C       0.5956   0.9249  0.79706     C
C       0.5958   0.2215  0.08688     C
C       0.5958   0.2785  0.58688     C
C       0.6003   0.0169  0.96037     C
C       0.6003   0.4831  0.46037     C
H       0.6055   0.5865   0.4687     H
H       0.6055   0.9135   0.9687     H
H       0.6075    0.121   0.9655     H
H       0.6075    0.379   0.4655     H
C       0.6085   0.5341  0.39792     C
C       0.6085   0.9659  0.89792     C
C       0.6119   0.0793  0.97914     C
C       0.6119   0.4207  0.47914     C
C       0.6125   0.5437  0.48136     C
C       0.6125   0.9563  0.98136     C
C        0.616    0.154  0.62636     C
C        0.616    0.346  0.12636     C
C        0.619   0.5791  0.33546     C
C        0.619   0.9209  0.83546     C
H       0.6194    0.636    0.947     H
H       0.6194    0.864    0.447     H
H       0.6198    0.608   0.2819     H
H       0.6198    0.892   0.7819     H
H       0.6259   0.1946   0.3498     H
H       0.6259   0.3054   0.8498     H
C       0.6302   0.0809  0.01823     C
C       0.6302   0.4191  0.51823     C
C       0.6336   0.0906   0.6501     C
C       0.6336   0.4094   0.1501     C
C       0.6345   0.5434  0.52002     C
C       0.6345   0.9566  0.02002     C
C       0.6351   0.1489  0.03792     C
C       0.6351   0.3511  0.53792     C
H       0.6408    0.199   0.8779     H
H       0.6408    0.301   0.3779     H
C       0.6426   0.0209  0.03785     C
C       0.6426   0.4791  0.53785     C
H       0.6456   0.5709   0.4095     H
H       0.6456   0.9291   0.9095     H
C       0.6461   0.6064  0.54251     C
C       0.6461   0.8936  0.04251     C
C       0.6491   0.6021  0.87961     C
C       0.6491   0.8979  0.37961     C
C       0.6501   0.2249   0.5753     C
C       0.6501   0.2751   0.0753     C
C       0.6507   0.7262  0.11703     C
C       0.6507   0.7738  0.61703     C
C       0.6537   0.7183  0.59173     C
C       0.6537   0.7817  0.09173     C
H        0.657   0.0227   0.0642     H
H        0.657   0.4773   0.5642     H
C       0.6575   0.6703  0.93832     C
C       0.6575   0.8297  0.43832     C
H       0.6584   0.6151   0.3467     H
H       0.6584   0.8849   0.8467     H
C       0.6586   0.1632  0.59619     C
C       0.6586   0.3368  0.09619     C
O       0.6636   0.6119  0.16116     O
O       0.6636   0.8881  0.66116     O
O       0.6667   0.0771  0.33428     O
O       0.6667   0.4229  0.83428     O
H       0.6718   0.7293    0.985     H
H       0.6718   0.7707    0.485     H
O       0.6744  0.59395  0.84826     O
O       0.6744  0.90605  0.34826     O
C       0.6797   0.2042  0.36819     C
C       0.6797   0.2958  0.86819     C
Cd     0.68217  0.51968  0.19507    Cd
Cd     0.68217  0.98032  0.69507    Cd
C       0.6823   0.6638  0.90236     C
C       0.6823   0.8362  0.40236     C
C       0.6851   0.2046  0.02548     C
C       0.6851   0.2954  0.52548     C
C       0.6879    0.233  0.88509     C
C       0.6879    0.267  0.38509     C
C        0.688   0.7258  0.96085     C
C        0.688   0.7742  0.46085     C
H       0.6918    0.727   0.1404     H
H       0.6918    0.773   0.6404     H
C       0.6922   0.2343  0.54387     C
C       0.6922   0.2657  0.04387     C
H       0.6956   0.1269   0.5888     H
H       0.6956   0.3731   0.0888     H
O       0.7072    0.055   0.6482     O
O       0.7072    0.445   0.1482     O
C       0.7107   0.6073  0.57702     C
C       0.7107   0.8927  0.07702     C
C        0.714   0.6604  0.60068     C
C        0.714   0.8396  0.10068     C
H       0.7141   0.1993    0.004     H
H       0.7141   0.3007    0.504     H
H       0.7264   0.1977   0.5352     H
H       0.7264   0.3023   0.0352     H
O       0.7279    0.047  0.74819     O
O       0.7279    0.453  0.24819     O
H        0.732   0.1188   0.9243     H
H        0.732   0.3812   0.4243     H
C       0.7328   0.7141  0.88931     C
C       0.7328   0.7859  0.38931     C
C       0.7432   0.0866  0.35795     C
C       0.7432   0.4134  0.85795     C
C       0.7435   0.7228  0.44761     C
C       0.7435   0.7772  0.94761     C
H       0.7475   0.7104   0.8649     H
H       0.7475   0.7896   0.3649     H
C        0.749   0.1541   0.3775     C
C        0.749   0.3459   0.8775     C
H       0.7522   0.5696   0.5833     H
H       0.7522   0.9304   0.0833     H
H       0.7568   0.6594   0.6236     H
H       0.7568   0.8406   0.1236     H
H       0.7636   0.6622   0.4941     H
H       0.7636   0.8378   0.9941     H
C       0.7642   0.7281  0.41122     C
C       0.7642   0.7719  0.91122     C
C       0.7673   0.2182   0.9136     C
C       0.7673   0.2818   0.4136     C
C       0.7767   0.6654   0.4695     C
C       0.7767   0.8346   0.9695     C
C       0.7774   0.1537  0.93192     C
C       0.7774   0.3463  0.43192     C
H       0.7802   0.1012   0.8098     H
H       0.7802   0.3988   0.3098     H
C       0.7911   0.0055  0.75952     C
C       0.7911   0.4945  0.25952     C
O       0.8095   0.5467  0.23981     O
O       0.8095   0.9533  0.73981     O
O       0.8099   0.0448  0.36476     O
O       0.8099   0.4552  0.86476     O
Cd     0.81873  0.55438  0.83655    Cd
Cd     0.81873  0.94562  0.33655    Cd
C       0.8196   0.6759  0.39857     C
C       0.8196   0.8241  0.89857     C
H       0.8227   0.0134   0.9343     H
H       0.8227   0.4866   0.4343     H
C       0.8252   0.1679  0.40537     C
C       0.8252   0.3321  0.90537     C
C       0.8274   0.6144  0.45632     C
C       0.8274   0.8856  0.95632     C
C       0.8293   0.0701  0.81936     C
C       0.8293   0.4299  0.31936     C
C       0.8358   0.2306  0.42406     C
C       0.8358   0.2694  0.92406     C
H       0.8364   0.6793   0.3745     H
H       0.8364   0.8207   0.8745     H
C       0.8421   0.0123  0.96052     C
C       0.8421   0.4877  0.46052     C
C       0.8491   0.0149  0.79717     C
C       0.8491   0.4851  0.29717     C
C       0.8495   0.6205  0.42065     C
C       0.8495   0.8795  0.92065     C
C       0.8512   0.5501  0.47851     C
C       0.8512   0.9499  0.97851     C
C       0.8518   0.1405  0.96052     C
C       0.8518   0.3595  0.46052     C
C       0.8609   0.0739  0.97981     C
C       0.8609   0.4261  0.47981     C
H       0.8644   0.1183   0.8688     H
H       0.8644   0.3817   0.3688     H
H       0.8649   0.0948   0.0907     H
H       0.8649   0.4052   0.5907     H
H       0.8718   0.1334    0.412     H
H       0.8718   0.3666    0.912     H
C       0.8789   0.0803  0.85453     C
C       0.8789   0.4197  0.35453     C
C       0.8803   0.5515  0.51681     C
C       0.8803   0.9485  0.01681     C
H       0.8858   0.5857   0.4115     H
H       0.8858   0.9143   0.9115     H
H       0.8864   0.5945   0.5292     H
H       0.8864   0.9055   0.0292     H
C       0.8905   0.0698  0.01818     C
C       0.8905   0.4302  0.51818     C
C       0.9004   0.0079  0.03737     C
C       0.9004   0.4921  0.53737     C
H       0.9045   0.1111   0.0318     H
H       0.9045   0.3889   0.5318     H
C       0.9118   0.0623  0.10071     C
C       0.9118   0.2443  0.45265     C
C       0.9118   0.2557  0.95265     C
C       0.9118   0.4377  0.60071     C
C       0.9191   0.1936  0.97081     C
C       0.9191   0.3064  0.47081     C
C       0.9227   0.5312  0.31169     C
C       0.9227   0.9688  0.81169     C
C       0.9354   0.0081  0.07812     C
C       0.9354   0.4919  0.57812     C
H        0.937   0.5687    0.297     H
H        0.937   0.9313    0.797     H
H       0.9392   0.1048   0.1519     H
H       0.9392   0.3952   0.6519     H
C       0.9524   0.0336  0.86958     C
C       0.9524   0.4664  0.36958     C
C       0.9564   0.0683  0.13711     C
C       0.9564   0.4317  0.63711     C
H       0.9589   0.2103   0.4596     H
H       0.9589   0.2897   0.9596     H
H       0.9702   0.1861   0.9907     H
H       0.9702   0.3139   0.4907     H
C        0.974   0.5221   0.3472     C
C        0.974   0.9779   0.8472     C
H       0.9895   0.0784   0.9209     H
H       0.9895   0.4216   0.4209     H
C       0.9987   0.5398  0.59344     C
C       0.9987   0.9602  0.09344     C
