data_I
_chemical_name_common  '/home/zhangsd/repos/MofS-CGCNN/ML/data/TSD/clean_cifs/XEGKOL_clean'
_cell_length_a 14.63600
_cell_length_b 19.26620
_cell_length_c 19.26620
_cell_angle_alpha 101.24100
_cell_angle_beta  92.70000
_cell_angle_gamma 92.70000
_space_group_name_H-M_alt      'P 1'


loop_
_space_group_symop_operation_xyz
  'x, y, z' 

loop_
_atom_site_label
_atom_site_fract_x
_atom_site_fract_y
_atom_site_fract_z
_atom_site_type_symbol
C       0.0077   0.1505   0.3125     C
H       0.0161   0.8416    0.258     H
O        0.023   0.7547   0.8227     O
C       0.0237   0.9052   0.3914     C
H       0.0276   0.5602   0.9854     H
N       0.0316   0.8052   0.7952     N
C       0.0344   0.6972   0.9788     C
O       0.0381   0.9321   0.5907     O
C        0.039   0.0999   0.4215     C
C       0.0391   0.1873   0.2609     C
O       0.0396   0.7654   0.1396     O
O       0.0462   0.3205   0.0201     O
H       0.0502   0.7441   0.9769     H
H       0.0526   0.8679   0.6907     H
O       0.0533   0.9465   0.4473     O
O       0.0562   0.0997   0.6327     O
O       0.0633   0.4225   0.2645     O
C       0.0671   0.1418   0.3682     C
C       0.0713   0.8321   0.2791     C
C       0.0881   0.5776   0.9858     C
C       0.0919   0.8582   0.3506     C
O       0.0937   0.8504   0.8094     O
O       0.0948   0.0992   0.4718     O
O        0.099   0.3467   0.3285     O
N       0.1003   0.3684   0.2728     N
C        0.109   0.6477   0.9803     C
N       0.1119   0.7723   0.1631     N
C       0.1266   0.2168    0.263     C
Gd     0.13125  0.01753  0.54473    Gd
C       0.1347   0.7911   0.2387     C
H       0.1433   0.4894    0.996     H
C       0.1494   0.3305   0.2143     C
O       0.1502    0.642   0.2712     O
O       0.1519   0.5729   0.1709     O
C       0.1553   0.1701   0.3699     C
C       0.1582   0.2561   0.2063     C
C       0.1583   0.5358   0.9918     C
O       0.1669   0.6342   0.7944     O
C       0.1716   0.8428   0.3824     C
H       0.1727   0.4179   0.1741     H
H       0.1736   0.0119   0.3613     H
O       0.1771   0.7738   0.1242     O
C       0.1807   0.3695   0.1673     C
N       0.1843   0.6203   0.2159     N
C       0.1845   0.2056    0.318     C
H       0.1857   0.8597   0.4305     H
O        0.192   0.7128   0.7302     O
H       0.1965   0.1654   0.4066     H
C       0.1991     0.67   0.9812     C
C       0.1998   0.2254   0.1484     C
O       0.2043   0.9964   0.6556     O
O       0.2099   0.1165   0.1831     O
N       0.2144   0.1478   0.1328     N
H       0.2156   0.7163   0.9777     H
C       0.2164    0.775     0.27     C
N       0.2178   0.6757   0.7701     N
C       0.2244    0.335   0.1094     C
C       0.2316   0.8005   0.3403     C
C       0.2318   0.2618   0.0986     C
O       0.2324    0.925   0.5562     O
O       0.2336   0.1205   0.0731     O
C       0.2337   0.9406   0.6226     C
C       0.2346   0.0127   0.3775     C
H        0.242   0.9417   0.7621     H
N       0.2484    0.555   0.9922     N
N       0.2516   0.0078    0.445     N
H        0.258   0.2379   0.0583     H
C       0.2654   0.6225   0.9873     C
C       0.2663   0.3774   0.0594     C
O       0.2664   0.9269   0.8795     O
O       0.2676   0.4438    0.075     O
C       0.2682   0.9014   0.7382     C
C       0.2684   0.6597   0.1995     C
C       0.2756   0.8906    0.665     C
N       0.2822   0.2299   0.3243     N
C       0.2836     0.73    0.225     C
H       0.2844   0.0223   0.2837     H
N       0.2856   0.8672   0.8522     N
O       0.2901   0.8169   0.8835     O
O       0.2957   0.3444   0.0036     O
C       0.3002   0.8516   0.7746     C
C       0.3009   0.0188     0.33     C
H       0.3035   0.5934   0.8346     H
O        0.308   0.2698   0.2872     O
H       0.3143   0.5695   0.1403     H
C       0.3155    0.682   0.7944     C
N       0.3157   0.7841   0.3797     N
C       0.3193   0.8327   0.6305     C
O       0.3229   0.8758   0.2262     O
H       0.3264   0.6387   0.9881     H
H       0.3273   0.8259   0.5821     H
C       0.3284   0.6176   0.1572     C
O       0.3331   0.2056   0.3658     O
C       0.3417   0.0082   0.4642     C
C       0.3418   0.7937   0.7439     C
C       0.3447   0.6301   0.8299     C
O       0.3481   0.8291   0.4271     O
O       0.3498   0.7288    0.358     O
C       0.3506   0.7857   0.6695     C
H       0.3567    0.004   0.5106     H
C       0.3653   0.7613   0.2089     C
Gd     0.36875  0.45527  0.98247    Gd
C       0.3734    0.737   0.7832     C
N       0.3881   0.8369   0.2277     N
C        0.391   0.0197   0.3523     C
N       0.3997   0.7272   0.6316     N
O        0.401   0.6715   0.6533     O
O       0.4052   0.5282   0.9008     O
O       0.4063   0.1906   0.1496     O
C       0.4081   0.6494   0.1418     C
C       0.4119   0.0142   0.4224     C
C       0.4287   0.7209   0.1679     C
C       0.4329   0.6318   0.8582     C
O       0.4367   0.7355   0.5775     O
O       0.4438   0.3673   0.9003     O
O       0.4467   0.5527   0.0535     O
H       0.4474   0.3093   0.1321     H
H       0.4498   0.0231   0.2559     H
O       0.4538   0.9799   0.6795     O
O       0.4604   0.8604   0.2346     O
C       0.4609   0.7391   0.8127     C
C        0.461   0.5785   0.9001     C
O       0.4619   0.4093   0.0679     O
C       0.4656   0.0212   0.3028     C
N       0.4684   0.2048   0.1948     N
H       0.4724   0.0146   0.4398     H
C       0.4763   0.6086   0.0948     C
O        0.477   0.1773   0.2453     O
H       0.4839    0.742   0.1584     H
C       0.4923   0.6875   0.8495     C
C       0.5077   0.3125   0.1505     C
H       0.5161    0.258   0.8416     H
O        0.523   0.8227   0.7547     O
C       0.5237   0.3914   0.9052     C
H       0.5276   0.9854   0.5602     H
N       0.5316   0.7952   0.8052     N
C       0.5344   0.9788   0.6972     C
O       0.5381   0.5907   0.9321     O
C        0.539   0.4215   0.0999     C
C       0.5391   0.2609   0.1873     C
O       0.5396   0.1396   0.7654     O
O       0.5462   0.0201   0.3205     O
H       0.5502   0.9769   0.7441     H
H       0.5526   0.6907   0.8679     H
O       0.5533   0.4473   0.9465     O
O       0.5562   0.6327   0.0997     O
O       0.5633   0.2645   0.4225     O
C       0.5671   0.3682   0.1418     C
C       0.5713   0.2791   0.8321     C
C       0.5881   0.9858   0.5776     C
C       0.5919   0.3506   0.8582     C
O       0.5937   0.8094   0.8504     O
O       0.5948   0.4718   0.0992     O
O        0.599   0.3285   0.3467     O
N       0.6003   0.2728   0.3684     N
C        0.609   0.9803   0.6477     C
N       0.6119   0.1631   0.7723     N
C       0.6266    0.263   0.2168     C
Gd     0.63125  0.54473  0.01753    Gd
C       0.6347   0.2387   0.7911     C
H       0.6433    0.996   0.4894     H
C       0.6494   0.2143   0.3305     C
O       0.6502   0.2712    0.642     O
O       0.6519   0.1709   0.5729     O
C       0.6553   0.3699   0.1701     C
C       0.6582   0.2063   0.2561     C
C       0.6583   0.9918   0.5358     C
O       0.6669   0.7944   0.6342     O
C       0.6716   0.3824   0.8428     C
H       0.6727   0.1741   0.4179     H
H       0.6736   0.3613   0.0119     H
O       0.6771   0.1242   0.7738     O
C       0.6807   0.1673   0.3695     C
N       0.6843   0.2159   0.6203     N
C       0.6845    0.318   0.2056     C
H       0.6857   0.4305   0.8597     H
O        0.692   0.7302   0.7128     O
H       0.6965   0.4066   0.1654     H
C       0.6991   0.9812     0.67     C
C       0.6998   0.1484   0.2254     C
O       0.7043   0.6556   0.9964     O
O       0.7099   0.1831   0.1165     O
N       0.7144   0.1328   0.1478     N
H       0.7156   0.9777   0.7163     H
C       0.7164     0.27    0.775     C
N       0.7178   0.7701   0.6757     N
C       0.7244   0.1094    0.335     C
C       0.7316   0.3403   0.8005     C
C       0.7318   0.0986   0.2618     C
O       0.7324   0.5562    0.925     O
O       0.7336   0.0731   0.1205     O
C       0.7337   0.6226   0.9406     C
C       0.7346   0.3775   0.0127     C
H        0.742   0.7621   0.9417     H
N       0.7484   0.9922    0.555     N
N       0.7516    0.445   0.0078     N
H        0.758   0.0583   0.2379     H
C       0.7654   0.9873   0.6225     C
C       0.7663   0.0594   0.3774     C
O       0.7664   0.8795   0.9269     O
O       0.7676    0.075   0.4438     O
C       0.7682   0.7382   0.9014     C
C       0.7684   0.1995   0.6597     C
C       0.7756    0.665   0.8906     C
N       0.7822   0.3243   0.2299     N
C       0.7836    0.225     0.73     C
H       0.7844   0.2837   0.0223     H
N       0.7856   0.8522   0.8672     N
O       0.7901   0.8835   0.8169     O
O       0.7957   0.0036   0.3444     O
C       0.8002   0.7746   0.8516     C
C       0.8009     0.33   0.0188     C
H       0.8035   0.8346   0.5934     H
O        0.808   0.2872   0.2698     O
H       0.8143   0.1403   0.5695     H
C       0.8155   0.7944    0.682     C
N       0.8157   0.3797   0.7841     N
C       0.8193   0.6305   0.8327     C
O       0.8229   0.2262   0.8758     O
H       0.8264   0.9881   0.6387     H
H       0.8273   0.5821   0.8259     H
C       0.8284   0.1572   0.6176     C
O       0.8331   0.3658   0.2056     O
C       0.8417   0.4642   0.0082     C
C       0.8418   0.7439   0.7937     C
C       0.8447   0.8299   0.6301     C
O       0.8481   0.4271   0.8291     O
O       0.8498    0.358   0.7288     O
C       0.8506   0.6695   0.7857     C
H       0.8567   0.5106    0.004     H
C       0.8653   0.2089   0.7613     C
Gd     0.86875  0.98247  0.45527    Gd
C       0.8734   0.7832    0.737     C
N       0.8881   0.2277   0.8369     N
C        0.891   0.3523   0.0197     C
N       0.8997   0.6316   0.7272     N
O        0.901   0.6533   0.6715     O
O       0.9052   0.9008   0.5282     O
O       0.9063   0.1496   0.1906     O
C       0.9081   0.1418   0.6494     C
C       0.9119   0.4224   0.0142     C
C       0.9287   0.1679   0.7209     C
C       0.9329   0.8582   0.6318     C
O       0.9367   0.5775   0.7355     O
O       0.9438   0.9003   0.3673     O
O       0.9467   0.0535   0.5527     O
H       0.9474   0.1321   0.3093     H
H       0.9498   0.2559   0.0231     H
O       0.9538   0.6795   0.9799     O
O       0.9604   0.2346   0.8604     O
C       0.9609   0.8127   0.7391     C
C        0.961   0.9001   0.5785     C
O       0.9619   0.0679   0.4093     O
C       0.9656   0.3028   0.0212     C
N       0.9684   0.1948   0.2048     N
H       0.9724   0.4398   0.0146     H
C       0.9763   0.0948   0.6086     C
O        0.977   0.2453   0.1773     O
H       0.9839   0.1584    0.742     H
C       0.9923   0.8495   0.6875     C
