data_I
_chemical_name_common  '/home/zhangsd/repos/MofS-CGCNN/ML/data/TSD/clean_cifs/XEGKIF_clean'
_cell_length_a 14.39200
_cell_length_b 16.66900
_cell_length_c 19.63700
_cell_angle_alpha 105.47100
_cell_angle_beta  96.28600
_cell_angle_gamma 95.10000
_space_group_name_H-M_alt      'P 1'


loop_
_space_group_symop_operation_xyz
  'x, y, z' 

loop_
_atom_site_label
_atom_site_fract_x
_atom_site_fract_y
_atom_site_fract_z
_atom_site_type_symbol
C        0.006    0.208    0.777     C
O         0.01    0.403    0.502     O
H       0.0116   0.3023   0.5099     H
C        0.012     0.13     0.94     C
C         0.02    0.652    0.491     C
C         0.02    0.833    0.174     C
O        0.025      0.8    0.344     O
O        0.031    0.409    0.823     O
O        0.034    0.091    0.158     O
C        0.037     0.18     0.89     C
C        0.045    0.928    0.877     C
O        0.057      0.5     0.77     O
N        0.057     0.81    0.291     N
O        0.058     0.96    0.945     O
O        0.061    0.922   0.0804     O
N        0.064    0.432    0.776     N
O        0.068    0.141   0.9974     O
H       0.0744   0.9178   0.7438     H
H       0.0757   0.8692   0.1845     H
C         0.09    0.262    0.789     C
H       0.1037   0.4048   0.1197     H
C        0.117    0.378    0.728     C
O        0.117    0.857    0.623     O
C        0.119    0.235    0.905     C
H       0.1201    0.258   0.0884     H
C        0.123    0.649    0.485     C
H        0.125   0.7568   0.4621     H
C        0.126    0.297    0.732     C
Gd     0.12672  0.04672  0.05745    Gd
C        0.127    0.904    0.768     C
C        0.131    0.909    0.841     C
O        0.137     0.84    0.293     O
C        0.145    0.273    0.855     C
H        0.148   0.4636   0.6748     H
H       0.1489    0.535   0.5013     H
C        0.155    0.409    0.677     C
C        0.155    0.415    0.155     C
H       0.1565   0.2458   0.9493     H
C        0.162    0.716    0.471     C
O        0.163    0.646    0.292     O
C        0.166    0.264    0.127     C
C        0.175    0.248    0.681     C
O        0.175    0.639    0.654     O
C        0.179    0.583    0.493     C
O        0.185    0.488    0.189     O
N        0.187    0.161    0.679     N
O        0.188     0.68    0.196     O
O         0.19    0.113    0.621     O
O        0.191    0.139    0.734     O
N        0.194    0.872    0.657     N
N        0.197    0.197    0.137     N
C        0.199    0.344    0.171     C
C        0.202     0.88    0.734     C
C        0.204    0.359    0.628     C
O        0.206    0.694    0.764     O
C        0.209    0.891    0.877     C
C        0.213    0.279     0.63     C
H       0.2136   0.8972   0.9261     H
N        0.215    0.661     0.25     N
N        0.226    0.677    0.702     N
N        0.232    0.331    0.875     N
O        0.233    0.023   0.1498     O
O        0.241    0.393    0.854     O
O        0.241    0.938   0.0438     O
H       0.2452   0.2446   0.5972     H
C        0.249    0.393    0.574     C
C        0.255    0.956     0.11     C
C        0.256    0.726    0.469     C
O        0.257     0.47   0.5794     O
C         0.26    0.208    0.194     C
O        0.265    0.882    0.631     O
C        0.267    0.355    0.229     C
N         0.27    0.587    0.488     N
C        0.281    0.851    0.769     C
H        0.282   0.1604   0.2029     H
O        0.282    0.342    0.525     O
C        0.283    0.862    0.838     C
H       0.2851   0.7743   0.4613     H
H       0.2918   0.4077   0.2576     H
H       0.2948   0.5706   0.3213     H
C        0.295    0.895    0.145     C
C        0.296    0.284    0.241     C
O        0.296    0.316    0.914     O
H       0.2985   0.9636   0.2454     H
H       0.3063    0.805   0.0543     H
C        0.307    0.662    0.477     C
C        0.308    0.911    0.217     C
C        0.314    0.817    0.104     C
C        0.316    0.655    0.266     C
C        0.319    0.719    0.693     C
C        0.336    0.852    0.249     C
H       0.3395   0.2877   0.2806     H
C        0.341    0.603    0.307     C
C        0.342     0.76    0.137     C
O        0.343    0.806    0.925     O
C        0.345    0.801    0.724     C
O        0.345    0.951    0.359     O
N        0.348    0.877    0.329     N
H       0.3493   0.6084   0.6284     H
O        0.351    0.824     0.36     O
C        0.354    0.773     0.21     C
Gd      0.3617  0.45887   0.4904    Gd
N        0.362    0.841    0.879     N
O        0.364    0.618     0.11     O
N        0.364    0.679    0.089     N
C        0.371    0.665    0.648     C
H       0.3719   0.6694   0.4761     H
O        0.373    0.273    0.753     O
O         0.38    0.679     0.03     O
C        0.382    0.708    0.246     C
O        0.398    0.503   0.3899     O
O        0.401    0.332   0.4101     O
O        0.423    0.971    0.764     O
C        0.432    0.831    0.711     C
H       0.4333   0.3526   0.6791     H
C        0.436    0.599    0.328     C
O         0.44    0.854    0.865     O
N        0.448    0.249    0.753     N
O        0.451     0.44    0.594     O
O        0.452    0.061    0.248     O
H        0.454   0.1969   0.3381     H
C        0.455      0.7    0.636     C
O        0.461    0.204    0.783     O
C        0.463    0.548    0.378     C
N        0.467    0.921    0.743     N
O        0.472    0.581   0.5406     O
C        0.475    0.701    0.268     C
C        0.487    0.354    0.413     C
C        0.487    0.781    0.668     C
C        0.497    0.351    0.692     C
C        0.503    0.649    0.308     C
C        0.513    0.219    0.332     C
C        0.513    0.646    0.587     C
C        0.525    0.299    0.732     C
O        0.528    0.419   0.4594     O
N        0.533    0.079    0.257     N
C        0.537    0.452    0.622     C
O        0.539    0.796    0.217     O
C        0.545      0.3    0.364     C
H        0.546   0.8031   0.6619     H
O        0.548    0.939    0.752     O
O        0.549     0.56    0.406     O
N        0.552    0.751    0.247     N
O         0.56    0.146    0.135     O
C        0.564    0.401    0.672     C
H       0.5667   0.6474   0.3209     H
C        0.568    0.169    0.289     C
O        0.577    0.029    0.236     O
O        0.599    0.668   0.5899     O
O        0.602    0.497   0.6101     O
C        0.618    0.292    0.754     C
O         0.62    0.321     0.97     O
O        0.627    0.727    0.247     O
H       0.6281   0.3306   0.5239     H
C        0.629    0.335    0.352     C
N        0.636    0.321    0.911     N
O        0.636    0.382     0.89     O
N        0.638    0.159    0.121     N
Gd      0.6383  0.54113   0.5096    Gd
C        0.646    0.227     0.79     C
O        0.649    0.176     0.64     O
H       0.6507   0.3916   0.3716     H
N        0.652    0.123    0.671     N
O        0.655    0.049    0.641     O
C        0.655    0.199    0.276     C
O        0.657    0.194    0.075     O
C        0.658     0.24    0.863     C
C        0.659    0.397    0.693     C
H       0.6605   0.7123   0.7194     H
C        0.664    0.148    0.751     C
C        0.681    0.281    0.307     C
C        0.684    0.345    0.734     C
C        0.686    0.183    0.896     C
C        0.692    0.089    0.783     C
C        0.693    0.338    0.523     C
H       0.6937    0.195   0.9457     H
H       0.7015   0.0364   0.7546     H
O        0.704    0.684    0.086     O
C        0.704    0.716    0.759     C
C        0.705    0.105    0.855     C
H       0.7052   0.4294   0.6787     H
H       0.7082   0.5923   0.7424     H
H       0.7149   0.2257   0.5387     H
C        0.717    0.138    0.162     C
O        0.718    0.658    0.475     O
H        0.718   0.8396   0.7971     H
C        0.719    0.149    0.231     C
N         0.73    0.413    0.512     N
C        0.733    0.645    0.771     C
O        0.735    0.118    0.369     O
C         0.74    0.792    0.806     C
O        0.743     0.53   0.4206     O
C        0.744    0.274    0.531     C
C        0.745    0.044     0.89     C
C        0.751    0.607    0.426     C
H       0.7548   0.7554   0.4028     H
O        0.759    0.062   0.9562     O
O        0.759    0.607    0.146     O
O        0.767    0.977   0.8502     O
N        0.768    0.669    0.125     N
N        0.774    0.323    0.298     N
N        0.785    0.339     0.75     N
H       0.7864   0.1028   0.0739     H
C        0.787    0.721     0.37     C
C        0.791    0.109    0.123     C
O        0.794    0.306    0.236     O
C        0.796    0.641    0.372     C
C        0.798     0.12    0.266     C
C        0.801    0.656    0.829     C
N        0.803    0.803    0.863     N
N        0.806    0.128    0.343     N
O        0.809    0.861    0.266     O
O         0.81    0.887    0.379     O
O        0.812     0.32    0.804     O
N        0.813    0.839    0.321     N
O        0.815    0.512    0.811     O
C        0.821    0.417    0.507     C
O        0.825    0.361    0.346     O
C        0.825    0.752    0.319     C
C        0.834    0.736    0.873     C
O        0.837    0.354    0.708     O
C        0.838    0.284    0.529     C
H       0.8435   0.7542   0.0507     H
C        0.845    0.585    0.845     C
C        0.845    0.591    0.323     C
H       0.8511    0.465   0.4987     H
H        0.852   0.5364   0.3252     H
C        0.855    0.727    0.145     C
O        0.863     0.16    0.707     O
C        0.869    0.091    0.159     C
C        0.873    0.096    0.232     C
Gd     0.87328  0.95328  0.94255    Gd
C        0.874    0.703    0.268     C
H        0.875   0.2432   0.5379     H
C        0.877    0.351    0.515     C
H       0.8799    0.742   0.9116     H
C        0.881    0.765    0.095     C
O        0.883    0.143    0.377     O
C        0.883    0.622    0.272     C
H       0.8963   0.5952   0.8803     H
C         0.91    0.738    0.211     C
H       0.9243   0.1308   0.8155     H
H       0.9256   0.0822   0.2562     H
O        0.932    0.859   0.0026     O
N        0.936    0.568    0.224     N
O        0.939    0.078   0.9196     O
O        0.942     0.04    0.055     O
N        0.943     0.19    0.709     N
O        0.943      0.5     0.23     O
C        0.955    0.072    0.123     C
C        0.963     0.82     0.11     C
O        0.966    0.909    0.842     O
O        0.969    0.591    0.177     O
O        0.975      0.2    0.656     O
C         0.98    0.167    0.826     C
C         0.98    0.348    0.509     C
C        0.988     0.87     0.06     C
H       0.9884   0.6977   0.4901     H
O         0.99    0.597    0.498     O
C        0.994    0.792    0.223     C
