data_I
_chemical_name_common  '/home/zhangsd/repos/MofS-CGCNN/ML/data/TSD/clean_cifs/XEHSUZ_clean'
_cell_length_a  9.90470
_cell_length_b 11.40070
_cell_length_c 14.53570
_cell_angle_alpha 91.31700
_cell_angle_beta  90.00000
_cell_angle_gamma 90.00000
_space_group_name_H-M_alt      'P 1'


loop_
_space_group_symop_operation_xyz
  'x, y, z' 

loop_
_atom_site_label
_atom_site_fract_x
_atom_site_fract_y
_atom_site_fract_z
_atom_site_type_symbol
Mg         0.0      0.0      0.0    Mg
Mg         0.0      0.5      0.0    Mg
O       0.0031   0.5379  0.86259     O
O      0.00675  0.36979  0.78084     O
C      0.01712  0.48074  0.79011     C
O      0.02476  0.31631   0.9755     O
H        0.037   0.5224   0.7376     H
O      0.05814  0.80352  0.36899     O
Mg      0.0792  0.75528  0.13491    Mg
O      0.07975  0.15267   0.8028     O
O      0.09558  0.15166  0.04047     O
C       0.0959   0.2592  0.03305     C
Mg     0.11237  0.26127  0.69041    Mg
O      0.11924   0.9933  0.88521     O
H       0.1225   0.0623   0.5419     H
O      0.12971  0.39568  0.60196     O
C      0.14104  0.05715  0.81954     C
O      0.14981  0.90216  0.06729     O
H       0.1522   0.3023   0.0723     H
C      0.17057  0.81934  0.33383     C
O      0.19972    0.804  0.24879     O
O      0.20513  0.52347   0.0023     O
H       0.2083   0.0335   0.7785     H
H       0.2131   0.5052   0.5285     H
C      0.21351  0.07957  0.55002     C
C      0.22874  0.43924  0.56348     C
H       0.2397   0.8446   0.3728     H
O      0.24348  0.15984  0.61001     O
O      0.25652  0.65984  0.11001     O
H       0.2603   0.3446   0.8728     H
C      0.27126  0.93924  0.06348     C
C      0.28649  0.57957  0.05002     C
H       0.2869   0.0052   0.0285     H
H       0.2917   0.5335   0.2785     H
O      0.29487  0.02347   0.5023     O
O      0.30028    0.304  0.74879     O
C      0.32943  0.31934  0.83383     C
H       0.3478   0.8023   0.5723     H
O      0.35019  0.40216  0.56729     O
C      0.35896  0.55715  0.31954     C
O      0.37029  0.89568  0.10196     O
H       0.3775   0.5623   0.0419     H
O      0.38076   0.4933  0.38521     O
Mg     0.38763  0.76127  0.19041    Mg
C       0.4041   0.7592  0.53305     C
O      0.40442  0.65166  0.54047     O
O      0.42025  0.65267   0.3028     O
Mg      0.4208  0.25528  0.63491    Mg
O      0.44186  0.30352  0.86899     O
H        0.463   0.0224   0.2376     H
O      0.47524  0.81631   0.4755     O
C      0.48288  0.98074  0.29011     C
O      0.49325  0.86979  0.28084     O
O       0.4969   0.0379  0.36259     O
Mg         0.5      0.0      0.5    Mg
Mg         0.5      0.5      0.5    Mg
O       0.5031   0.9621  0.63741     O
O      0.50675  0.13021  0.71916     O
C      0.51712  0.01926  0.70989     C
O      0.52476  0.18369   0.5245     O
H        0.537   0.9776   0.7624     H
O      0.55814  0.69648  0.13101     O
Mg      0.5792  0.74472  0.36509    Mg
O      0.57975  0.34733   0.6972     O
O      0.59558  0.34834  0.45953     O
C       0.5959   0.2408  0.46695     C
Mg     0.61237  0.23873  0.80959    Mg
O      0.61924   0.5067  0.61479     O
H       0.6225   0.4377   0.9581     H
O      0.62971  0.10432  0.89804     O
C      0.64104  0.44285  0.68046     C
O      0.64981  0.59784  0.43271     O
H       0.6522   0.1977   0.4277     H
C      0.67057  0.68066  0.16617     C
O      0.69972    0.696  0.25121     O
O      0.70513  0.97653   0.4977     O
H       0.7083   0.4665   0.7215     H
H       0.7131   0.9948   0.9715     H
C      0.71351  0.42043  0.94998     C
C      0.72874  0.06076  0.93652     C
H       0.7397   0.6554   0.1272     H
O      0.74348  0.34016  0.88999     O
O      0.75652  0.84016  0.38999     O
H       0.7603   0.1554   0.6272     H
C      0.77126  0.56076  0.43652     C
C      0.78649  0.92043  0.44998     C
H       0.7869   0.4948   0.4715     H
H       0.7917   0.9665   0.2215     H
O      0.79487  0.47653   0.9977     O
O      0.80028    0.196  0.75121     O
C      0.82943  0.18066  0.66617     C
H       0.8478   0.6977   0.9277     H
O      0.85019  0.09784  0.93271     O
C      0.85896  0.94285  0.18046     C
O      0.87029  0.60432  0.39804     O
H       0.8775   0.9377   0.4581     H
O      0.88076   0.0067  0.11479     O
Mg     0.88763  0.73873  0.30959    Mg
C       0.9041   0.7408  0.96695     C
O      0.90442  0.84834  0.95953     O
O      0.92025  0.84733   0.1972     O
Mg      0.9208  0.24472  0.86509    Mg
O      0.94186  0.19648  0.63101     O
H        0.963   0.4776   0.2624     H
O      0.97524  0.68369   0.0245     O
C      0.98288  0.51926  0.20989     C
O      0.99325  0.63021  0.21916     O
O       0.9969   0.4621  0.13741     O
