data_I
_chemical_name_common  '/home/zhangsd/repos/MofS-CGCNN/ML/data/TSD/clean_cifs/XENMOU_SL'
_cell_length_a  6.33030
_cell_length_b 12.68190
_cell_length_c 15.68770
_cell_angle_alpha 95.71100
_cell_angle_beta  99.77300
_cell_angle_gamma 97.97300
_space_group_name_H-M_alt      'P 1'


loop_
_space_group_symop_operation_xyz
  'x, y, z' 

loop_
_atom_site_label
_atom_site_fract_x
_atom_site_fract_y
_atom_site_fract_z
_atom_site_type_symbol
Zn        -0.0      0.0      0.0    Zn
O        0.008   0.0777   0.2657     O
C       0.0153   0.5785   0.7757     C
C        0.024   0.6696   0.8326     C
C       0.0299   0.7459   0.6181     C
O       0.0472   0.8488   0.9521     O
C       0.0497   0.6687   0.5526     C
Zn      0.0586  0.96181  0.18612    Zn
H       0.0675   0.3843   0.4722     H
H       0.1027    0.254   0.3639     H
H       0.1044   0.3072   0.1583     H
H        0.118   0.4597   0.2531     H
O       0.1809   0.4538   0.7026     O
O       0.1816   0.8515    0.243     O
C       0.1852   0.9066   0.7289     C
O        0.187   0.0821    0.913     O
H        0.187  0.16135  0.91937     H
H       0.1882   0.7321   0.3565     H
C       0.2052    0.823   0.6571     C
C       0.2061    0.544   0.7617     C
C       0.2212   0.7273   0.8766     C
C       0.2251    0.827   0.9364     C
C       0.2443   0.6708   0.5246     C
O       0.2503   0.0196   0.1078     O
O       0.2614    0.589   0.4611     O
H        0.289   0.0865    0.124     H
C       0.3004   0.6965   0.3443     C
C       0.3298   0.8032   0.2201     C
O        0.354   0.9548   0.7769     O
H       0.3595   0.3165   0.7887     H
C       0.3642   0.4079   0.6909     C
C        0.367   0.6198   0.3948     C
C        0.401    0.823   0.6296     C
C       0.4019   0.7201   0.2751     C
C        0.403   0.5998   0.8053     C
O       0.4089   0.8848   0.9675     O
C       0.4107   0.6918   0.8626     C
O       0.4201   0.8184   0.1558     O
C       0.4203   0.7468   0.5624     C
H       0.4209   0.4859    0.588     H
C       0.4285   0.3323   0.7427     C
H       0.4485   0.2527   0.4568     H
H       0.4559   0.2703   0.1083     H
C       0.4649    0.434   0.6219     C
H        0.469    0.424   0.2037     H
H       0.4798    0.126   0.3439     H
Zn     0.48003  0.04617  0.89954    Zn
Zn     0.51997  0.95383  0.10046    Zn
H       0.5202    0.874   0.6561     H
H        0.531    0.576   0.7963     H
C       0.5351    0.566   0.3781     C
H       0.5441   0.7297   0.8917     H
H       0.5515   0.7473   0.5432     H
C       0.5715   0.6677   0.2573     C
H       0.5791   0.5141    0.412     H
C       0.5797   0.2532   0.4376     C
O       0.5799   0.1816   0.8442     O
C       0.5893   0.3082   0.1374     C
O       0.5911   0.1152   0.0325     O
C        0.597   0.4002   0.1947     C
C       0.5981   0.2799   0.7249     C
C        0.599    0.177   0.3704     C
C        0.633   0.3802   0.6052     C
C       0.6358   0.5921   0.3091     C
H       0.6405   0.6835   0.2113     H
O        0.646   0.0452   0.2231     O
C       0.6702   0.1968   0.7799     C
C       0.6996   0.3035   0.6557     C
H        0.711   0.9135    0.876     H
O       0.7386    0.411   0.5389     O
O       0.7497   0.9804   0.8922     O
C       0.7557   0.3292   0.4754     C
C       0.7749    0.173   0.0636     C
C       0.7788   0.2727   0.1234     C
C       0.7939    0.456   0.2383     C
C       0.7948    0.177   0.3429     C
H       0.8118   0.2679   0.6435     H
H        0.813  0.83865  0.08063     H
O        0.813   0.9179    0.087     O
C       0.8148   0.0934   0.2711     C
O       0.8184   0.1485    0.757     O
O       0.8191   0.5462   0.2974     O
H        0.882   0.5403   0.7469     H
H       0.8956   0.6928   0.8417     H
H       0.8973    0.746   0.6361     H
H       0.9325   0.6157   0.5278     H
Zn      0.9414  0.03819  0.81388    Zn
C       0.9503   0.3313   0.4474     C
O       0.9528   0.1512   0.0479     O
C       0.9701   0.2541   0.3819     C
C        0.976   0.3304   0.1674     C
C       0.9847   0.4215   0.2243     C
O        0.992   0.9223   0.7343     O
