data_I
_chemical_name_common  '/home/zhangsd/repos/MofS-CGCNN/ML/data/TSD/clean_cifs/XEQGAC_clean'
_cell_length_a  7.04650
_cell_length_b 15.64600
_cell_length_c 17.39600
_cell_angle_alpha 90.00000
_cell_angle_beta  90.00000
_cell_angle_gamma 90.00000
_space_group_name_H-M_alt      'P 1'


loop_
_space_group_symop_operation_xyz
  'x, y, z' 

loop_
_atom_site_label
_atom_site_fract_x
_atom_site_fract_y
_atom_site_fract_z
_atom_site_type_symbol
V          0.0      0.0      0.5     V
V          0.0      0.5      0.0     V
H       0.0468   0.2424   0.4275     H
H       0.0468   0.2576   0.0725     H
O       0.0657   0.6043   0.0583     O
O       0.0657   0.8957   0.4417     O
O       0.0902   0.0711   0.4126     O
O       0.0902   0.4289   0.0874     O
O       0.1406   0.6401   0.4608     O
O       0.1406   0.8599   0.0392     O
C       0.1794   0.2338   0.4403     C
C       0.1794   0.2662   0.0597     C
H       0.1883   0.2302   0.4958     H
H       0.1883   0.2698   0.0042     H
O       0.2009   0.6751   0.3417     O
O       0.2009   0.8249   0.1583     O
O       0.2076   0.6463   0.1849     O
O       0.2076   0.8537   0.3151     O
C        0.211   0.6884   0.4143     C
C        0.211   0.8116   0.0857     C
P       0.2467  0.63322  0.09943     P
P       0.2467  0.86678  0.40057     P
V       0.2469     0.25     0.25     V
O         0.25      0.0   0.5418     O
O         0.25      0.5   0.9582     O
V       0.2531     0.75     0.25     V
P       0.2533  0.13322  0.40057     P
P       0.2533  0.36678  0.09943     P
C        0.289   0.1884   0.0857     C
C        0.289   0.3116   0.4143     C
O       0.2924   0.1463   0.3151     O
O       0.2924   0.3537   0.1849     O
O       0.2991   0.1751   0.1583     O
O       0.2991   0.3249   0.3417     O
H       0.3117   0.7302   0.0042     H
H       0.3117   0.7698   0.4958     H
C       0.3206   0.7338   0.0597     C
C       0.3206   0.7662   0.4403     C
O       0.3594   0.1401   0.0392     O
O       0.3594   0.3599   0.4608     O
O       0.4098   0.5711   0.0874     O
O       0.4098   0.9289   0.4126     O
O       0.4343   0.1043   0.4417     O
O       0.4343   0.3957   0.0583     O
H       0.4532   0.7424   0.0725     H
H       0.4532   0.7576   0.4275     H
V          0.5      0.0      0.5     V
V          0.5      0.5      0.0     V
H       0.5468   0.2424   0.5725     H
H       0.5468   0.2576   0.9275     H
O       0.5657   0.6043   0.9417     O
O       0.5657   0.8957   0.5583     O
O       0.5902   0.0711   0.5874     O
O       0.5902   0.4289   0.9126     O
O       0.6406   0.6401   0.5392     O
O       0.6406   0.8599   0.9608     O
C       0.6794   0.2338   0.5597     C
C       0.6794   0.2662   0.9403     C
H       0.6883   0.2302   0.5042     H
H       0.6883   0.2698   0.9958     H
O       0.7009   0.6751   0.6583     O
O       0.7009   0.8249   0.8417     O
O       0.7076   0.6463   0.8151     O
O       0.7076   0.8537   0.6849     O
C        0.711   0.6884   0.5857     C
C        0.711   0.8116   0.9143     C
P       0.7467  0.63322  0.90057     P
P       0.7467  0.86678  0.59943     P
V       0.7469     0.25     0.75     V
O         0.75      0.0   0.4582     O
O         0.75      0.5   0.0418     O
V       0.7531     0.75     0.75     V
P       0.7533  0.13322  0.59943     P
P       0.7533  0.36678  0.90057     P
C        0.789   0.1884   0.9143     C
C        0.789   0.3116   0.5857     C
O       0.7924   0.1463   0.6849     O
O       0.7924   0.3537   0.8151     O
O       0.7991   0.1751   0.8417     O
O       0.7991   0.3249   0.6583     O
H       0.8117   0.7302   0.9958     H
H       0.8117   0.7698   0.5042     H
C       0.8206   0.7338   0.9403     C
C       0.8206   0.7662   0.5597     C
O       0.8594   0.1401   0.9608     O
O       0.8594   0.3599   0.5392     O
O       0.9098   0.5711   0.9126     O
O       0.9098   0.9289   0.5874     O
O       0.9343   0.1043   0.5583     O
O       0.9343   0.3957   0.9417     O
H       0.9532   0.7424   0.9275     H
H       0.9532   0.7576   0.5725     H
