data_I
_chemical_name_common  '/home/zhangsd/repos/MofS-CGCNN/ML/data/TSD/clean_cifs/XEVVUQ_clean'
_cell_length_a  8.47380
_cell_length_b 16.68530
_cell_length_c 16.21480
_cell_angle_alpha 90.00000
_cell_angle_beta  95.91900
_cell_angle_gamma 90.00000
_space_group_name_H-M_alt      'P 1'


loop_
_space_group_symop_operation_xyz
  'x, y, z' 

loop_
_atom_site_label
_atom_site_fract_x
_atom_site_fract_y
_atom_site_fract_z
_atom_site_type_symbol
Fe      0.0094  0.35135  0.07818    Fe
P      0.01817  0.28537  0.89068     P
Fe     0.02136  0.12854  0.77519    Fe
O       0.0254  0.80031  0.13505     O
O       0.0261  0.65635  0.17964     O
Fe     0.04622  0.38793  0.71993    Fe
O        0.061  0.69237  0.03258     O
O        0.074  0.81675  0.32607     O
O       0.0867  0.40163  0.18311     O
O       0.0876  0.51615  0.28354     O
C       0.0882   0.4953  0.99265     C
O       0.0954  0.04032  0.69836     O
H       0.0962   0.7533   0.7654     H
O       0.1244  0.66912  0.35082     O
H       0.1333   0.2879   0.9048     H
O       0.1471  0.05306  0.86191     O
O       0.1472   0.5523  0.95597     O
O       0.1564   0.4325  0.01888     O
O       0.1628  0.45961  0.63569     O
O       0.1684  0.69757  0.87452     O
O       0.1762   0.2694  0.09037     O
O       0.1763   0.9297  0.21327     O
P      0.18635  0.46512  0.23082     P
P      0.19845  0.75076  0.33747     P
P       0.1994  0.73584  0.79216     P
C       0.1995   0.9947   0.7338     C
O       0.2016  0.31037  0.69233     O
O       0.2224  0.44349  0.80046     O
H       0.2304   0.5003   0.1906     H
C        0.232   0.0029   0.8286     C
O       0.2328  0.17864  0.76728     O
H       0.2481   0.2479   0.2133     H
H       0.2519   0.7479   0.2867     H
O       0.2672  0.67864  0.73272     O
C        0.268   0.5029   0.6714     C
H       0.2696   0.0003   0.3094     H
O       0.2776  0.94349  0.69954     O
O       0.2984  0.81037  0.80767     O
C       0.3005   0.4947   0.7662     C
P       0.3006  0.23584  0.70784     P
P      0.30155  0.25076  0.16253     P
P      0.31365  0.96512  0.26918     P
O       0.3237   0.4297  0.28673     O
O       0.3238   0.7694  0.40963     O
O       0.3316  0.19757  0.62548     O
O       0.3372  0.95961  0.86431     O
O       0.3436   0.9325  0.48112     O
O       0.3528   0.0523  0.54403     O
O       0.3529  0.55306  0.63809     O
H       0.3667   0.7879   0.5952     H
O       0.3756  0.16912  0.14918     O
H       0.4038   0.2533   0.7346     H
O       0.4046  0.54032  0.80164     O
C       0.4118   0.9953  0.50735     C
O       0.4124  0.01615  0.21646     O
O       0.4133  0.90163  0.31689     O
O        0.426  0.31675  0.17393     O
O        0.439  0.19237  0.46742     O
Fe     0.45378  0.88793  0.78007    Fe
O       0.4739  0.15635  0.32036     O
O       0.4746  0.30031  0.36495     O
Fe     0.47864  0.62854  0.72481    Fe
P      0.48183  0.78537  0.60932     P
Fe      0.4906  0.85135  0.42182    Fe
Fe      0.5094  0.14865  0.57818    Fe
P      0.51817  0.21463  0.39068     P
Fe     0.52136  0.37146  0.27519    Fe
O       0.5254  0.69969  0.63505     O
O       0.5261  0.84365  0.67964     O
Fe     0.54622  0.11207  0.21993    Fe
O        0.561  0.80763  0.53258     O
O        0.574  0.68325  0.82607     O
O       0.5867  0.09837  0.68311     O
O       0.5876  0.98385  0.78354     O
C       0.5882   0.0047  0.49265     C
O       0.5954  0.45968  0.19836     O
H       0.5962   0.7467   0.2654     H
O       0.6244  0.83088  0.85082     O
H       0.6333   0.2121   0.4048     H
O       0.6471  0.44694  0.36191     O
O       0.6472   0.9477  0.45597     O
O       0.6564   0.0675  0.51888     O
O       0.6628  0.04039  0.13569     O
O       0.6684  0.80243  0.37452     O
O       0.6762   0.2306  0.59037     O
O       0.6763   0.5703  0.71327     O
P      0.68635  0.03488  0.73082     P
P      0.69845  0.74924  0.83747     P
P       0.6994  0.76416  0.29216     P
C       0.6995   0.5053   0.2338     C
O       0.7016  0.18963  0.19233     O
O       0.7224  0.05651  0.30046     O
H       0.7304   0.9997   0.6906     H
C        0.732   0.4971   0.3286     C
O       0.7328  0.32136  0.26728     O
H       0.7481   0.2521   0.7133     H
H       0.7519   0.7521   0.7867     H
O       0.7672  0.82136  0.23272     O
C        0.768   0.9971   0.1714     C
H       0.7696   0.4997   0.8094     H
O       0.7776  0.55651  0.19954     O
O       0.7984  0.68963  0.30767     O
C       0.8005   0.0053   0.2662     C
P       0.8006  0.26416  0.20784     P
P      0.80155  0.24924  0.66253     P
P      0.81365  0.53488  0.76918     P
O       0.8237   0.0703  0.78673     O
O       0.8238   0.7306  0.90963     O
O       0.8316  0.30243  0.12548     O
O       0.8372  0.54039  0.36431     O
O       0.8436   0.5675  0.98112     O
O       0.8528   0.4477  0.04403     O
O       0.8529  0.94694  0.13809     O
H       0.8667   0.7121   0.0952     H
O       0.8756  0.33088  0.64918     O
H       0.9038   0.2467   0.2346     H
O       0.9046  0.95968  0.30164     O
C       0.9118   0.5047  0.00735     C
O       0.9124  0.48385  0.71646     O
O       0.9133  0.59837  0.81689     O
O        0.926  0.18325  0.67393     O
O        0.939  0.30763  0.96742     O
Fe     0.95378  0.61207  0.28007    Fe
O       0.9739  0.34365  0.82036     O
O       0.9746  0.19969  0.86495     O
Fe     0.97864  0.87146  0.22481    Fe
P      0.98183  0.71463  0.10932     P
Fe      0.9906  0.64865  0.92182    Fe
