data_I
_chemical_name_common  '/home/zhangsd/repos/MofS-CGCNN/ML/data/TSD/clean_cifs/XEWDUA_clean'
_cell_length_a  8.84920
_cell_length_b 17.24500
_cell_length_c 17.79100
_cell_angle_alpha 115.27500
_cell_angle_beta  95.66200
_cell_angle_gamma 103.86500
_space_group_name_H-M_alt      'P 1'


loop_
_space_group_symop_operation_xyz
  'x, y, z' 

loop_
_atom_site_label
_atom_site_fract_x
_atom_site_fract_y
_atom_site_fract_z
_atom_site_type_symbol
Cu         0.0      0.5      0.5    Cu
C       0.0092   0.5535    0.683     C
H       0.0121   0.4656   0.2741     H
O       0.0149    0.096   0.3979     O
O       0.0185   0.8352   0.9041     O
H       0.0191   0.6347   0.3841     H
N       0.0341   0.5282   0.4015     N
H       0.0477   0.9153   0.4815     H
C       0.0499   0.4074   0.6017     C
H         0.06    0.411   0.3184     H
O       0.0857   0.3701   0.4598     O
C       0.0974   0.3545   0.5213     C
H          0.1   0.8691   0.3494     H
C       0.1024    0.877   0.6122     C
O       0.1033   0.8289   0.6475     O
H       0.1092   0.9588   0.8678     H
H       0.1279   0.0171   0.9659     H
O       0.1434   0.0802   0.2396     O
H       0.1436   0.0013    0.476     H
H       0.1454   0.4412   0.6475     H
C       0.1505   0.9463   0.4769     C
O       0.1519   0.2908   0.5207     O
C       0.1553   0.8947   0.9357     C
H       0.1636   0.6924   0.6504     H
C       0.1721   0.9768   0.9238     C
C       0.1799   0.6131   0.7101     C
Gd     0.18578  0.21965  0.37528    Gd
C       0.1872   0.8887   0.3975     C
H       0.1942   0.0557   0.6454     H
H       0.1972   0.6605    0.768     H
H       0.2024   0.8356   0.3995     H
C       0.2092   0.5722   0.4211     C
H       0.2099   0.6848   0.5283     H
H       0.2195   0.0161    0.356     H
H       0.2244   0.0445    0.097     H
N       0.2324   0.5916   0.5658     N
H       0.2335   0.6024   0.3865     H
C       0.2339   0.6581    0.654     C
H        0.242   0.8422   0.5255     H
H       0.2457   0.1491   0.0624     H
C       0.2481   0.8975   0.5753     C
H       0.2487   0.5774   0.7116     H
H       0.2639   0.5271   0.4079     H
C       0.2656   0.6402   0.5149     C
N       0.2726   0.9691   0.5501     N
O        0.274   0.8895   0.9758     O
C       0.2758   0.1094   0.2269     C
H       0.2838   0.1342   0.9294     H
C       0.2898   0.0588    0.623     C
H       0.2904   0.9911   0.8054     H
H       0.3014   0.8607   0.8148     H
H       0.3026   0.1039   0.6032     H
H       0.3057   0.9955   0.1368     H
H        0.307   0.8579    0.266     H
C       0.3103   0.0543   0.1415     C
H       0.3201   0.5086   0.5975     H
C       0.3316   0.0263   0.3769     C
H       0.3412      0.7   0.6813     H
N       0.3419    0.028   0.9314     N
H        0.343   0.9121   0.6173     H
N       0.3455   0.9456   0.3875     N
C       0.3511   0.1768   0.0576     C
H       0.3533   0.5038   0.5111     H
C       0.3535   0.5448   0.5691     C
H       0.3599   0.2387   0.0712     H
C       0.3636   0.1272   0.9654     C
O        0.367   0.1834   0.4469     O
C       0.3772   0.9944   0.8457     C
O        0.378   0.1826   0.2839     O
H       0.3793   0.6711   0.5283     H
H       0.3804   0.8274   0.3285     H
C       0.3861   0.8787    0.318     C
H       0.3866    0.029   0.3331     H
C       0.3953   0.1156    0.454     C
C       0.3978    0.903   0.8162     C
O       0.3995   0.3511   0.4212     O
O       0.4136   0.3903   0.3176     O
H       0.4167   0.8811   0.7591     H
H       0.4198    0.799   0.8841     H
H       0.4318   0.1345   0.7488     H
H       0.4378   0.0355   0.7064     H
C       0.4423   0.0872   0.6967     C
N       0.4626   0.0904   0.1232     N
H       0.4678   0.1561   0.9603     H
H       0.4686   0.2201     0.18     H
O       0.4716   0.1235   0.5139     O
C       0.4734   0.3926   0.3847     C
H       0.4741   0.0364   0.8473     H
C       0.4751   0.1779   0.1239     C
Cu         0.5      0.0      0.0    Cu
Cu         0.5      0.0      0.5    Cu
C       0.5249   0.8221   0.8761     C
H       0.5259   0.9636   0.1527     H
C       0.5266   0.6074   0.6153     C
O       0.5284   0.8765   0.4861     O
H       0.5314   0.7799     0.82     H
H       0.5322   0.8439   0.0397     H
N       0.5374   0.9096   0.8768     N
C       0.5577   0.9128   0.3033     C
H       0.5622   0.9645   0.2936     H
H       0.5682   0.8655   0.2512     H
H       0.5802    0.201   0.1159     H
H       0.5833   0.1189   0.2409     H
O       0.5864   0.6097   0.6824     O
O       0.6005   0.6489   0.5788     O
C       0.6022    0.097   0.1838     C
C       0.6047   0.8844    0.546     C
H       0.6134    0.971   0.6669     H
C       0.6139   0.1213    0.682     C
H       0.6196   0.1726   0.6715     H
H       0.6207   0.3289   0.4717     H
O        0.622   0.8174   0.7161     O
C       0.6228   0.0056   0.1543     C
O        0.633   0.8166   0.5531     O
C       0.6364   0.8728   0.0346     C
H       0.6401   0.7613   0.9288     H
C       0.6465   0.4552   0.4309     C
H       0.6467   0.4962   0.4889     H
C       0.6489   0.8232   0.9424     C
N       0.6545   0.0544   0.6125     N
H        0.657   0.0879   0.3827     H
N       0.6581    0.972   0.0686     N
H       0.6588      0.3   0.3187     H
C       0.6684   0.9737   0.6231     C
H       0.6799   0.4914   0.4025     H
C       0.6897   0.9457   0.8585     C
H        0.693   0.1421    0.734     H
H       0.6943   0.0045   0.8632     H
H       0.6974   0.8961   0.3968     H
H       0.6986   0.1393   0.1852     H
H       0.7096   0.0089   0.1946     H
C       0.7102   0.9412    0.377     C
H       0.7162   0.8658   0.0706     H
C       0.7242   0.8906   0.7731     C
O        0.726   0.1105   0.0242     O
N       0.7274   0.0309   0.4499     N
C       0.7344   0.3598   0.4851     C
H       0.7361   0.4729   0.5921     H
H       0.7513   0.4226   0.2884     H
C       0.7519   0.1025   0.4247     C
H       0.7543   0.8509   0.9376     H
H        0.758   0.1578   0.4745     H
C       0.7661   0.3419    0.346     C
H       0.7665   0.3976   0.6135     H
N       0.7676   0.4084   0.4342     N
H       0.7756   0.9555    0.903     H
H       0.7805   0.9839    0.644     H
H       0.7901   0.3152   0.4717     H
C       0.7908   0.4278   0.5789     C
H       0.7976   0.1644   0.6005     H
H       0.8028   0.3395    0.232     H
H       0.8058   0.9443   0.3546     H
C       0.8128   0.1113   0.6025     C
Gd     0.81422  0.78035  0.62472    Gd
C       0.8201   0.3869   0.2899     C
C       0.8279   0.0232   0.0762     C
H       0.8364   0.3076   0.3496     H
C       0.8447   0.1053   0.0643     C
O       0.8481   0.7092   0.4793     O
C       0.8495   0.0537   0.5231     C
H       0.8546   0.5588   0.3525     H
H       0.8564   0.9987    0.524     H
O       0.8566   0.9198   0.7604     O
H       0.8721   0.9829   0.0341     H
H       0.8908   0.0412   0.1322     H
O       0.8967   0.1711   0.3525     O
C       0.8976    0.123   0.3878     C
H          0.9   0.1309   0.6506     H
C       0.9026   0.6455   0.4787     C
O       0.9143   0.6299   0.5402     O
H         0.94    0.589   0.6816     H
C       0.9501   0.5926   0.3983     C
H       0.9523   0.0847   0.5185     H
N       0.9659   0.4718   0.5985     N
H       0.9809   0.3653   0.6159     H
O       0.9815   0.1648   0.0959     O
O       0.9851    0.904   0.6021     O
H       0.9879   0.5344   0.7259     H
C       0.9908   0.4465    0.317     C
