data_I
_chemical_name_common  '/home/zhangsd/repos/MofS-CGCNN/ML/data/TSD/clean_cifs/XICNOO02_clean'
_cell_length_a 27.66200
_cell_length_b 27.66200
_cell_length_c 27.66200
_cell_angle_alpha 60.00000
_cell_angle_beta  60.00000
_cell_angle_gamma 60.00000
_space_group_name_H-M_alt      'P 1'


loop_
_space_group_symop_operation_xyz
  'x, y, z' 

loop_
_atom_site_label
_atom_site_fract_x
_atom_site_fract_y
_atom_site_fract_z
_atom_site_type_symbol
Zr         0.0      0.0  0.41089    Zr
Zr         0.0      0.0  0.58911    Zr
Zr         0.0  0.41089  0.58911    Zr
Zr         0.0  0.58911      0.0    Zr
Zr         0.0  0.58911  0.41089    Zr
H       0.0079   0.3441   0.7801     H
H       0.0079   0.3441   0.8679     H
H       0.0079   0.7801   0.3441     H
H       0.0079   0.7801   0.8679     H
H       0.0079   0.8679   0.3441     H
H       0.0079   0.8679   0.7801     H
C      0.01259  0.37461  0.78119     C
C      0.01259  0.37461  0.83161     C
C      0.01259  0.78119  0.37461     C
C      0.01259  0.78119  0.83161     C
C      0.01259  0.83161  0.37461     C
C      0.01259  0.83161  0.78119     C
O      0.01427  0.40373  0.66471     O
O      0.01427  0.40373  0.91729     O
O      0.01427  0.66471  0.40373     O
O      0.01427  0.66471  0.91729     O
O      0.01427  0.91729  0.40373     O
O      0.01427  0.91729  0.66471     O
Zr     0.01847  0.54525  0.54525    Zr
Zr     0.01847  0.54525  0.89103    Zr
Zr     0.01847  0.89103  0.54525    Zr
C       0.0201  0.42402  0.73358     C
C       0.0201  0.42402   0.8223     C
C       0.0201  0.73358  0.42402     C
C       0.0201  0.73358   0.8223     C
C       0.0201   0.8223  0.42402     C
C       0.0201   0.8223  0.73358     C
C      0.02021  0.44045  0.67375     C
C      0.02021  0.44045  0.86559     C
C      0.02021  0.67375  0.44045     C
C      0.02021  0.67375  0.86559     C
C      0.02021  0.86559  0.44045     C
C      0.02021  0.86559  0.67375     C
O      0.02466   0.4903  0.63782     O
O      0.02466   0.4903  0.84722     O
O      0.02466  0.63782   0.4903     O
O      0.02466  0.63782  0.84722     O
O      0.02466  0.84722   0.4903     O
O      0.02466  0.84722  0.63782     O
S      0.02614  0.47142  0.75122     S
S      0.02614  0.75122  0.47142     S
S      0.02614  0.75122  0.75122     S
O       0.0448   0.0448  0.41186     O
O       0.0448   0.0448  0.49854     O
O       0.0448  0.41186   0.0448     O
O       0.0448  0.41186  0.49854     O
O       0.0448  0.49854   0.0448     O
O       0.0448  0.49854  0.41186     O
O      0.06374  0.45654  0.54346     O
O      0.06374  0.45654  0.93626     O
O      0.06374  0.54346  0.45654     O
O      0.06374  0.54346  0.93626     O
O      0.06374  0.93626  0.45654     O
O      0.06374  0.93626  0.54346     O
O      0.08271  0.33529  0.59627     O
O      0.08271  0.33529  0.98573     O
O      0.08271  0.59627  0.33529     O
O      0.08271  0.59627  0.98573     O
O      0.08271  0.98573  0.33529     O
O      0.08271  0.98573  0.59627     O
Zr     0.10898  0.45475  0.45475    Zr
Zr     0.10898  0.45475  0.98152    Zr
Zr     0.10898  0.98152  0.45475    Zr
H       0.1321   0.2199   0.6559     H
H       0.1321   0.2199   0.9921     H
H       0.1321   0.6559   0.2199     H
H       0.1321   0.6559   0.9921     H
H       0.1321   0.9921   0.2199     H
H       0.1321   0.9921   0.6559     H
C      0.13441  0.32625  0.55955     C
C      0.13441  0.32625  0.97979     C
C      0.13441  0.55955  0.32625     C
C      0.13441  0.55955  0.97979     C
C      0.13441  0.97979  0.32625     C
C      0.13441  0.97979  0.55955     C
O      0.15278  0.36218   0.5097     O
O      0.15278  0.36218  0.97534     O
O      0.15278   0.5097  0.36218     O
O      0.15278   0.5097  0.97534     O
O      0.15278  0.97534  0.36218     O
O      0.15278  0.97534   0.5097     O
C      0.16839  0.21881  0.62539     C
C      0.16839  0.21881  0.98741     C
C      0.16839  0.62539  0.21881     C
C      0.16839  0.62539  0.98741     C
C      0.16839  0.98741  0.21881     C
C      0.16839  0.98741  0.62539     C
C       0.1777  0.26642  0.57598     C
C       0.1777  0.26642   0.9799     C
C       0.1777  0.57598  0.26642     C
C       0.1777  0.57598   0.9799     C
C       0.1777   0.9799  0.26642     C
C       0.1777   0.9799  0.57598     C
C      0.21881  0.16839  0.62539     C
C      0.21881  0.16839  0.98741     C
C      0.21881  0.62539  0.16839     C
C      0.21881  0.62539  0.98741     C
C      0.21881  0.98741  0.16839     C
C      0.21881  0.98741  0.62539     C
H       0.2199   0.1321   0.6559     H
H       0.2199   0.1321   0.9921     H
H       0.2199   0.6559   0.1321     H
H       0.2199   0.6559   0.9921     H
H       0.2199   0.9921   0.1321     H
H       0.2199   0.9921   0.6559     H
S      0.24878  0.24878  0.52858     S
S      0.24878  0.24878  0.97386     S
S      0.24878  0.52858  0.24878     S
S      0.24878  0.52858  0.97386     S
S      0.24878  0.97386  0.24878     S
S      0.24878  0.97386  0.52858     S
C      0.26642   0.1777  0.57598     C
C      0.26642   0.1777   0.9799     C
C      0.26642  0.57598   0.1777     C
C      0.26642  0.57598   0.9799     C
C      0.26642   0.9799   0.1777     C
C      0.26642   0.9799  0.57598     C
C      0.32625  0.13441  0.55955     C
C      0.32625  0.13441  0.97979     C
C      0.32625  0.55955  0.13441     C
C      0.32625  0.55955  0.97979     C
C      0.32625  0.97979  0.13441     C
C      0.32625  0.97979  0.55955     C
O      0.33529  0.08271  0.59627     O
O      0.33529  0.08271  0.98573     O
O      0.33529  0.59627  0.08271     O
O      0.33529  0.59627  0.98573     O
O      0.33529  0.98573  0.08271     O
O      0.33529  0.98573  0.59627     O
H       0.3441   0.0079   0.7801     H
H       0.3441   0.0079   0.8679     H
H       0.3441   0.7801   0.0079     H
H       0.3441   0.7801   0.8679     H
H       0.3441   0.8679   0.0079     H
H       0.3441   0.8679   0.7801     H
O      0.36218  0.15278   0.5097     O
O      0.36218  0.15278  0.97534     O
O      0.36218   0.5097  0.15278     O
O      0.36218   0.5097  0.97534     O
O      0.36218  0.97534  0.15278     O
O      0.36218  0.97534   0.5097     O
C      0.37461  0.01259  0.78119     C
C      0.37461  0.01259  0.83161     C
C      0.37461  0.78119  0.01259     C
C      0.37461  0.78119  0.83161     C
C      0.37461  0.83161  0.01259     C
C      0.37461  0.83161  0.78119     C
O      0.40373  0.01427  0.66471     O
O      0.40373  0.01427  0.91729     O
O      0.40373  0.66471  0.01427     O
O      0.40373  0.66471  0.91729     O
O      0.40373  0.91729  0.01427     O
O      0.40373  0.91729  0.66471     O
Zr     0.41089      0.0     -0.0    Zr
Zr     0.41089      0.0  0.58911    Zr
Zr     0.41089  0.58911     -0.0    Zr
O      0.41186   0.0448   0.0448     O
O      0.41186   0.0448  0.49854     O
O      0.41186  0.49854   0.0448     O
C      0.42402   0.0201  0.73358     C
C      0.42402   0.0201   0.8223     C
C      0.42402  0.73358   0.0201     C
C      0.42402  0.73358   0.8223     C
C      0.42402   0.8223   0.0201     C
C      0.42402   0.8223  0.73358     C
C      0.44045  0.02021  0.67375     C
C      0.44045  0.02021  0.86559     C
C      0.44045  0.67375  0.02021     C
C      0.44045  0.67375  0.86559     C
C      0.44045  0.86559  0.02021     C
C      0.44045  0.86559  0.67375     C
Zr     0.45476  0.10897  0.45475    Zr
Zr     0.45476  0.10897  0.98152    Zr
Zr     0.45476  0.45475  0.10897    Zr
Zr     0.45476  0.45475  0.98152    Zr
Zr     0.45476  0.98152  0.10897    Zr
Zr     0.45476  0.98152  0.45475    Zr
O      0.45654  0.06374  0.54346     O
O      0.45654  0.06374  0.93626     O
O      0.45654  0.54346  0.06374     O
O      0.45654  0.54346  0.93626     O
O      0.45654  0.93626  0.06374     O
O      0.45654  0.93626  0.54346     O
S      0.47142  0.02614  0.75122     S
S      0.47142  0.75122  0.02614     S
S      0.47142  0.75122  0.75122     S
O       0.4903  0.02466  0.63782     O
O       0.4903  0.02466  0.84722     O
O       0.4903  0.63782  0.02466     O
O       0.4903  0.63782  0.84722     O
O       0.4903  0.84722  0.02466     O
O       0.4903  0.84722  0.63782     O
O      0.49854   0.0448   0.0448     O
O      0.49854   0.0448  0.41186     O
O      0.49854  0.41186   0.0448     O
O      0.50146  0.58814   0.9552     O
O      0.50146   0.9552  0.58814     O
O      0.50146   0.9552   0.9552     O
O       0.5097  0.15278  0.36218     O
O       0.5097  0.15278  0.97534     O
O       0.5097  0.36218  0.15278     O
O       0.5097  0.36218  0.97534     O
O       0.5097  0.97534  0.15278     O
O       0.5097  0.97534  0.36218     O
S      0.52858  0.24878  0.24878     S
S      0.52858  0.24878  0.97386     S
S      0.52858  0.97386  0.24878     S
O      0.54346  0.06374  0.45654     O
O      0.54346  0.06374  0.93626     O
O      0.54346  0.45654  0.06374     O
O      0.54346  0.45654  0.93626     O
O      0.54346  0.93626  0.06374     O
O      0.54346  0.93626  0.45654     O
Zr     0.54524  0.01848  0.54525    Zr
Zr     0.54524  0.01848  0.89103    Zr
Zr     0.54524  0.54525  0.01848    Zr
Zr     0.54524  0.54525  0.89103    Zr
Zr     0.54524  0.89103  0.01848    Zr
Zr     0.54524  0.89103  0.54525    Zr
C      0.55955  0.13441  0.32625     C
C      0.55955  0.13441  0.97979     C
C      0.55955  0.32625  0.13441     C
C      0.55955  0.32625  0.97979     C
C      0.55955  0.97979  0.13441     C
C      0.55955  0.97979  0.32625     C
C      0.57598   0.1777  0.26642     C
C      0.57598   0.1777   0.9799     C
C      0.57598  0.26642   0.1777     C
C      0.57598  0.26642   0.9799     C
C      0.57598   0.9799   0.1777     C
C      0.57598   0.9799  0.26642     C
O      0.58814  0.50146   0.9552     O
O      0.58814   0.9552  0.50146     O
O      0.58814   0.9552   0.9552     O
Zr     0.58911     -0.0      0.0    Zr
Zr     0.58911     -0.0  0.41089    Zr
Zr     0.58911  0.41089     -0.0    Zr
O      0.59627  0.08271  0.33529     O
O      0.59627  0.08271  0.98573     O
O      0.59627  0.33529  0.08271     O
O      0.59627  0.33529  0.98573     O
O      0.59627  0.98573  0.08271     O
O      0.59627  0.98573  0.33529     O
C      0.62539  0.16839  0.21881     C
C      0.62539  0.16839  0.98741     C
C      0.62539  0.21881  0.16839     C
C      0.62539  0.21881  0.98741     C
C      0.62539  0.98741  0.16839     C
C      0.62539  0.98741  0.21881     C
O      0.63782  0.02466   0.4903     O
O      0.63782  0.02466  0.84722     O
O      0.63782   0.4903  0.02466     O
O      0.63782   0.4903  0.84722     O
O      0.63782  0.84722  0.02466     O
O      0.63782  0.84722   0.4903     O
H       0.6559   0.1321   0.2199     H
H       0.6559   0.1321   0.9921     H
H       0.6559   0.2199   0.1321     H
H       0.6559   0.2199   0.9921     H
H       0.6559   0.9921   0.1321     H
H       0.6559   0.9921   0.2199     H
O      0.66471  0.01427  0.40373     O
O      0.66471  0.01427  0.91729     O
O      0.66471  0.40373  0.01427     O
O      0.66471  0.40373  0.91729     O
O      0.66471  0.91729  0.01427     O
O      0.66471  0.91729  0.40373     O
C      0.67375  0.02021  0.44045     C
C      0.67375  0.02021  0.86559     C
C      0.67375  0.44045  0.02021     C
C      0.67375  0.44045  0.86559     C
C      0.67375  0.86559  0.02021     C
C      0.67375  0.86559  0.44045     C
C      0.73358   0.0201  0.42402     C
C      0.73358   0.0201   0.8223     C
C      0.73358  0.42402   0.0201     C
C      0.73358  0.42402   0.8223     C
C      0.73358   0.8223   0.0201     C
C      0.73358   0.8223  0.42402     C
S      0.75122  0.02614  0.47142     S
S      0.75122  0.02614  0.75122     S
S      0.75122  0.47142  0.02614     S
S      0.75122  0.47142  0.75122     S
S      0.75122  0.75122  0.02614     S
S      0.75122  0.75122  0.47142     S
H       0.7801   0.0079   0.3441     H
H       0.7801   0.0079   0.8679     H
H       0.7801   0.3441   0.0079     H
H       0.7801   0.3441   0.8679     H
H       0.7801   0.8679   0.0079     H
H       0.7801   0.8679   0.3441     H
C      0.78119  0.01259  0.37461     C
C      0.78119  0.01259  0.83161     C
C      0.78119  0.37461  0.01259     C
C      0.78119  0.37461  0.83161     C
C      0.78119  0.83161  0.01259     C
C      0.78119  0.83161  0.37461     C
C       0.8223   0.0201  0.42402     C
C       0.8223   0.0201  0.73358     C
C       0.8223  0.42402   0.0201     C
C       0.8223  0.42402  0.73358     C
C       0.8223  0.73358   0.0201     C
C       0.8223  0.73358  0.42402     C
C      0.83161  0.01259  0.37461     C
C      0.83161  0.01259  0.78119     C
C      0.83161  0.37461  0.01259     C
C      0.83161  0.37461  0.78119     C
C      0.83161  0.78119  0.01259     C
C      0.83161  0.78119  0.37461     C
O      0.84722  0.02466   0.4903     O
O      0.84722  0.02466  0.63782     O
O      0.84722   0.4903  0.02466     O
O      0.84722   0.4903  0.63782     O
O      0.84722  0.63782  0.02466     O
O      0.84722  0.63782   0.4903     O
C      0.86559  0.02021  0.44045     C
C      0.86559  0.02021  0.67375     C
C      0.86559  0.44045  0.02021     C
C      0.86559  0.44045  0.67375     C
C      0.86559  0.67375  0.02021     C
C      0.86559  0.67375  0.44045     C
H       0.8679   0.0079   0.3441     H
H       0.8679   0.0079   0.7801     H
H       0.8679   0.3441   0.0079     H
H       0.8679   0.3441   0.7801     H
H       0.8679   0.7801   0.0079     H
H       0.8679   0.7801   0.3441     H
Zr     0.89102  0.01848  0.54525    Zr
Zr     0.89102  0.54525  0.01848    Zr
Zr     0.89102  0.54525  0.54525    Zr
O      0.91729  0.01427  0.40373     O
O      0.91729  0.01427  0.66471     O
O      0.91729  0.40373  0.01427     O
O      0.91729  0.40373  0.66471     O
O      0.91729  0.66471  0.01427     O
O      0.91729  0.66471  0.40373     O
O      0.93626  0.06374  0.45654     O
O      0.93626  0.06374  0.54346     O
O      0.93626  0.45654  0.06374     O
O      0.93626  0.45654  0.54346     O
O      0.93626  0.54346  0.06374     O
O      0.93626  0.54346  0.45654     O
O       0.9552  0.50146  0.58814     O
O       0.9552  0.50146   0.9552     O
O       0.9552  0.58814  0.50146     O
O       0.9552  0.58814   0.9552     O
O       0.9552   0.9552  0.50146     O
O       0.9552   0.9552  0.58814     O
S      0.97386  0.24878  0.24878     S
S      0.97386  0.24878  0.52858     S
S      0.97386  0.52858  0.24878     S
O      0.97534  0.15278  0.36218     O
O      0.97534  0.15278   0.5097     O
O      0.97534  0.36218  0.15278     O
O      0.97534  0.36218   0.5097     O
O      0.97534   0.5097  0.15278     O
O      0.97534   0.5097  0.36218     O
C      0.97979  0.13441  0.32625     C
C      0.97979  0.13441  0.55955     C
C      0.97979  0.32625  0.13441     C
C      0.97979  0.32625  0.55955     C
C      0.97979  0.55955  0.13441     C
C      0.97979  0.55955  0.32625     C
C       0.9799   0.1777  0.26642     C
C       0.9799   0.1777  0.57598     C
C       0.9799  0.26642   0.1777     C
C       0.9799  0.26642  0.57598     C
C       0.9799  0.57598   0.1777     C
C       0.9799  0.57598  0.26642     C
Zr     0.98153  0.10897  0.45475    Zr
Zr     0.98153  0.45475  0.10897    Zr
Zr     0.98153  0.45475  0.45475    Zr
O      0.98573  0.08271  0.33529     O
O      0.98573  0.08271  0.59627     O
O      0.98573  0.33529  0.08271     O
O      0.98573  0.33529  0.59627     O
O      0.98573  0.59627  0.08271     O
O      0.98573  0.59627  0.33529     O
C      0.98741  0.16839  0.21881     C
C      0.98741  0.16839  0.62539     C
C      0.98741  0.21881  0.16839     C
C      0.98741  0.21881  0.62539     C
C      0.98741  0.62539  0.16839     C
C      0.98741  0.62539  0.21881     C
H       0.9921   0.1321   0.2199     H
H       0.9921   0.1321   0.6559     H
H       0.9921   0.2199   0.1321     H
H       0.9921   0.2199   0.6559     H
H       0.9921   0.6559   0.1321     H
H       0.9921   0.6559   0.2199     H
Zr         1.0  0.41089     -0.0    Zr
