data_I
_chemical_name_common  '/home/zhangsd/repos/MofS-CGCNN/ML/data/TSD/clean_cifs/XICNOO_clean'
_cell_length_a 27.65490
_cell_length_b 27.65490
_cell_length_c 27.65490
_cell_angle_alpha 60.00000
_cell_angle_beta  60.00000
_cell_angle_gamma 60.00000
_space_group_name_H-M_alt      'P 1'


loop_
_space_group_symop_operation_xyz
  'x, y, z' 

loop_
_atom_site_label
_atom_site_fract_x
_atom_site_fract_y
_atom_site_fract_z
_atom_site_type_symbol
Zr         0.0      0.0  0.41066    Zr
Zr         0.0      0.0  0.58934    Zr
Zr         0.0  0.41066      0.0    Zr
Zr         0.0  0.41066  0.58934    Zr
Zr         0.0  0.58934      0.0    Zr
Zr         0.0  0.58934  0.41066    Zr
H       0.0096    0.344    0.779     H
H       0.0096    0.344   0.8674     H
H       0.0096    0.779    0.344     H
H       0.0096    0.779   0.8674     H
H       0.0096   0.8674    0.344     H
H       0.0096   0.8674    0.779     H
C       0.0134   0.3748   0.7804     C
C       0.0134   0.3748   0.8314     C
C       0.0134   0.7804   0.3748     C
C       0.0134   0.7804   0.8314     C
C       0.0134   0.8314   0.3748     C
C       0.0134   0.8314   0.7804     C
O      0.01436    0.404   0.6646     O
O      0.01436    0.404  0.91704     O
O      0.01436   0.6646    0.404     O
O      0.01436   0.6646  0.91704     O
O      0.01436  0.91704    0.404     O
O      0.01436  0.91704   0.6646     O
Zr     0.01821  0.54531  0.54531    Zr
Zr     0.01821  0.54531  0.89117    Zr
Zr     0.01821  0.89117  0.54531    Zr
C      0.01957  0.42471  0.73371     C
C      0.01957  0.42471  0.82201     C
C      0.01957  0.73371  0.42471     C
C      0.01957  0.73371  0.82201     C
C      0.01957  0.82201  0.42471     C
C      0.01957  0.82201  0.73371     C
C      0.01971  0.44121  0.67371     C
C      0.01971  0.44121  0.86537     C
C      0.01971  0.67371  0.44121     C
C      0.01971  0.67371  0.86537     C
C      0.01971  0.86537  0.44121     C
C      0.01971  0.86537  0.67371     C
O      0.02402  0.49104  0.63782     O
O      0.02402  0.49104  0.84712     O
O      0.02402  0.63782  0.49104     O
O      0.02402  0.63782  0.84712     O
O      0.02402  0.84712  0.49104     O
O      0.02402  0.84712  0.63782     O
S      0.02504  0.47232  0.75132     S
S      0.02504  0.75132  0.47232     S
S      0.02504  0.75132  0.75132     S
O       0.0438   0.0438   0.4137     O
O       0.0438   0.0438   0.4987     O
O       0.0438   0.4137   0.0438     O
O       0.0438   0.4137   0.4987     O
O       0.0438   0.4987   0.0438     O
O       0.0438   0.4987   0.4137     O
O      0.06356  0.45656  0.54344     O
O      0.06356  0.45656  0.93644     O
O      0.06356  0.54344  0.45656     O
O      0.06356  0.54344  0.93644     O
O      0.06356  0.93644  0.45656     O
O      0.06356  0.93644  0.54344     O
O      0.08296   0.3354    0.596     O
O      0.08296   0.3354  0.98564     O
O      0.08296    0.596   0.3354     O
O      0.08296    0.596  0.98564     O
O      0.08296  0.98564   0.3354     O
O      0.08296  0.98564    0.596     O
Zr     0.10884  0.45469  0.45469    Zr
Zr     0.10884  0.45469  0.98178    Zr
Zr     0.10884  0.98178  0.45469    Zr
H       0.1326    0.221    0.656     H
H       0.1326    0.221   0.9904     H
H       0.1326    0.656    0.221     H
H       0.1326    0.656   0.9904     H
H       0.1326   0.9904    0.221     H
H       0.1326   0.9904    0.656     H
C      0.13463  0.32629  0.55879     C
C      0.13463  0.32629  0.98029     C
C      0.13463  0.55879  0.32629     C
C      0.13463  0.55879  0.98029     C
C      0.13463  0.98029  0.32629     C
C      0.13463  0.98029  0.55879     C
O      0.15288  0.36218  0.50896     O
O      0.15288  0.36218  0.97598     O
O      0.15288  0.50896  0.36218     O
O      0.15288  0.50896  0.97598     O
O      0.15288  0.97598  0.36218     O
O      0.15288  0.97598  0.50896     O
C       0.1686   0.2196   0.6252     C
C       0.1686   0.2196   0.9866     C
C       0.1686   0.6252   0.2196     C
C       0.1686   0.6252   0.9866     C
C       0.1686   0.9866   0.2196     C
C       0.1686   0.9866   0.6252     C
C      0.17799  0.26629  0.57529     C
C      0.17799  0.26629  0.98043     C
C      0.17799  0.57529  0.26629     C
C      0.17799  0.57529  0.98043     C
C      0.17799  0.98043  0.26629     C
C      0.17799  0.98043  0.57529     C
C       0.2196   0.1686   0.6252     C
C       0.2196   0.1686   0.9866     C
C       0.2196   0.6252   0.1686     C
C       0.2196   0.6252   0.9866     C
C       0.2196   0.9866   0.1686     C
C       0.2196   0.9866   0.6252     C
H        0.221   0.1326    0.656     H
H        0.221   0.1326   0.9904     H
H        0.221    0.656   0.1326     H
H        0.221    0.656   0.9904     H
H        0.221   0.9904   0.1326     H
H        0.221   0.9904    0.656     H
S      0.24868  0.24868  0.52768     S
S      0.24868  0.24868  0.97496     S
S      0.24868  0.52768  0.24868     S
S      0.24868  0.52768  0.97496     S
S      0.24868  0.97496  0.24868     S
S      0.24868  0.97496  0.52768     S
C      0.26629  0.17799  0.57529     C
C      0.26629  0.17799  0.98043     C
C      0.26629  0.57529  0.17799     C
C      0.26629  0.57529  0.98043     C
C      0.26629  0.98043  0.17799     C
C      0.26629  0.98043  0.57529     C
C      0.32629  0.13463  0.55879     C
C      0.32629  0.13463  0.98029     C
C      0.32629  0.55879  0.13463     C
C      0.32629  0.55879  0.98029     C
C      0.32629  0.98029  0.13463     C
C      0.32629  0.98029  0.55879     C
O       0.3354  0.08296    0.596     O
O       0.3354  0.08296  0.98564     O
O       0.3354    0.596  0.08296     O
O       0.3354    0.596  0.98564     O
O       0.3354  0.98564  0.08296     O
O       0.3354  0.98564    0.596     O
H        0.344   0.0096    0.779     H
H        0.344   0.0096   0.8674     H
H        0.344    0.779   0.0096     H
H        0.344    0.779   0.8674     H
H        0.344   0.8674   0.0096     H
H        0.344   0.8674    0.779     H
O      0.36218  0.15288  0.50896     O
O      0.36218  0.15288  0.97598     O
O      0.36218  0.50896  0.15288     O
O      0.36218  0.50896  0.97598     O
O      0.36218  0.97598  0.15288     O
O      0.36218  0.97598  0.50896     O
C       0.3748   0.0134   0.7804     C
C       0.3748   0.0134   0.8314     C
C       0.3748   0.7804   0.0134     C
C       0.3748   0.7804   0.8314     C
C       0.3748   0.8314   0.0134     C
C       0.3748   0.8314   0.7804     C
O        0.404  0.01436   0.6646     O
O        0.404  0.01436  0.91704     O
O        0.404   0.6646  0.01436     O
O        0.404   0.6646  0.91704     O
O        0.404  0.91704  0.01436     O
O        0.404  0.91704   0.6646     O
Zr     0.41066     -0.0      0.0    Zr
Zr     0.41066     -0.0  0.58934    Zr
Zr     0.41066  0.58934      0.0    Zr
O       0.4137   0.0438   0.0438     O
O       0.4137   0.0438   0.4987     O
O       0.4137   0.4987   0.0438     O
C      0.42471  0.01957  0.73371     C
C      0.42471  0.01957  0.82201     C
C      0.42471  0.73371  0.01957     C
C      0.42471  0.73371  0.82201     C
C      0.42471  0.82201  0.01957     C
C      0.42471  0.82201  0.73371     C
C      0.44121  0.01971  0.67371     C
C      0.44121  0.01971  0.86537     C
C      0.44121  0.67371  0.01971     C
C      0.44121  0.67371  0.86537     C
C      0.44121  0.86537  0.01971     C
C      0.44121  0.86537  0.67371     C
Zr      0.4547  0.10883  0.45469    Zr
Zr      0.4547  0.10883  0.98178    Zr
Zr      0.4547  0.45469  0.10883    Zr
Zr      0.4547  0.45469  0.98178    Zr
Zr      0.4547  0.98178  0.10883    Zr
Zr      0.4547  0.98178  0.45469    Zr
O      0.45656  0.06356  0.54344     O
O      0.45656  0.06356  0.93644     O
O      0.45656  0.54344  0.06356     O
O      0.45656  0.54344  0.93644     O
O      0.45656  0.93644  0.06356     O
O      0.45656  0.93644  0.54344     O
S      0.47232  0.02504  0.75132     S
S      0.47232  0.75132  0.02504     S
S      0.47232  0.75132  0.75132     S
O      0.49104  0.02402  0.63782     O
O      0.49104  0.02402  0.84712     O
O      0.49104  0.63782  0.02402     O
O      0.49104  0.63782  0.84712     O
O      0.49104  0.84712  0.02402     O
O      0.49104  0.84712  0.63782     O
O       0.4987   0.0438   0.0438     O
O       0.4987   0.0438   0.4137     O
O       0.4987   0.4137   0.0438     O
O       0.5013   0.5863   0.9562     O
O       0.5013   0.9562   0.5863     O
O       0.5013   0.9562   0.9562     O
O      0.50896  0.15288  0.36218     O
O      0.50896  0.15288  0.97598     O
O      0.50896  0.36218  0.15288     O
O      0.50896  0.36218  0.97598     O
O      0.50896  0.97598  0.15288     O
O      0.50896  0.97598  0.36218     O
S      0.52768  0.24868  0.24868     S
S      0.52768  0.24868  0.97496     S
S      0.52768  0.97496  0.24868     S
O      0.54344  0.06356  0.45656     O
O      0.54344  0.06356  0.93644     O
O      0.54344  0.45656  0.06356     O
O      0.54344  0.45656  0.93644     O
O      0.54344  0.93644  0.06356     O
O      0.54344  0.93644  0.45656     O
Zr      0.5453  0.01822  0.54531    Zr
Zr      0.5453  0.01822  0.89117    Zr
Zr      0.5453  0.54531  0.01822    Zr
Zr      0.5453  0.54531  0.89117    Zr
Zr      0.5453  0.89117  0.01822    Zr
Zr      0.5453  0.89117  0.54531    Zr
C      0.55879  0.13463  0.32629     C
C      0.55879  0.13463  0.98029     C
C      0.55879  0.32629  0.13463     C
C      0.55879  0.32629  0.98029     C
C      0.55879  0.98029  0.13463     C
C      0.55879  0.98029  0.32629     C
C      0.57529  0.17799  0.26629     C
C      0.57529  0.17799  0.98043     C
C      0.57529  0.26629  0.17799     C
C      0.57529  0.26629  0.98043     C
C      0.57529  0.98043  0.17799     C
C      0.57529  0.98043  0.26629     C
O       0.5863   0.5013   0.9562     O
O       0.5863   0.9562   0.5013     O
O       0.5863   0.9562   0.9562     O
Zr     0.58934  0.41066      0.0    Zr
Zr     0.58934      1.0      0.0    Zr
Zr     0.58934      1.0  0.41066    Zr
O        0.596  0.08296   0.3354     O
O        0.596  0.08296  0.98564     O
O        0.596   0.3354  0.08296     O
O        0.596   0.3354  0.98564     O
O        0.596  0.98564  0.08296     O
O        0.596  0.98564   0.3354     O
C       0.6252   0.1686   0.2196     C
C       0.6252   0.1686   0.9866     C
C       0.6252   0.2196   0.1686     C
C       0.6252   0.2196   0.9866     C
C       0.6252   0.9866   0.1686     C
C       0.6252   0.9866   0.2196     C
O      0.63782  0.02402  0.49104     O
O      0.63782  0.02402  0.84712     O
O      0.63782  0.49104  0.02402     O
O      0.63782  0.49104  0.84712     O
O      0.63782  0.84712  0.02402     O
O      0.63782  0.84712  0.49104     O
H        0.656   0.1326    0.221     H
H        0.656   0.1326   0.9904     H
H        0.656    0.221   0.1326     H
H        0.656    0.221   0.9904     H
H        0.656   0.9904   0.1326     H
H        0.656   0.9904    0.221     H
O       0.6646  0.01436    0.404     O
O       0.6646  0.01436  0.91704     O
O       0.6646    0.404  0.01436     O
O       0.6646    0.404  0.91704     O
O       0.6646  0.91704  0.01436     O
O       0.6646  0.91704    0.404     O
C      0.67371  0.01971  0.44121     C
C      0.67371  0.01971  0.86537     C
C      0.67371  0.44121  0.01971     C
C      0.67371  0.44121  0.86537     C
C      0.67371  0.86537  0.01971     C
C      0.67371  0.86537  0.44121     C
C      0.73371  0.01957  0.42471     C
C      0.73371  0.01957  0.82201     C
C      0.73371  0.42471  0.01957     C
C      0.73371  0.42471  0.82201     C
C      0.73371  0.82201  0.01957     C
C      0.73371  0.82201  0.42471     C
S      0.75132  0.02504  0.47232     S
S      0.75132  0.02504  0.75132     S
S      0.75132  0.47232  0.02504     S
S      0.75132  0.47232  0.75132     S
S      0.75132  0.75132  0.02504     S
S      0.75132  0.75132  0.47232     S
H        0.779   0.0096    0.344     H
H        0.779   0.0096   0.8674     H
H        0.779    0.344   0.0096     H
H        0.779    0.344   0.8674     H
H        0.779   0.8674   0.0096     H
H        0.779   0.8674    0.344     H
C       0.7804   0.0134   0.3748     C
C       0.7804   0.0134   0.8314     C
C       0.7804   0.3748   0.0134     C
C       0.7804   0.3748   0.8314     C
C       0.7804   0.8314   0.0134     C
C       0.7804   0.8314   0.3748     C
C      0.82201  0.01957  0.42471     C
C      0.82201  0.01957  0.73371     C
C      0.82201  0.42471  0.01957     C
C      0.82201  0.42471  0.73371     C
C      0.82201  0.73371  0.01957     C
C      0.82201  0.73371  0.42471     C
C       0.8314   0.0134   0.3748     C
C       0.8314   0.0134   0.7804     C
C       0.8314   0.3748   0.0134     C
C       0.8314   0.3748   0.7804     C
C       0.8314   0.7804   0.0134     C
C       0.8314   0.7804   0.3748     C
O      0.84712  0.02402  0.49104     O
O      0.84712  0.02402  0.63782     O
O      0.84712  0.49104  0.02402     O
O      0.84712  0.49104  0.63782     O
O      0.84712  0.63782  0.02402     O
O      0.84712  0.63782  0.49104     O
C      0.86537  0.01971  0.44121     C
C      0.86537  0.01971  0.67371     C
C      0.86537  0.44121  0.01971     C
C      0.86537  0.44121  0.67371     C
C      0.86537  0.67371  0.01971     C
C      0.86537  0.67371  0.44121     C
H       0.8674   0.0096    0.344     H
H       0.8674   0.0096    0.779     H
H       0.8674    0.344   0.0096     H
H       0.8674    0.344    0.779     H
H       0.8674    0.779   0.0096     H
H       0.8674    0.779    0.344     H
Zr     0.89116  0.01822  0.54531    Zr
Zr     0.89116  0.54531  0.01822    Zr
Zr     0.89116  0.54531  0.54531    Zr
O      0.91704  0.01436    0.404     O
O      0.91704  0.01436   0.6646     O
O      0.91704    0.404  0.01436     O
O      0.91704    0.404   0.6646     O
O      0.91704   0.6646  0.01436     O
O      0.91704   0.6646    0.404     O
O      0.93644  0.06356  0.45656     O
O      0.93644  0.06356  0.54344     O
O      0.93644  0.45656  0.06356     O
O      0.93644  0.45656  0.54344     O
O      0.93644  0.54344  0.06356     O
O      0.93644  0.54344  0.45656     O
O       0.9562   0.5013   0.5863     O
O       0.9562   0.5013   0.9562     O
O       0.9562   0.5863   0.5013     O
O       0.9562   0.5863   0.9562     O
O       0.9562   0.9562   0.5013     O
O       0.9562   0.9562   0.5863     O
S      0.97496  0.24868  0.24868     S
S      0.97496  0.24868  0.52768     S
S      0.97496  0.52768  0.24868     S
O      0.97598  0.15288  0.36218     O
O      0.97598  0.15288  0.50896     O
O      0.97598  0.36218  0.15288     O
O      0.97598  0.36218  0.50896     O
O      0.97598  0.50896  0.15288     O
O      0.97598  0.50896  0.36218     O
C      0.98029  0.13463  0.32629     C
C      0.98029  0.13463  0.55879     C
C      0.98029  0.32629  0.13463     C
C      0.98029  0.32629  0.55879     C
C      0.98029  0.55879  0.13463     C
C      0.98029  0.55879  0.32629     C
C      0.98043  0.17799  0.26629     C
C      0.98043  0.17799  0.57529     C
C      0.98043  0.26629  0.17799     C
C      0.98043  0.26629  0.57529     C
C      0.98043  0.57529  0.17799     C
C      0.98043  0.57529  0.26629     C
Zr     0.98179  0.10883  0.45469    Zr
Zr     0.98179  0.45469  0.10883    Zr
Zr     0.98179  0.45469  0.45469    Zr
O      0.98564  0.08296   0.3354     O
O      0.98564  0.08296    0.596     O
O      0.98564   0.3354  0.08296     O
O      0.98564   0.3354    0.596     O
O      0.98564    0.596  0.08296     O
O      0.98564    0.596   0.3354     O
C       0.9866   0.1686   0.2196     C
C       0.9866   0.1686   0.6252     C
C       0.9866   0.2196   0.1686     C
C       0.9866   0.2196   0.6252     C
C       0.9866   0.6252   0.1686     C
C       0.9866   0.6252   0.2196     C
H       0.9904   0.1326    0.221     H
H       0.9904   0.1326    0.656     H
H       0.9904    0.221   0.1326     H
H       0.9904    0.221    0.656     H
H       0.9904    0.656   0.1326     H
H       0.9904    0.656    0.221     H
