data_I
_chemical_name_common  '/home/zhangsd/repos/MofS-CGCNN/ML/data/TSD/clean_cifs/XIFLOP_clean'
_cell_length_a 16.17800
_cell_length_b 16.17800
_cell_length_c  6.83770
_cell_angle_alpha 90.00000
_cell_angle_beta  90.00000
_cell_angle_gamma 90.00000
_space_group_name_H-M_alt      'P 1'


loop_
_space_group_symop_operation_xyz
  'x, y, z' 

loop_
_atom_site_label
_atom_site_fract_x
_atom_site_fract_y
_atom_site_fract_z
_atom_site_type_symbol
C       0.0107    0.207   0.5488     C
C       0.0107    0.293   0.5488     C
O       0.0186   0.0731   0.4312     O
O       0.0186   0.4269   0.4312     O
N       0.0277   0.6813   0.2836     N
N       0.0277   0.8187   0.2836     N
C       0.0385   0.1466   0.4037     C
C       0.0385   0.3534   0.4037     C
Cd     0.04279  0.54279     0.25    Cd
Cd     0.04279  0.95721     0.25    Cd
C       0.0492     0.75   0.1873     C
O       0.0731   0.0186   0.9312     O
O       0.0731   0.4814   0.9312     O
O       0.0803   0.1706   0.2553     O
O       0.0803   0.3294   0.2553     O
C       0.0908     0.75    0.996     C
C       0.1191   0.6791      0.9     C
C       0.1191   0.8209      0.9     C
C       0.1466   0.0385   0.9037     C
C       0.1466   0.4615   0.9037     C
O       0.1706   0.0803   0.7553     O
O       0.1706   0.4197   0.7553     O
C       0.1791   0.6191      0.6     C
C       0.1791   0.8809      0.6     C
N       0.1813   0.5277   0.2164     N
N       0.1813   0.9723   0.2164     N
C        0.207   0.0107   0.0488     C
C        0.207   0.4893   0.0488     C
C         0.25   0.5492   0.3127     C
C         0.25   0.5908    0.504     C
C         0.25   0.9092    0.504     C
C         0.25   0.9508   0.3127     C
C        0.293   0.0107   0.0488     C
C        0.293   0.4893   0.0488     C
N       0.3187   0.5277   0.2164     N
N       0.3187   0.9723   0.2164     N
C       0.3209   0.6191      0.6     C
C       0.3209   0.8809      0.6     C
O       0.3294   0.0803   0.7553     O
O       0.3294   0.4197   0.7553     O
C       0.3534   0.0385   0.9037     C
C       0.3534   0.4615   0.9037     C
C       0.3809   0.6791      0.9     C
C       0.3809   0.8209      0.9     C
C       0.4092     0.75    0.996     C
O       0.4197   0.1706   0.2553     O
O       0.4197   0.3294   0.2553     O
O       0.4269   0.0186   0.9312     O
O       0.4269   0.4814   0.9312     O
C       0.4508     0.75   0.1873     C
Cd     0.45721  0.54279     0.25    Cd
Cd     0.45721  0.95721     0.25    Cd
C       0.4615   0.1466   0.4037     C
C       0.4615   0.3534   0.4037     C
N       0.4723   0.6813   0.2836     N
N       0.4723   0.8187   0.2836     N
O       0.4814   0.0731   0.4312     O
O       0.4814   0.4269   0.4312     O
C       0.4893    0.207   0.5488     C
C       0.4893    0.293   0.5488     C
C       0.5107    0.707   0.4512     C
C       0.5107    0.793   0.4512     C
O       0.5186   0.5731   0.5688     O
O       0.5186   0.9269   0.5688     O
N       0.5277   0.1813   0.7164     N
N       0.5277   0.3187   0.7164     N
C       0.5385   0.6466   0.5963     C
C       0.5385   0.8534   0.5963     C
Cd     0.54279  0.04279     0.75    Cd
Cd     0.54279  0.45721     0.75    Cd
C       0.5492     0.25   0.8127     C
O       0.5731   0.5186   0.0688     O
O       0.5731   0.9814   0.0688     O
O       0.5803   0.6706   0.7447     O
O       0.5803   0.8294   0.7447     O
C       0.5908     0.25    0.004     C
C       0.6191   0.1791      0.1     C
C       0.6191   0.3209      0.1     C
C       0.6466   0.5385   0.0963     C
C       0.6466   0.9615   0.0963     C
O       0.6706   0.5803   0.2447     O
O       0.6706   0.9197   0.2447     O
C       0.6791   0.1191      0.4     C
C       0.6791   0.3809      0.4     C
N       0.6813   0.0277   0.7836     N
N       0.6813   0.4723   0.7836     N
C        0.707   0.5107   0.9512     C
C        0.707   0.9893   0.9512     C
C         0.75   0.0492   0.6873     C
C         0.75   0.0908    0.496     C
C         0.75   0.4092    0.496     C
C         0.75   0.4508   0.6873     C
C        0.793   0.5107   0.9512     C
C        0.793   0.9893   0.9512     C
N       0.8187   0.0277   0.7836     N
N       0.8187   0.4723   0.7836     N
C       0.8209   0.1191      0.4     C
C       0.8209   0.3809      0.4     C
O       0.8294   0.5803   0.2447     O
O       0.8294   0.9197   0.2447     O
C       0.8534   0.5385   0.0963     C
C       0.8534   0.9615   0.0963     C
C       0.8809   0.1791      0.1     C
C       0.8809   0.3209      0.1     C
C       0.9092     0.25    0.004     C
O       0.9197   0.6706   0.7447     O
O       0.9197   0.8294   0.7447     O
O       0.9269   0.5186   0.0688     O
O       0.9269   0.9814   0.0688     O
C       0.9508     0.25   0.8127     C
Cd     0.95721  0.04279     0.75    Cd
Cd     0.95721  0.45721     0.75    Cd
C       0.9615   0.6466   0.5963     C
C       0.9615   0.8534   0.5963     C
N       0.9723   0.1813   0.7164     N
N       0.9723   0.3187   0.7164     N
O       0.9814   0.5731   0.5688     O
O       0.9814   0.9269   0.5688     O
C       0.9893    0.707   0.4512     C
C       0.9893    0.793   0.4512     C
