data_I
_chemical_name_common  '/home/zhangsd/repos/MofS-CGCNN/ML/data/TSD/clean_cifs/XIHXET_clean'
_cell_length_a  7.45740
_cell_length_b 12.46300
_cell_length_c 29.45100
_cell_angle_alpha 96.32400
_cell_angle_beta  90.00000
_cell_angle_gamma 90.00000
_space_group_name_H-M_alt      'P 1'


loop_
_space_group_symop_operation_xyz
  'x, y, z' 

loop_
_atom_site_label
_atom_site_fract_x
_atom_site_fract_y
_atom_site_fract_z
_atom_site_type_symbol
Mn         0.0      0.0      0.0    Mn
Mn         0.0      0.0      0.5    Mn
H       0.0007   0.0013   0.3681     H
O       0.0293   0.3551  0.70825     O
H       0.0353   0.8224   0.3392     H
H       0.0354   0.5351   0.0458     H
H        0.038   0.3592   0.0128     H
O       0.0466   0.5335  0.19756     O
C       0.0552   0.1364  0.67201     C
Mn     0.06814  0.48411  0.26729    Mn
C       0.0751   0.0287  0.65495     C
O       0.0823   0.8992  0.54896     O
O       0.0993   0.1562   0.0085     O
H       0.1044   0.2847   0.6053     H
H       0.1045    0.967   0.2207     H
C       0.1059   0.4845  0.05845     C
C       0.1105   0.3793  0.03803     C
O       0.1248   0.1395  0.53598     O
H       0.1265   0.1483   0.2469     H
H       0.1293   0.4549   0.6426     H
O       0.1304   0.9484  0.06081     O
C       0.1629   0.3042  0.72023     C
C       0.1699   0.1829  0.70575     C
C       0.1798   0.3344  0.59366     C
C        0.187   0.0103  0.20755     C
C       0.1889   0.5851  0.19958     C
C       0.1913    0.437  0.61546     C
O       0.2005  0.58204  0.73241     O
C       0.2024   0.1186  0.22378     C
C       0.2039   0.5156  0.09719     C
C       0.2053   0.9661  0.67172     C
O       0.2054   0.3422  0.24304     O
C       0.2145   0.6305  0.11774     C
C       0.2217   0.3033  0.05454     C
C       0.2229   0.6622  0.16471     C
H       0.2291   0.6931   0.0574     H
C       0.2308   0.8975  0.56893     C
C       0.2328   0.8507   0.6521     C
C       0.2329   0.7122  0.08882     C
C       0.2336   0.1908  0.03153     C
H        0.241   0.7888   0.7125     H
C       0.2437   0.8199  0.60495     C
C       0.2491     0.77  0.68109     C
C       0.2509     0.77  0.18109     C
C       0.2563   0.8199  0.10495     C
H        0.259   0.7888   0.2125     H
C       0.2664   0.1908  0.53153     C
C       0.2671   0.7122  0.58882     C
C       0.2672   0.8507   0.1521     C
C       0.2692   0.8975  0.06893     C
H       0.2709   0.6931   0.5574     H
C       0.2771   0.6622  0.66471     C
C       0.2783   0.3033  0.55454     C
C       0.2855   0.6305  0.61774     C
O       0.2946   0.3422  0.74304     O
C       0.2947   0.9661  0.17172     C
C       0.2961   0.5156  0.59719     C
C       0.2976   0.1186  0.72378     C
O       0.2995  0.58204  0.23241     O
C       0.3087    0.437  0.11546     C
C       0.3111   0.5851  0.69958     C
C        0.313   0.0103  0.70755     C
C       0.3202   0.3344  0.09366     C
C       0.3301   0.1829  0.20575     C
C       0.3371   0.3042  0.22023     C
O       0.3696   0.9484  0.56081     O
H       0.3707   0.4549   0.1426     H
H       0.3735   0.1483   0.7469     H
O       0.3752   0.1395  0.03598     O
C       0.3895   0.3793  0.53803     C
C       0.3941   0.4845  0.55845     C
H       0.3955    0.967   0.7207     H
H       0.3956   0.2847   0.1053     H
O       0.4007   0.1562   0.5085     O
O       0.4177   0.8992  0.04896     O
C       0.4249   0.0287  0.15495     C
Mn     0.43186  0.48411  0.76729    Mn
C       0.4448   0.1364  0.17201     C
O       0.4534   0.5335  0.69756     O
H        0.462   0.3592   0.5128     H
H       0.4646   0.5351   0.5458     H
H       0.4647   0.8224   0.8392     H
O       0.4707   0.3551  0.20825     O
H       0.4993   0.0013   0.8681     H
Mn         0.5      0.0      0.0    Mn
Mn         0.5      0.0      0.5    Mn
H       0.5007   0.9987   0.1319     H
O       0.5293   0.6449  0.79175     O
H       0.5353   0.1776   0.1608     H
H       0.5354   0.4649   0.4542     H
H        0.538   0.6408   0.4872     H
O       0.5466   0.4665  0.30244     O
C       0.5552   0.8636  0.82799     C
Mn     0.56814  0.51589  0.23271    Mn
C       0.5751   0.9713  0.84505     C
O       0.5823   0.1008  0.95104     O
O       0.5993   0.8438   0.4915     O
H       0.6044   0.7153   0.8947     H
H       0.6045    0.033   0.2793     H
C       0.6059   0.5155  0.44155     C
C       0.6105   0.6207  0.46197     C
O       0.6248   0.8605  0.96402     O
H       0.6265   0.8517   0.2531     H
H       0.6293   0.5451   0.8574     H
O       0.6304   0.0516  0.43919     O
C       0.6629   0.6958  0.77977     C
C       0.6699   0.8171  0.79425     C
C       0.6798   0.6656  0.90634     C
C        0.687   0.9897  0.29245     C
C       0.6889   0.4149  0.30042     C
C       0.6913    0.563  0.88454     C
O       0.7005  0.41796  0.76759     O
C       0.7024   0.8814  0.27622     C
C       0.7039   0.4844  0.40281     C
C       0.7053   0.0339  0.82828     C
O       0.7054   0.6578  0.25696     O
C       0.7145   0.3695  0.38226     C
C       0.7217   0.6967  0.44546     C
C       0.7229   0.3378  0.33529     C
H       0.7291   0.3069   0.4426     H
C       0.7308   0.1025  0.93107     C
C       0.7328   0.1493   0.8479     C
C       0.7329   0.2878  0.41118     C
C       0.7336   0.8092  0.46847     C
H        0.741   0.2112   0.7875     H
C       0.7437   0.1801  0.89505     C
C       0.7491     0.23  0.81891     C
C       0.7509     0.23  0.31891     C
C       0.7563   0.1801  0.39505     C
H        0.759   0.2112   0.2875     H
C       0.7664   0.8092  0.96847     C
C       0.7671   0.2878  0.91118     C
C       0.7672   0.1493   0.3479     C
C       0.7692   0.1025  0.43107     C
H       0.7709   0.3069   0.9426     H
C       0.7771   0.3378  0.83529     C
C       0.7783   0.6967  0.94546     C
C       0.7855   0.3695  0.88226     C
O       0.7946   0.6578  0.75696     O
C       0.7947   0.0339  0.32828     C
C       0.7961   0.4844  0.90281     C
C       0.7976   0.8814  0.77622     C
O       0.7995  0.41796  0.26759     O
C       0.8087    0.563  0.38454     C
C       0.8111   0.4149  0.80042     C
C        0.813   0.9897  0.79245     C
C       0.8202   0.6656  0.40634     C
C       0.8301   0.8171  0.29425     C
C       0.8371   0.6958  0.27977     C
O       0.8696   0.0516  0.93919     O
H       0.8707   0.5451   0.3574     H
H       0.8735   0.8517   0.7531     H
O       0.8752   0.8605  0.46402     O
C       0.8895   0.6207  0.96197     C
C       0.8941   0.5155  0.94155     C
H       0.8955    0.033   0.7793     H
H       0.8956   0.7153   0.3947     H
O       0.9007   0.8438   0.9915     O
O       0.9177   0.1008  0.45104     O
C       0.9249   0.9713  0.34505     C
Mn     0.93186  0.51589  0.73271    Mn
C       0.9448   0.8636  0.32799     C
O       0.9534   0.4665  0.80244     O
H        0.962   0.6408   0.9872     H
H       0.9646   0.4649   0.9542     H
H       0.9647   0.1776   0.6608     H
O       0.9707   0.6449  0.29175     O
H       0.9993   0.9987   0.6319     H
