data_I
_chemical_name_common  '/home/zhangsd/repos/MofS-CGCNN/ML/data/TSD/clean_cifs/XILLIP_clean'
_cell_length_a 21.70300
_cell_length_b 20.06200
_cell_length_c 22.12100
_cell_angle_alpha 90.00000
_cell_angle_beta  108.79900
_cell_angle_gamma 90.00000
_space_group_name_H-M_alt      'P 1'


loop_
_space_group_symop_operation_xyz
  'x, y, z' 

loop_
_atom_site_label
_atom_site_fract_x
_atom_site_fract_y
_atom_site_fract_z
_atom_site_type_symbol
C      0.00012  0.58971  0.23823     C
C      0.00012  0.91029  0.73823     C
H       0.0063   0.2452   0.5899     H
H       0.0063   0.2548   0.0899     H
C      0.00648  0.05491  0.31784     C
C      0.00648  0.44509  0.81784     C
H       0.0102   0.5577   0.0964     H
H       0.0102   0.9423   0.5964     H
C      0.01049  0.19781  0.16835     C
C      0.01049  0.30219  0.66835     C
C      0.01552  0.73948  0.38178     C
C      0.01552  0.76052  0.88178     C
C      0.01555  0.58154  0.13485     C
C      0.01555  0.91846  0.63485     C
H       0.0162   0.0718   0.2302     H
H       0.0162   0.4282   0.7302     H
H       0.0295   0.5423   0.7351     H
H       0.0295   0.9577   0.2351     H
C      0.03069  0.65049  0.24695     C
C      0.03069  0.84951  0.74695     C
N      0.03734  0.68774  0.30426     N
N      0.03734  0.81226  0.80426     N
N      0.03766  0.50892  0.82685     N
N      0.03766  0.99108  0.32685     N
C      0.04519  0.55004  0.77981     C
C      0.04519  0.94996  0.27981     C
C      0.04556  0.64368  0.14492     C
C      0.04556  0.85632  0.64492     C
H       0.0486   0.7249   0.6033     H
H       0.0486   0.7751   0.1033     H
H       0.0531   0.1794   0.1818     H
H       0.0531   0.3206   0.6818     H
C       0.0535  0.67941  0.20056     C
C       0.0535  0.82059  0.70056     C
C       0.0643  0.74056  0.08272     C
C       0.0643  0.75944  0.58272     C
N      0.06603  0.67372  0.09628     N
N      0.06603  0.82628  0.59628     N
C      0.06775  0.53908  0.88398     C
C      0.06775  0.96092  0.38398     C
H       0.0701   0.5212   0.9244     H
H       0.0701   0.9788   0.4244     H
H       0.0737    0.722    0.207     H
H       0.0737    0.778    0.707     H
N      0.07761  0.74387  0.88561     N
N      0.07761  0.75613  0.38561     N
C      0.07911  0.60325  0.80979     C
C      0.07911  0.89675  0.30979     C
C      0.08913  0.74761  0.03464     C
C      0.08913  0.75239  0.53464     C
C      0.08948  0.72379  0.33797     C
C      0.08948  0.77621  0.83797     C
C      0.09105  0.64176  0.05534     C
C      0.09105  0.85824  0.55534     C
H       0.0917     0.64   0.7893     H
H       0.0917     0.86   0.2893     H
N      0.09299  0.59614  0.87536     N
N      0.09299  0.90386  0.37536     N
H       0.0939   0.7112   0.5154     H
H       0.0939   0.7888   0.0154     H
H       0.0966   0.5949    0.054     H
H       0.0966   0.9051    0.554     H
N      0.10675  0.68539  0.01742     N
N      0.10675  0.81461  0.51742     N
H       0.1294   0.7259   0.3289     H
H       0.1294   0.7741   0.8289     H
Zn     0.13937  0.66255  0.94414    Zn
Zn     0.13937  0.83745  0.44414    Zn
H       0.1987   0.5108   0.9365     H
H       0.1987   0.9892   0.4365     H
N      0.20057  0.58302  0.00101     N
N      0.20057  0.91698  0.50101     N
H         0.21   0.2202   0.6316     H
H         0.21   0.2798   0.1316     H
C      0.21487   0.5251  0.97968     C
C      0.21487   0.9749  0.47968     C
N      0.21858  0.70127  0.92616     N
N      0.21858  0.79873  0.42616     N
H       0.2208   0.6426   0.8528     H
H       0.2208   0.8574   0.3528     H
C      0.23513  0.58377  0.06562     C
C      0.23513  0.91623  0.56562     C
H       0.2353   0.6196   0.0938     H
H       0.2353   0.8804   0.5938     H
C      0.23997  0.67827  0.88072     C
C      0.23997  0.82173  0.38072     C
C      0.25106  0.24183  0.64274     C
C      0.25106  0.25817  0.14274     C
H       0.2532   0.1965   0.2175     H
H       0.2532   0.3035   0.7175     H
N      0.25578  0.01096  0.52799     N
N      0.25578  0.48904  0.02799     N
H       0.2574   0.7218   0.4905     H
H       0.2574   0.7782   0.9905     H
C      0.26062  0.74748  0.45557     C
C      0.26062  0.75252  0.95557     C
H       0.2607   0.1104   0.6036     H
H       0.2607   0.3896   0.1036     H
C      0.26861  0.52636  0.08293     C
C      0.26861  0.97364  0.58293     C
C      0.27518  0.21256  0.18958     C
C      0.27518  0.28744  0.68958     C
C      0.27652  0.12268  0.56981     C
C      0.27652  0.37732  0.06981     C
C      0.27805  0.07706  0.52273     C
C      0.27805  0.42294  0.02273     C
N       0.2936  0.71301  0.87951     N
N       0.2936  0.78699  0.37951     N
H       0.2955   0.5142   0.1246     H
H       0.2955   0.9858   0.6246     H
C      0.29903  0.18682  0.56545     C
C      0.29903  0.31318  0.06545     C
N      0.29961  0.23323  0.61415     N
N      0.29961  0.26677  0.11415     N
C      0.29995  0.09337  0.47331     C
C      0.29995  0.40663  0.97331     C
H       0.3007   0.0613    0.442     H
H       0.3007   0.4387    0.942     H
H       0.3063   0.6027   0.8223     H
C       0.3063  0.73963  0.42763     C
C       0.3063  0.76037  0.92763     C
H       0.3063   0.8973   0.3223     H
C      0.32133   0.1591  0.47001     C
C      0.32133   0.3409  0.97001     C
C      0.32219  0.20589  0.51674     C
C      0.32219  0.29411  0.01674     C
C      0.32786  0.70216  0.83517     C
C      0.32786  0.79784  0.33517     C
H       0.3284   0.2185   0.9097     H
H       0.3284   0.2815   0.4097     H
C      0.32849  0.63855  0.81035     C
C      0.32849  0.86145  0.31035     C
N      0.33673   0.1928  0.19065     N
N      0.33673   0.3072  0.69065     N
H       0.3382   0.2497   0.5152     H
H       0.3382   0.2503   0.0152     H
H       0.3406   0.7079   0.4385     H
H       0.3406   0.7921   0.9385     H
C      0.34263  0.24208  0.39432     C
C      0.34263  0.25792  0.89432     C
N      0.34449  0.17832  0.41888     N
N      0.34449  0.32168  0.91888     N
C      0.34999  0.22636    0.145     C
C      0.34999  0.27364    0.645     C
H        0.359   0.5807   0.6472     H
H        0.359   0.9193   0.1472     H
H       0.3591   0.7011   0.3362     H
H       0.3591   0.7989   0.8362     H
C       0.3603  0.74429  0.31905     C
C       0.3603  0.75571  0.81905     C
C      0.36241  0.62918  0.76787     C
C      0.36241  0.87082  0.26787     C
N      0.36483   0.5643  0.74172     N
N      0.36483   0.9357  0.24172     N
C      0.36491  0.23719  0.34424     C
C      0.36491  0.26281  0.84424     C
C        0.365  0.55009  0.68138     C
C        0.365  0.94991  0.18138     C
C      0.36852   0.1374   0.3834     C
C      0.36852   0.3626   0.8834     C
H       0.3689   0.2269   0.8178     H
H       0.3689   0.2731   0.3178     H
H       0.3735   0.6178   0.2491     H
H       0.3735   0.8822   0.7491     H
C      0.37442  0.50765  0.77518     C
C      0.37442  0.99235  0.27518     C
H       0.3753   0.0909   0.3907     H
H       0.3753   0.4091   0.8907     H
C      0.37537  0.01654  0.17992     C
C      0.37537  0.48346  0.67992     C
H       0.3766   0.5041   0.8187     H
H       0.3766   0.9959   0.3187     H
H       0.3786   0.0408   0.1442     H
H       0.3786   0.4592   0.6442     H
N      0.38042  0.04314  0.23863     N
N      0.38042  0.45686  0.73863     N
N      0.38121   0.1706  0.33737     N
N      0.38121   0.3294  0.83737     N
H       0.3893   0.2227   0.1351     H
H       0.3893   0.2773   0.6351     H
C      0.39468  0.74337  0.77654     C
C      0.39468  0.75663  0.27654     C
C      0.39561  0.68086  0.74971     C
C      0.39561  0.81914  0.24971     C
Zn     0.39798  0.13781  0.25982    Zn
Zn     0.39798  0.36219  0.75982    Zn
C      0.41312  0.63785  0.24898     C
C      0.41312  0.86215  0.74898     C
H       0.4182   0.6736   0.7199     H
H       0.4182   0.8264   0.2199     H
N      0.43012  0.70395  0.25974     N
N      0.43012  0.79605  0.75974     N
C      0.46376  0.60718  0.23821     C
C      0.46376  0.89282  0.73821     C
H        0.466    0.561   0.2296     H
H        0.466    0.939   0.7296     H
H       0.4865   0.2471   0.7395     H
H       0.4865   0.2529   0.2395     H
N      0.48757   0.1539  0.25827     N
N      0.48757   0.3461  0.75827     N
C      0.49042   0.7119  0.25507     C
C      0.49042   0.7881  0.75507     C
C      0.50958   0.2119  0.24493     C
C      0.50958   0.2881  0.74493     C
N      0.51243   0.6539  0.24173     N
N      0.51243   0.8461  0.74173     N
H       0.5135   0.7471   0.7605     H
H       0.5135   0.7529   0.2605     H
H        0.534    0.061   0.2704     H
H        0.534    0.439   0.7704     H
C      0.53624  0.10718  0.26179     C
C      0.53624  0.39282  0.76179     C
N      0.56988  0.20395  0.24026     N
N      0.56988  0.29605  0.74026     N
H       0.5818   0.1736   0.7801     H
H       0.5818   0.3264   0.2801     H
C      0.58688  0.13785  0.25102     C
C      0.58688  0.36215  0.75102     C
Zn     0.60202  0.63781  0.24017    Zn
Zn     0.60202  0.86219  0.74017    Zn
C      0.60439  0.18086  0.75029     C
C      0.60439  0.31914  0.25029     C
C      0.60532  0.24337  0.72346     C
C      0.60532  0.25663  0.22346     C
H       0.6107   0.7227   0.3649     H
H       0.6107   0.7773   0.8649     H
N      0.61879   0.6706  0.16263     N
N      0.61879   0.8294  0.66263     N
N      0.61958  0.54314  0.26137     N
N      0.61958  0.95686  0.76137     N
H       0.6214   0.5408   0.3558     H
H       0.6214   0.9592   0.8558     H
H       0.6234   0.0041   0.6813     H
H       0.6234   0.4959   0.1813     H
C      0.62463  0.51654  0.32008     C
C      0.62463  0.98346  0.82008     C
H       0.6247   0.5909   0.1093     H
H       0.6247   0.9091   0.6093     H
C      0.62558  0.00765  0.72482     C
C      0.62558  0.49235  0.22482     C
H       0.6265   0.1178   0.2509     H
H       0.6265   0.3822   0.7509     H
H       0.6311   0.7269   0.6822     H
H       0.6311   0.7731   0.1822     H
C      0.63148   0.6374   0.1166     C
C      0.63148   0.8626   0.6166     C
C        0.635  0.05009  0.81862     C
C        0.635  0.44991  0.31862     C
C      0.63509  0.73719  0.15576     C
C      0.63509  0.76281  0.65576     C
N      0.63517   0.0643  0.75828     N
N      0.63517   0.4357  0.25828     N
C      0.63759  0.12918  0.73213     C
C      0.63759  0.37082  0.23213     C
C       0.6397  0.24429  0.18095     C
C       0.6397  0.25571  0.68095     C
H       0.6409   0.2011   0.1638     H
H       0.6409   0.2989   0.6638     H
H        0.641   0.0807   0.8528     H
H        0.641   0.4193   0.3528     H
C      0.65001  0.72636    0.355     C
C      0.65001  0.77364    0.855     C
N      0.65551  0.67832  0.08112     N
N      0.65551  0.82168  0.58112     N
C      0.65737  0.74208  0.10568     C
C      0.65737  0.75792  0.60568     C
H       0.6594   0.2079   0.0615     H
H       0.6594   0.2921   0.5615     H
H       0.6618   0.7497   0.9848     H
H       0.6618   0.7503   0.4848     H
N      0.66327   0.6928  0.30935     N
N      0.66327   0.8072  0.80935     N
C      0.67151  0.13855  0.68965     C
C      0.67151  0.36145  0.18965     C
H       0.6716   0.7185   0.5903     H
H       0.6716   0.7815   0.0903     H
C      0.67214  0.20216  0.66483     C
C      0.67214  0.29784  0.16483     C
C      0.67781  0.70589  0.98326     C
C      0.67781  0.79411  0.48326     C
C      0.67867   0.6591  0.02999     C
C      0.67867   0.8409  0.52999     C
H       0.6937   0.1027   0.6777     H
C       0.6937  0.23963  0.07237     C
C       0.6937  0.26037  0.57237     C
H       0.6937   0.3973   0.1777     H
H       0.6993   0.5613    0.058     H
H       0.6993   0.9387    0.558     H
C      0.70005  0.59337  0.02669     C
C      0.70005  0.90663  0.52669     C
N      0.70039  0.73323  0.88585     N
N      0.70039  0.76677  0.38585     N
C      0.70097  0.68682  0.93455     C
C      0.70097  0.81318  0.43455     C
H       0.7045   0.0142   0.3754     H
H       0.7045   0.4858   0.8754     H
N       0.7064  0.21301  0.62049     N
N       0.7064  0.28699  0.12049     N
C      0.72195  0.57706  0.97727     C
C      0.72195  0.92294  0.47727     C
C      0.72348  0.62268  0.93019     C
C      0.72348  0.87732  0.43019     C
C      0.72482  0.71256  0.31042     C
C      0.72482  0.78744  0.81042     C
C      0.73139  0.02636  0.41707     C
C      0.73139  0.47364  0.91707     C
H       0.7393   0.6104   0.8964     H
H       0.7393   0.8896   0.3964     H
C      0.73938  0.24748  0.04443     C
C      0.73938  0.25252  0.54443     C
H       0.7426   0.2218   0.0095     H
H       0.7426   0.2782   0.5095     H
N      0.74422  0.51096  0.97201     N
N      0.74422  0.98904  0.47201     N
H       0.7468   0.6965   0.2825     H
H       0.7468   0.8035   0.7825     H
C      0.74894  0.74183  0.85726     C
C      0.74894  0.75817  0.35726     C
C      0.76003  0.17827  0.61928     C
C      0.76003  0.32173  0.11928     C
H       0.7647   0.1196   0.4062     H
H       0.7647   0.3804   0.9062     H
C      0.76487  0.08377  0.43438     C
C      0.76487  0.41623  0.93438     C
H       0.7792   0.1426   0.6472     H
H       0.7792   0.3574   0.1472     H
N      0.78142  0.20127  0.57384     N
N      0.78142  0.29873  0.07384     N
C      0.78513   0.0251  0.52032     C
C      0.78513   0.4749  0.02032     C
H         0.79   0.7202   0.8684     H
H         0.79   0.7798   0.3684     H
N      0.79943  0.08302  0.49899     N
N      0.79943  0.41698  0.99899     N
H       0.8013   0.0108   0.5635     H
H       0.8013   0.4892   0.0635     H
Zn     0.86063  0.16255  0.55586    Zn
Zn     0.86063  0.33745  0.05586    Zn
H       0.8706   0.2259   0.1711     H
H       0.8706   0.2741   0.6711     H
N      0.89325  0.18539  0.48258     N
N      0.89325  0.31461  0.98258     N
H       0.9034   0.0949    0.446     H
H       0.9034   0.4051    0.946     H
H       0.9061   0.2112   0.9846     H
H       0.9061   0.2888   0.4846     H
N      0.90701  0.09614  0.62464     N
N      0.90701  0.40386  0.12464     N
H       0.9083     0.14   0.7107     H
H       0.9083     0.36   0.2107     H
C      0.90895  0.14176  0.44466     C
C      0.90895  0.35824  0.94466     C
C      0.91052  0.22379  0.16203     C
C      0.91052  0.27621  0.66203     C
C      0.91087  0.24761  0.46536     C
C      0.91087  0.25239  0.96536     C
C      0.92089  0.10325  0.69021     C
C      0.92089  0.39675  0.19021     C
N      0.92239  0.24387  0.61439     N
N      0.92239  0.25613  0.11439     N
H       0.9263    0.222    0.293     H
H       0.9263    0.278    0.793     H
H       0.9299   0.0212   0.5756     H
H       0.9299   0.4788   0.0756     H
C      0.93225  0.03908  0.61602     C
C      0.93225  0.46092  0.11602     C
N      0.93397  0.17372  0.40372     N
N      0.93397  0.32628  0.90372     N
C       0.9357  0.24056  0.41728     C
C       0.9357  0.25944  0.91728     C
C       0.9465  0.17941  0.29944     C
C       0.9465  0.32059  0.79944     C
H       0.9469   0.6794   0.3182     H
H       0.9469   0.8206   0.8182     H
H       0.9514   0.2249   0.8967     H
H       0.9514   0.2751   0.3967     H
C      0.95444  0.14368  0.35508     C
C      0.95444  0.35632  0.85508     C
C      0.95481  0.05004  0.72019     C
C      0.95481  0.44996  0.22019     C
N      0.96234  0.00892  0.67315     N
N      0.96234  0.49108  0.17315     N
N      0.96266  0.18774  0.19574     N
N      0.96266  0.31226  0.69574     N
C      0.96931  0.15049  0.25305     C
C      0.96931  0.34951  0.75305     C
H       0.9705   0.0423   0.7649     H
H       0.9705   0.4577   0.2649     H
H       0.9838   0.5718   0.2698     H
H       0.9838   0.9282   0.7698     H
C      0.98445  0.08154  0.36515     C
C      0.98445  0.41846  0.86515     C
C      0.98448  0.23948  0.11822     C
C      0.98448  0.26052  0.61822     C
C      0.98951  0.69781  0.33165     C
C      0.98951  0.80219  0.83165     C
H       0.9898   0.0577   0.4036     H
H       0.9898   0.4423   0.9036     H
C      0.99352  0.55491  0.18216     C
C      0.99352  0.94509  0.68216     C
H       0.9937   0.7452   0.9101     H
H       0.9937   0.7548   0.4101     H
C      0.99988  0.08971  0.26177     C
C      0.99988  0.41029  0.76177     C
