data_I
_chemical_name_common  '/home/zhangsd/repos/MofS-CGCNN/ML/data/TSD/clean_cifs/XOCWIX_clean'
_cell_length_a 10.56260
_cell_length_b 11.45590
_cell_length_c 13.48390
_cell_angle_alpha 69.11200
_cell_angle_beta  78.88900
_cell_angle_gamma 63.61400
_space_group_name_H-M_alt      'P 1'


loop_
_space_group_symop_operation_xyz
  'x, y, z' 

loop_
_atom_site_label
_atom_site_fract_x
_atom_site_fract_y
_atom_site_fract_z
_atom_site_type_symbol
U          0.0      0.5      0.5     U
C       0.0023   0.6543     0.15     C
C       0.0146   0.2674   0.7862     C
H       0.0987   0.3632   0.9553     H
C       0.1057   0.7079   0.2751     C
O       0.1128   0.6383    0.372     O
C        0.113   0.3165   0.9072     C
O       0.1341    0.249   0.5224     O
C       0.1382   0.5344   0.1459     C
C        0.147   0.1662   0.7746     C
O       0.1491   0.4613   0.0881     O
H       0.1571   0.1115   0.7341     H
O       0.1855   0.7646   0.2291     O
O       0.2378   0.5042    0.199     O
C       0.2483   0.2187   0.8927     C
C       0.2557   0.2527   0.4921     C
O        0.263   0.3654   0.4632     O
C       0.2669    0.144   0.8226     C
H       0.2862   0.0002   0.5831     H
O        0.327   0.1952   0.0519     O
C       0.3634   0.1957   0.9554     C
C       0.3719   0.0004   0.5499     C
U      0.37684  0.28659  0.16333     U
C        0.382   0.1257   0.4943     C
Ho     0.40058  0.76852   0.2495    Ho
C       0.4074   0.0424   0.7978     C
O       0.4168   0.9221   0.8175     O
O        0.417   0.6973   0.5801     O
C       0.4717   0.7442    0.622     C
O       0.4816   0.1806   0.9151     O
C        0.491   0.8737   0.5561     C
O       0.4973    0.306   0.2816     O
O       0.4977   0.9199    0.246     O
O       0.5023   0.0801    0.754     O
O       0.5027    0.694   0.7184     O
C        0.509   0.1263   0.4439     C
O       0.5184   0.8194   0.0849     O
C       0.5283   0.2558    0.378     C
O        0.583   0.3027   0.4199     O
O       0.5832   0.0779   0.1825     O
C       0.5926   0.9576   0.2022     C
Ho     0.59942  0.23148   0.7505    Ho
C        0.618   0.8743   0.5057     C
U      0.62316  0.71341  0.83667     U
C       0.6281   0.9996   0.4501     C
C       0.6366   0.8043   0.0446     C
O        0.673   0.8048   0.9481     O
H       0.7138   0.9998   0.4169     H
C       0.7331    0.856   0.1774     C
O        0.737   0.6346   0.5368     O
C       0.7443   0.7473   0.5079     C
C       0.7517   0.7813   0.1073     C
O       0.7622   0.4958    0.801     O
O       0.8145   0.2354   0.7709     O
H       0.8429   0.8885   0.2659     H
O       0.8509   0.5387   0.9119     O
C        0.853   0.8338   0.2254     C
C       0.8618   0.4656   0.8541     C
O       0.8659    0.751   0.4776     O
C        0.887   0.6835   0.0928     C
O       0.8872   0.3617    0.628     O
C       0.8943   0.2921   0.7249     C
H       0.9013   0.6368   0.0447     H
C       0.9854   0.7326   0.2138     C
C       0.9977   0.3457     0.85     C
