data_I
_chemical_name_common  '/home/zhangsd/repos/MofS-CGCNN/ML/data/TSD/clean_cifs/XOFTIW_clean'
_cell_length_a  7.10540
_cell_length_b 18.24190
_cell_length_c 24.94770
_cell_angle_alpha 90.00000
_cell_angle_beta  90.00000
_cell_angle_gamma 99.52200
_space_group_name_H-M_alt      'P 1'


loop_
_space_group_symop_operation_xyz
  'x, y, z' 

loop_
_atom_site_label
_atom_site_fract_x
_atom_site_fract_y
_atom_site_fract_z
_atom_site_type_symbol
I          0.0      0.5      0.0     I
I          0.0      0.5      0.5     I
I       0.0183  0.55714  0.17015     I
I       0.0183  0.55714  0.32985     I
C       0.0231   0.3487   0.1567     C
C       0.0231   0.3487   0.3433     C
C       0.0242    0.783   0.6486     C
C       0.0242    0.783   0.8514     C
C       0.0535   0.1458   0.1376     C
C       0.0535   0.1458   0.3624     C
O       0.0597   0.9128   0.6297     O
O       0.0597   0.9128   0.8703     O
O       0.0793  0.05058  0.56302     O
O       0.0793  0.05058  0.93698     O
C       0.0961   0.2848   0.1472     C
C       0.0961   0.2848   0.3528     C
H       0.0999   0.1692   0.6203     H
H       0.0999   0.1692   0.8797     H
H       0.1059   0.3939   0.1557     H
H       0.1059   0.3939   0.3443     H
H       0.1126   0.2934   0.6366     H
H       0.1126   0.2934   0.8634     H
H       0.1196   0.2667     0.75     H
C       0.1212   0.2031   0.5922     C
C       0.1212   0.2031   0.9078     C
C       0.1274   0.2778   0.6016     C
C       0.1274   0.2778   0.8984     C
C       0.1441   0.0976   0.5284     C
C       0.1441   0.0976   0.9716     C
C       0.1469   0.1789  0.54057     C
C       0.1469   0.1789  0.95943     C
N       0.1536   0.3288   0.5629     N
N       0.1536   0.3288   0.9371     N
N       0.1616   0.6507   0.6674     N
N       0.1616   0.6507   0.8326     N
Cu     0.17371  0.43896  0.58014    Cu
Cu     0.17371  0.43896  0.91986    Cu
C       0.1756   0.2313   0.5005     C
C       0.1756   0.2313   0.9995     C
C       0.1765   0.3051   0.5129     C
C       0.1765   0.3051   0.9871     C
H       0.1937   0.3399   0.0147     H
H       0.1937   0.3399   0.4853     H
H       0.1942   0.2172   0.0346     H
H       0.1942   0.2172   0.4654     H
O        0.195   0.8447     0.25     O
O       0.2092   0.0831  0.01652     O
O       0.2092   0.0831  0.48348     O
C       0.2131   0.7829   0.6585     C
C       0.2131   0.7829   0.8415     C
Ce     0.22118   0.0162  0.09859    Ce
Ce     0.22118   0.0162  0.40141    Ce
H       0.2252    0.287   0.1398     H
H       0.2252    0.287   0.3602     H
Cu     0.23017  0.43386     0.75    Cu
O       0.2307   0.1492   0.1359     O
O       0.2307   0.1492   0.3641     O
H       0.2346   0.7088     0.25     H
Cu     0.25102  0.55361  0.68316    Cu
Cu     0.25102  0.55361  0.81684    Cu
C       0.2521   0.2721     0.75     C
H        0.257    0.162     0.75     H
C       0.2759   0.7162   0.6678     C
C       0.2759   0.7162   0.8322     C
H       0.2989   0.8273    0.659     H
H       0.2989   0.8273    0.841     H
O       0.3012  0.91989  0.03045     O
O       0.3012  0.91989  0.46955     O
H       0.3052   0.8045    0.527     H
H       0.3052   0.8045    0.973     H
H       0.3205   0.6823   0.5457     H
H       0.3205   0.6823   0.9543     H
C       0.3262   0.7722   0.0004     C
C       0.3262   0.7722   0.4996     C
C       0.3275   0.8754   0.0671     C
C       0.3275   0.8754   0.4329     C
O       0.3335   0.8932  0.11552     O
O       0.3335   0.8932  0.38448     O
C       0.3342   0.2084     0.75     C
C       0.3377    0.699   0.5106     C
C       0.3377    0.699   0.9894     C
C       0.3461   0.7969   0.0524     C
C       0.3461   0.7969   0.4476     C
N        0.352   0.3405     0.75     N
C       0.3672   0.7154     0.25     C
C       0.3699   0.8545     0.25     C
N       0.3725    0.651  0.02728     N
N       0.3725    0.651  0.47272     N
C       0.3776   0.7468    0.092     C
C       0.3776   0.7468    0.408     C
Cu     0.37816  0.54422  0.00769    Cu
Cu     0.37816  0.54422  0.49231    Cu
H       0.3827   0.6073     0.25     H
H         0.39   0.7616   0.1277     H
H         0.39   0.7616   0.3723     H
C       0.3902    0.675   0.0777     C
C       0.3902    0.675   0.4223     C
H       0.4049   0.7172   0.6747     H
H       0.4049   0.7172   0.8253     H
H        0.412   0.6418   0.1043     H
H        0.412   0.6418   0.3957     H
C       0.4571   0.6543     0.25     C
C       0.4709   0.7866     0.25     C
O       0.4746   0.9164     0.25     O
I      0.47477  0.44189     0.25     I
I      0.49078  0.47042  0.08924     I
I      0.49078  0.47042  0.41076     I
I      0.50922  0.52958  0.58924     I
I      0.50922  0.52958  0.91076     I
I      0.52523  0.55811     0.75     I
O       0.5254   0.0836     0.75     O
C       0.5291   0.2134     0.75     C
C       0.5429   0.3457     0.75     C
H        0.588   0.3582   0.6043     H
H        0.588   0.3582   0.8957     H
H       0.5951   0.2828   0.1747     H
H       0.5951   0.2828   0.3253     H
C       0.6098    0.325   0.5777     C
C       0.6098    0.325   0.9223     C
H         0.61   0.2384   0.6277     H
H         0.61   0.2384   0.8723     H
H       0.6173   0.3927     0.75     H
Cu     0.62184  0.45578  0.50769    Cu
Cu     0.62184  0.45578  0.99231    Cu
C       0.6224   0.2532    0.592     C
C       0.6224   0.2532    0.908     C
N       0.6275    0.349  0.52728     N
N       0.6275    0.349  0.97272     N
C       0.6301   0.1455     0.75     C
C       0.6328   0.2846     0.75     C
N        0.648   0.6595     0.25     N
C       0.6539   0.2031   0.5524     C
C       0.6539   0.2031   0.9476     C
C       0.6623    0.301   0.0106     C
C       0.6623    0.301   0.4894     C
C       0.6658   0.7916     0.25     C
O       0.6665   0.1068  0.61552     O
O       0.6665   0.1068  0.88448     O
C       0.6725   0.1246   0.5671     C
C       0.6725   0.1246   0.9329     C
C       0.6738   0.2278   0.5004     C
C       0.6738   0.2278   0.9996     C
H       0.6795   0.3177   0.0457     H
H       0.6795   0.3177   0.4543     H
H       0.6948   0.1955    0.027     H
H       0.6948   0.1955    0.473     H
O       0.6988  0.08011  0.53045     O
O       0.6988  0.08011  0.96955     O
H       0.7011   0.1727    0.159     H
H       0.7011   0.1727    0.341     H
C       0.7241   0.2838   0.1678     C
C       0.7241   0.2838   0.3322     C
H        0.743    0.838     0.25     H
C       0.7479   0.7279     0.25     C
Cu     0.74898  0.44639  0.18316    Cu
Cu     0.74898  0.44639  0.31684    Cu
H       0.7654   0.2912     0.75     H
O       0.7693   0.8508   0.6359     O
O       0.7693   0.8508   0.8641     O
Cu     0.76983  0.56614     0.25    Cu
H       0.7748    0.713   0.6398     H
H       0.7748    0.713   0.8602     H
Ce     0.77882   0.9838  0.59859    Ce
Ce     0.77882   0.9838  0.90141    Ce
C       0.7869   0.2171   0.1585     C
C       0.7869   0.2171   0.3415     C
O       0.7908   0.9169  0.51652     O
O       0.7908   0.9169  0.98348     O
O        0.805   0.1553     0.75     O
H       0.8058   0.7828   0.5346     H
H       0.8058   0.7828   0.9654     H
H       0.8063   0.6601   0.5147     H
H       0.8063   0.6601   0.9853     H
C       0.8235   0.6949   0.0129     C
C       0.8235   0.6949   0.4871     C
C       0.8244   0.7687   0.0005     C
C       0.8244   0.7687   0.4995     C
Cu     0.82629  0.56104  0.08014    Cu
Cu     0.82629  0.56104  0.41986    Cu
N       0.8384   0.3493   0.1674     N
N       0.8384   0.3493   0.3326     N
N       0.8464   0.6712   0.0629     N
N       0.8464   0.6712   0.4371     N
C       0.8531   0.8211  0.04057     C
C       0.8531   0.8211  0.45943     C
C       0.8559   0.9024   0.0284     C
C       0.8559   0.9024   0.4716     C
C       0.8726   0.7222   0.1016     C
C       0.8726   0.7222   0.3984     C
C       0.8788   0.7969   0.0922     C
C       0.8788   0.7969   0.4078     C
H       0.8804   0.7333     0.25     H
H       0.8874   0.7066   0.1366     H
H       0.8874   0.7066   0.3634     H
H       0.8941   0.6061   0.6557     H
H       0.8941   0.6061   0.8443     H
H       0.9001   0.8308   0.1203     H
H       0.9001   0.8308   0.3797     H
C       0.9039   0.7152   0.6472     C
C       0.9039   0.7152   0.8528     C
O       0.9207  0.94942  0.06302     O
O       0.9207  0.94942  0.43698     O
O       0.9403   0.0872   0.1297     O
O       0.9403   0.0872   0.3703     O
C       0.9465   0.8542   0.6376     C
C       0.9465   0.8542   0.8624     C
C       0.9758    0.217   0.1486     C
C       0.9758    0.217   0.3514     C
C       0.9769   0.6513   0.6567     C
C       0.9769   0.6513   0.8433     C
I       0.9817  0.44286  0.67015     I
I       0.9817  0.44286  0.82985     I
