data_I
_chemical_name_common  '/home/zhangsd/repos/MofS-CGCNN/ML/data/TSD/clean_cifs/XOGXAU_clean'
_cell_length_a 13.96800
_cell_length_b 14.61100
_cell_length_c 20.56600
_cell_angle_alpha 75.25000
_cell_angle_beta  85.51000
_cell_angle_gamma 69.00000
_space_group_name_H-M_alt      'P 1'


loop_
_space_group_symop_operation_xyz
  'x, y, z' 

loop_
_atom_site_label
_atom_site_fract_x
_atom_site_fract_y
_atom_site_fract_z
_atom_site_type_symbol
Cd         0.0      0.5      0.5    Cd
C       0.0035   0.8232   0.5759     C
C       0.0049   0.1771   0.0074     C
Cd     0.00972  0.23957  0.55974    Cd
C       0.0237   0.8884   0.6733     C
C        0.025   0.2489   0.0317     C
H       0.0263     0.71    0.946     H
O       0.0308   0.8553   0.3403     O
O       0.0311   0.7066   0.3419     O
H       0.0336   0.2911   0.3654     H
H       0.0343     0.95   0.6746     H
N       0.0372   0.8252   0.5127     N
C         0.04   0.7888   0.3108     C
N        0.046   0.8701   0.6066     N
H       0.0474   0.1032   0.3162     H
H       0.0598   0.6758   0.2247     H
C       0.0672   0.8046   0.2383     C
H       0.0689   0.8074   0.7698     H
C         0.07   0.2248   0.3923     C
H       0.0718   0.0713   0.9558     H
C       0.0737   0.7336   0.2027     C
C        0.083   0.1195   0.9732     C
H       0.0835   0.9375   0.2277     H
H       0.0867    0.738   0.7201     H
C       0.0878   0.8885   0.2051     C
H       0.0924   0.8487   0.8801     H
C       0.0939   0.7993   0.7255     C
C       0.0941   0.8399   0.9794     C
O        0.099   0.5918   0.4978     O
C          0.1   0.7457   0.1359     C
C        0.102   0.8797   0.5019     C
H       0.1035   0.6968   0.1135     H
C       0.1061   0.9067   0.5617     C
H       0.1095   0.2301   0.4265     H
H        0.115   0.1848   0.3643     H
C       0.1151   0.9018   0.1381     C
O        0.116   0.3334   0.5209     O
C       0.1203   0.2608   0.0234     C
C        0.121   0.8309   0.1025     C
C       0.1288   0.8546   0.9138     C
H       0.1297   0.9593   0.1165     H
H       0.1323   0.3085   0.0409     H
O       0.1391   0.5444   0.6069     O
C       0.1514   0.8462   0.0306     C
H       0.1526    0.888   0.4067     H
C       0.1548   0.5832   0.5475     C
C       0.1581    0.905   0.4465     C
C       0.1711    0.961   0.5658     C
H       0.1743   0.9811   0.6047     H
C       0.1762   0.1318   0.9644     C
O       0.1915   0.1782   0.5771     O
C       0.1959   0.2024   0.9897     C
C       0.1967   0.2609   0.5462     C
C       0.2027   0.7846   0.7239     C
H       0.2104   0.8458    0.729     H
H       0.2133   0.4876   0.0092     H
C        0.216   0.8778    0.898     C
C       0.2223   0.9558   0.4512     C
H       0.2271   0.0921    0.941     H
H       0.2285   0.7753     0.68     H
C       0.2292   0.9832   0.5109     C
H       0.2368     0.89   0.8536     H
H       0.2391   0.6329   0.4327     H
C       0.2418   0.8669   0.0137     C
C       0.2442   0.6184   0.5307     C
H       0.2455    0.708   0.8205     H
H       0.2461    0.409   0.4625     H
H       0.2477    0.534   0.1008     H
H       0.2585   0.6361   0.7729     H
C       0.2612   0.5192   0.0053     C
H       0.2615   0.9722   0.4145     H
H       0.2657   0.7768   0.3357     H
C       0.2684   0.6971   0.7764     C
H       0.2722   0.6214   0.6245     H
C       0.2735   0.8831   0.9483     C
H       0.2736   0.0168   0.5134     H
C       0.2768   0.6369   0.4665     C
C       0.2804   0.5496   0.0605     C
H       0.2809   0.8697   0.0473     H
C       0.2955   0.6303   0.5806     C
C       0.2962   0.2784   0.5346     C
C       0.2979   0.2155   0.9788     C
H       0.2987   0.5105   0.9113     H
C       0.3038   0.3622    0.487     C
O       0.3093   0.2881   0.9938     O
C       0.3096   0.5342    0.947     C
H        0.315   0.7935   0.2268     H
C       0.3316   0.7386   0.3254     C
C       0.3457   0.6015   0.0577     C
H       0.3565   0.6239    0.094     H
C       0.3607   0.7476   0.2605     C
C       0.3648   0.6617   0.4489     C
O       0.3707    0.154   0.9551     O
C       0.3708   0.9092   0.9314     C
C       0.3763   0.5864   0.9417     C
H        0.378   0.1524   0.6018     H
H       0.3784    0.307   0.0994     H
C       0.3797   0.6811   0.7712     C
C       0.3811   0.6556   0.5646     C
C       0.3824   0.2092   0.5705     C
O       0.3859   0.9466   0.8736     O
H       0.3889   0.7429   0.7736     H
C       0.3934   0.6178   0.9979     C
C       0.3969   0.3754   0.4763     C
C       0.3999   0.6722   0.3771     C
H        0.402   0.4306   0.4436     H
H       0.4023   0.6694   0.7273     H
H       0.4113   0.4179   0.7161     H
H       0.4162    0.662   0.5988     H
H       0.4163   0.3219   0.1644     H
C       0.4179   0.6722   0.4995     C
O       0.4276   0.8957   0.9811     O
O       0.4329   0.7808   0.1287     O
H       0.4335   0.5334   0.8276     H
O        0.437   0.3608   0.8459     O
N       0.4373   0.6161   0.8901     N
C       0.4374   0.2928   0.1264     C
C       0.4494   0.5937   0.8246     C
H       0.4583   0.4271   0.6051     H
C       0.4587   0.6893   0.2431     C
H       0.4664   0.8229   0.4158     H
N       0.4665   0.6639   0.9788     N
Cd     0.47019  0.26607  0.95945    Cd
H       0.4706    0.221   0.1418     H
C       0.4756    0.224   0.5599     C
C        0.476   0.3769    0.706     C
H       0.4797     0.42   0.1889     H
C       0.4827   0.3086   0.5132     C
C       0.4859   0.7029   0.1707     C
C        0.489   0.6623    0.915     C
C       0.4951   0.6163   0.3609     C
Cd         0.5      0.0      0.0    Cd
C       0.5049   0.3837   0.6391     C
C        0.511   0.3377    0.085     C
C       0.5141   0.2971   0.8293     C
C       0.5173   0.6914   0.4868     C
H       0.5203     0.58   0.8111     H
C        0.524   0.6231    0.294     C
C       0.5244    0.776   0.4401     C
H       0.5294    0.779   0.8582     H
Cd     0.52981  0.73393  0.04055    Cd
N       0.5335   0.3361   0.0212     N
H       0.5336   0.1771   0.5842     H
C       0.5413   0.3107   0.7569     C
H       0.5417   0.5729   0.3949     H
C       0.5506   0.4063   0.1754     C
C       0.5626   0.7072   0.8736     C
N       0.5627   0.3839   0.1099     N
O        0.563   0.6392   0.1541     O
H       0.5665   0.4666   0.1724     H
O       0.5671   0.2192   0.8713     O
O       0.5724   0.1043   0.0189     O
C       0.5821   0.3278   0.5005     C
H       0.5837   0.6781   0.8356     H
H       0.5838    0.338   0.4012     H
H       0.5887   0.5821   0.2839     H
H       0.5977   0.3306   0.2727     H
H        0.598   0.5694   0.5564     H
C       0.6001   0.3278   0.6229     C
C       0.6031   0.6246   0.5237     C
C       0.6066   0.3822   0.0021     C
H       0.6111   0.2571   0.2264     H
O       0.6141   0.0534   0.1264     O
C       0.6176   0.7908   0.4295     C
C       0.6189   0.3444   0.4354     C
C       0.6203   0.3189   0.2288     C
H       0.6216    0.693   0.9006     H
H        0.622   0.8476   0.3982     H
C       0.6237   0.4136   0.0583     C
C       0.6292   0.0908   0.0686     C
O       0.6293    0.846   0.0449     O
C       0.6352   0.3383   0.5511     C
C       0.6393   0.2524   0.7395     C
H       0.6435   0.3761    0.906     H
C       0.6543   0.3985   0.9423     C
C       0.6684   0.2614   0.6746     C
H        0.685   0.2065   0.7732     H
C       0.6904   0.4658    0.053     C
O       0.6907   0.7119   0.0062     O
C       0.6962   0.6378    0.513     C
H       0.7013   0.4895   0.0887     H
C       0.7021   0.7845   0.0212     C
C       0.7038   0.7216   0.4654     C
C       0.7045   0.3697   0.4194     C
H       0.7191   0.1303   0.9527     H
C       0.7196   0.4504   0.9395     C
C       0.7232   0.3631   0.5335     C
H       0.7264   0.9832   0.4866     H
C       0.7265   0.1169   0.0517     C
H       0.7278   0.3786   0.3755     H
C       0.7316   0.3029   0.2236     C
H       0.7343   0.2232   0.6643     H
H       0.7385   0.0278   0.5855     H
C       0.7388   0.4808   0.9947     C
H       0.7415   0.3639   0.2271     H
H       0.7523    0.466   0.8992     H
H       0.7539    0.591   0.5375     H
H       0.7545    0.292   0.1795     H
C       0.7558   0.3816   0.4693     C
C       0.7582   0.1331   0.9863     C
H       0.7609   0.3671   0.5673     H
H       0.7632     0.11   0.1464     H
C       0.7708   0.0168   0.4891     C
H       0.7715   0.2247     0.32     H
H       0.7729   0.9079    0.059     H
C       0.7777   0.0442   0.5488     C
C        0.784   0.1222    0.102     C
H       0.7867   0.5124   0.9908     H
H       0.7896   0.1542    0.271     H
C       0.7973   0.2154   0.2761     C
C       0.8033   0.7391   0.4538     C
C       0.8041   0.7976   0.0103     C
O       0.8085   0.8218   0.4229     O
C       0.8238   0.8682   0.0356     C
H       0.8257   0.0189   0.3953     H
C       0.8289    0.039   0.4342     C
C       0.8419    0.095   0.5535     C
C       0.8452   0.4168   0.4525     C
H       0.8474    0.112   0.5933     H
C       0.8486   0.1538   0.9694     C
O       0.8609   0.4556   0.3931     O
H       0.8677   0.6915   0.9591     H
H       0.8703   0.0407   0.8835     H
C       0.8712   0.1454   0.0862     C
C        0.879   0.1691   0.8975     C
C       0.8797   0.7392   0.9766     C
O        0.884   0.6666   0.4791     O
C       0.8849   0.0982   0.8619     C
H        0.885   0.8152   0.6357     H
H       0.8905   0.7699   0.5735     H
C       0.8939   0.0933   0.4383     C
H       0.8965   0.3032   0.8865     H
C        0.898   0.1203   0.4981     C
C          0.9   0.2543   0.8641     C
O        0.901   0.4082   0.5022     O
C       0.9059   0.1601   0.0206     C
C       0.9061   0.2007   0.2745     C
H       0.9076   0.1513   0.1199     H
C       0.9122   0.1115   0.7949     C
H       0.9133    0.262   0.2799     H
H       0.9165   0.0625   0.7723     H
C        0.917   0.8805   0.0268     C
C       0.9263   0.2664   0.7973     C
H       0.9282   0.9287   0.0442     H
C         0.93   0.7752   0.6077     C
H       0.9311   0.1926   0.2302     H
C       0.9328   0.1954   0.7617     C
H       0.9402   0.3242   0.7753     H
H       0.9526   0.8968   0.6838     H
N        0.954   0.1299   0.3934     N
C         0.96   0.2112   0.6892     C
N       0.9628   0.1748   0.4873     N
H       0.9657     0.05   0.3254     H
H       0.9664   0.7089   0.6346     H
O       0.9689   0.2934   0.6581     O
O       0.9692   0.1447   0.6597     O
H       0.9737     0.29    0.054     H
C        0.975   0.7511   0.9683     C
C       0.9763   0.1116   0.3267     C
Cd     0.99028  0.76043  0.44026    Cd
C       0.9951   0.8229   0.9926     C
C       0.9965   0.1768   0.4241     C
