data_I
_chemical_name_common  '/home/zhangsd/repos/MofS-CGCNN/ML/data/TSD/clean_cifs/XOJPIW_charged'
_cell_length_a 22.68270
_cell_length_b 22.68270
_cell_length_c 34.36900
_cell_angle_alpha 90.00000
_cell_angle_beta  90.00000
_cell_angle_gamma 120.00000
_space_group_name_H-M_alt      'P 1'


loop_
_space_group_symop_operation_xyz
  'x, y, z' 

loop_
_atom_site_label
_atom_site_fract_x
_atom_site_fract_y
_atom_site_fract_z
_atom_site_type_symbol
Ag      0.0001  0.62934  0.86343    Ag
Ag     0.00042  0.56881  0.36313    Ag
N       0.0036   0.5305  0.97193     N
C       0.0046   0.3385  0.12887     C
C       0.0063   0.6737   0.0996     C
N       0.0065   0.4737  0.25493     N
N       0.0077   0.5317  0.01333     N
N       0.0088    0.472  0.21283     N
O        0.014    0.718  0.32767     O
H       0.0142   0.3495  0.15507     H
C       0.0146   0.4984  0.69713     C
N       0.0154    0.563  0.91183     N
H       0.0156   0.6748   0.0731     H
C       0.0172   0.5017  0.65363     C
N       0.0178   0.5112  0.81373     N
C       0.0216   0.3297   0.6786     C
N       0.0216   0.5062  0.41273     N
C       0.0218   0.5144  0.57303     C
C        0.022    0.632  0.45933     C
N       0.0229   0.4607  0.31563     N
C       0.0243   0.5206  0.52963     C
C       0.0243   0.6943  0.55057     C
C        0.027   0.4996  0.77633     C
O         0.03    0.781  0.83323     O
H       0.0309   0.3308    0.705     H
C       0.0318   0.5284  0.44983     C
H       0.0319   0.3232   0.9107     H
O        0.033    0.248  0.39733     O
C        0.033   0.5884  0.94833     C
H       0.0339   0.7053  0.52447     H
C        0.034    0.684  0.98533     C
C       0.0405   0.5213  0.09193     C
C       0.0408   0.4518  0.27953     C
C       0.0424   0.3349  0.06387     C
C       0.0429   0.5277  0.13223     C
C       0.0451   0.7076   0.1653     C
C         0.05    0.347  0.27433     C
C       0.0568   0.3512  0.10307     C
H       0.0571   0.4263  0.76483     H
C        0.059   0.7093   0.1258     C
C       0.0604   0.3636   0.6128     C
C       0.0621   0.6906  0.61557     C
C       0.0671   0.6011  0.46573     C
O        0.072     0.49  0.71513     O
C       0.0721    0.474  0.75903     C
C       0.0734   0.6614  0.96243     C
C       0.0743   0.3653   0.6523     C
C       0.0765    0.707  0.57647     C
O        0.077    0.288   0.8874     O
H       0.0773   0.3434  0.04667     H
C        0.079    0.333   0.9116     C
C       0.0796   0.5374  0.63473     C
H       0.0799   0.6032  0.49303     H
H       0.0804   0.7315   0.1828     H
H       0.0808    0.541  0.07763     H
H       0.0816   0.4226  0.23793     H
C       0.0818   0.5437  0.59443     C
C        0.082    0.756  0.33037     C
C       0.0837    0.421  0.26643     C
H       0.0845   0.5515  0.14483     H
C        0.088    0.329   0.9542     C
H        0.092   0.6505  0.98513     H
N       0.0931   0.4475   0.8867     N
H       0.0957   0.3875   0.5953     H
H        0.097   0.6992  0.63287     H
N       0.0981   0.6523  0.34587     N
C       0.0995   0.2816  0.38833     C
C       0.1017     0.82  0.84043     C
N        0.102   0.7053  0.84453     N
N       0.1041   0.3985  0.38213     N
C        0.114    0.849  0.88203     C
C        0.115    0.267  0.34693     C
C       0.1174   0.4072    0.899     C
H       0.1197    0.557  0.64903     H
C         0.12    0.824  0.31867     C
C       0.1201    0.717  0.33427     C
H        0.123   0.2675  0.40683     H
H       0.1233   0.8572  0.82153     H
H       0.1236   0.5676  0.58173     H
O        0.126    0.638  0.44033     O
C       0.1286   0.3827  0.11737     C
C       0.1297   0.7557    0.111     C
C       0.1302   0.3586  0.39193     C
C       0.1304   0.7723  0.83623     C
O        0.132    0.702  0.94733     O
Ag     0.13634  0.54211  0.36317    Ag
Ag     0.13675  0.59425  0.86343    Ag
N       0.1382   0.7577   0.0777     N
N       0.1396   0.3861  0.15047     N
H       0.1428   0.2661  0.15487     H
H       0.1445    0.877   0.0735     H
C        0.145    0.524  0.77173     C
N       0.1457   0.5121    0.881     N
C        0.146   0.4066   0.6667     C
N       0.1474   0.6837  0.83793     N
C        0.149   0.7405  0.56227     C
N       0.1508   0.6394  0.34607     N
C        0.151    0.265  0.21537     C
O        0.152     0.46  0.27433     O
C        0.152    0.885   0.0136     C
N       0.1524   0.4654  0.38653     N
C        0.176    0.296    0.652     C
C         0.18   0.2817  0.17377     C
C       0.1821   0.9005    0.055     C
N       0.1875   0.4507   0.9019     N
N       0.1894   0.7435  0.32737     N
N       0.1909    0.425    0.645     N
N        0.196   0.7654  0.58217     N
N       0.1971   0.7918  0.82553     N
N       0.1982   0.4044  0.40083     N
C       0.2058   0.5166   0.8902     C
N       0.2062   0.8018   0.0675     N
C       0.2073    0.736  0.82593     C
H       0.2079   0.6856   0.0628     H
N       0.2082   0.4053  0.15887     N
C       0.2092   0.6956  0.33547     C
O        0.211    0.923  0.55407     O
C       0.2116   0.4714  0.39883     C
O        0.215    0.967    0.064     O
O        0.219    0.249  0.16657     O
C        0.219    0.547  0.17667     C
C       0.2277   0.3581  0.16957     C
C       0.2284   0.8698   0.0586     C
N       0.2341   0.8091  0.31167     N
N       0.2346   0.4306   0.9155     N
O         0.24    0.532  0.10927     O
C        0.241    0.912  0.62087     C
N       0.2423   0.3805  0.41103     N
C        0.244    0.326   0.6637     C
C       0.2443    0.374  0.44433     C
N       0.2465   0.8604  0.81713     N
O        0.248    0.215  0.23067     O
O        0.249     0.03   0.9999     O
C        0.254    0.719   0.0717     C
C        0.254    0.921  0.57827     C
C       0.2541   0.8714  0.78403     C
N       0.2565   0.4459   0.6607     N
C        0.258    0.699   0.1092     C
O        0.259    0.686  0.52127     O
C       0.2595   0.4085   0.8956     C
C       0.2598   0.7884   0.0655     C
C       0.2606    0.854  0.33337     C
C        0.262   0.5355  0.14827     C
N       0.2632   0.8125  0.56857     N
C        0.264   0.4713  0.15927     C
C        0.265    0.114   0.0487     C
H       0.2656   0.6914  0.81693     H
H       0.2661   0.1233   0.9882     H
H       0.2661   0.9227  0.71333     H
C        0.267    0.152  0.18027     C
H       0.2675   0.1445  0.24017     H
H       0.2685   0.3489  0.51613     H
H       0.2689   0.6584  0.32927     H
C         0.27    0.642     0.88     C
C        0.272    0.599   0.6934     C
C       0.2735    0.738  0.81493     C
O        0.275    0.578   0.6246     O
C        0.277    0.577   0.8893     C
C         0.28    0.706  0.33027     C
C        0.281    0.535  0.40503     C
C       0.2816   0.1821  0.22167     C
C       0.2817   0.1017   0.0071     C
O        0.282    0.296    0.661     O
C        0.283   0.4031   0.6676     C
O        0.283    0.584  0.37553     O
O        0.288    0.211  0.72073     O
C       0.2898   0.8826  0.56567     C
C       0.2907   0.3497  0.45913     C
C        0.291   0.9257  0.31897     C
H       0.2913   0.9681  0.57737     H
H       0.2918   0.9043  0.26197     H
O        0.292     0.76  0.77593     O
C       0.2924   0.3375  0.49863     C
C       0.2925   0.9576  0.73053     C
C        0.293   0.3695   0.9098     C
C        0.294    0.574   0.6636     C
N       0.2944   0.8959   0.0488     N
C       0.2944   0.9432  0.76973     C
H       0.2947   0.3286   0.8578     H
N       0.2947   0.3967  0.17787     N
O        0.296    0.014  0.49433     O
C        0.296     0.12  0.48533     C
C        0.297     0.95    0.941     C
O        0.298     0.43  0.28067     O
H       0.2999   0.9691  0.37167     H
C          0.3    0.723  0.55597     C
H       0.3008   0.3978   0.9662     H
C        0.301    0.559  0.44253     C
O        0.301    0.717   0.0422     O
O        0.303    0.725  0.29127     O
C       0.3032   0.9396  0.27947     C
C       0.3044   0.5136   0.6688     C
C       0.3057     0.33   0.8839     C
O        0.308    0.848    0.941     O
C       0.3081   0.9784  0.34527     C
H       0.3086   0.5742  0.15027     H
C       0.3094   0.3715   0.9489     C
C       0.3108   0.7942  0.55687     C
N        0.313   0.8476   0.0532     N
O        0.314    0.573   0.8546     O
H       0.3144   0.5223  0.39613     H
C        0.316     0.35  0.31867     C
N       0.3163   0.4637  0.17127     N
H       0.3232   0.2913  0.74403     H
H       0.3252   0.3408  0.40643     H
C        0.326    0.082  0.49703     C
C       0.3263   0.3326  0.43293     C
C        0.327    0.728  0.36007     C
C        0.328    0.781  0.84333     C
H       0.3286   0.0339  0.69113     H
C        0.329    0.241  0.78753     C
C       0.3297   0.3081  0.51193     C
C         0.33   0.0243  0.71723     C
H       0.3308   0.2999  0.53833     H
C       0.3326   0.0063  0.26627     C
C        0.333    0.254  0.74493     C
C       0.3339   0.9954  0.79553     C
C       0.3349   0.2925   0.8972     C
H       0.3353   0.9858  0.82173     H
C       0.3373   0.9163   0.9331     C
C       0.3375   0.0451  0.33197     C
C       0.3385   0.3339   0.9622     C
C       0.3386    0.412  0.29577     C
H       0.3408   0.0156  0.23977     H
H        0.341   0.9184   0.9046     H
H       0.3416   0.6105   0.6626     H
H       0.3434   0.2661     0.88     H
C        0.347    0.297  0.10767     C
N       0.3477   0.4458   0.6792     N
H       0.3489   0.0804  0.34947     H
H       0.3495   0.3353   0.9884     H
H       0.3495   0.4415  0.31847     H
C       0.3497    0.059  0.29247     C
C         0.35    0.034    0.152     C
C       0.3512   0.2944   0.9364     C
N       0.3544   0.9069  0.55337     N
C        0.358    0.628  0.21333     C
C       0.3581   0.1304   0.0029     C
C       0.3586   0.2284  0.22527     C
N       0.3606   0.5114   0.6794     N
O        0.362    0.488  0.77367     O
C       0.3636   0.3032  0.44613     C
C       0.3653    0.291  0.48563     C
N       0.3664   0.8543  0.54767     N
C        0.368     0.39  0.79267     C
H       0.3692   0.9429   0.4315     H
C       0.3695   0.0765  0.74313     C
Ag     0.37066  0.37076  0.19677    Ag
Ag     0.37076   0.0001   0.0301    Ag
C       0.3715   0.0621  0.78223     C
C        0.372     0.73  0.54667     C
C        0.374   0.1297  0.27767     C
C        0.379    0.855   0.4384     C
N       0.3805   0.1382  0.24437     N
C       0.3827   0.2541   0.9507     C
N       0.3861   0.2465   0.9838     N
H       0.3875   0.2918  0.42863     H
H       0.3895   0.7311  0.99593     H
C         0.39    0.022    0.626     C
N       0.3967    0.102   0.0112     N
H       0.3968   0.4767  0.82637     H
H       0.3978    0.097  0.79953     H
N       0.3985   0.2944  0.21547     N
C       0.3989    0.466  0.79907     C
C        0.401    0.673  0.02673     C
C       0.4019   0.9279   0.4257     C
C       0.4031   0.1201  0.50093     C
N       0.4044   0.2062  0.23417     N
N       0.4053   0.1971   0.9922     N
Ag     0.40575   0.5425  0.19677    Ag
Ag     0.40577  0.86366  0.02983    Ag
C       0.4066   0.2606  0.50003     C
C       0.4072   0.2898  0.73233     C
C       0.4085    0.149  0.72893     C
C        0.411   0.9592   0.9462     C
C       0.4116   0.4446  0.28167     C
C        0.412   0.0734   0.1291     C
O        0.416    0.699  0.70887     O
O        0.418    0.928   0.3818     O
C        0.421   0.3373  0.09977     C
O        0.422    0.697  0.95793     O
H       0.4226    0.341  0.07127     H
C        0.423      0.7  0.22263     C
N        0.425   0.2341  0.47833     N
H       0.4258   0.7344   0.4836     H
C        0.426     0.72  0.99693     C
H       0.4263   0.3692  0.59817     H
O        0.427    0.741  0.18793     O
O         0.43    0.132    0.114     O
N       0.4306    0.196  0.74883     N
Ag     0.43119  0.43161  0.69647    Ag
Ag     0.43161  0.00042   0.5298    Ag
H       0.4324    0.556  0.91507     H
N        0.437   0.4524  0.24517     N
H       0.4373   0.8803   0.3157     H
N       0.4378   0.9771   0.9823     N
C        0.441    0.742  0.77587     C
H       0.4415    0.092   0.1518     H
H        0.443   0.5627  0.98237     H
H        0.444   0.8764   0.2484     H
C       0.4446    0.033    0.115     C
N       0.4458   0.0981  0.51253     N
N       0.4459   0.1894  0.49403     N
N       0.4475   0.3544  0.72003     N
H       0.4485    0.533  0.47817     H
N       0.4507   0.2632  0.73523     N
C       0.4518    0.411  0.11287     C
N       0.4524   0.0154   0.0785     N
C        0.453    0.672     0.51     C
C       0.4563   0.5381  0.92777     C
Ag      0.4575  0.86325   0.5301    Ag
C       0.4578   0.9204   0.3014     C
Ag     0.45789  0.59423   0.6965    Ag
H        0.459   0.5398  0.41097     H
O         0.46    0.308  0.10767     O
H       0.4602   0.9192   0.7443     H
N       0.4607   0.4378  0.14897     N
C       0.4619   0.9182   0.2611     C
C       0.4626   0.5422  0.96807     C
N       0.4632   0.9912   0.8795     N
N       0.4637   0.1474   0.0046     N
C       0.4645   0.7265   0.4816     C
C        0.465    0.746  0.73837     C
N       0.4654    0.313  0.21987     N
C        0.466   0.0671   0.6324     C
H        0.467   0.9155   0.8115     H
N       0.4672   0.9935   0.9216     N
O        0.468    0.708   0.4426     O
N       0.4683    0.476  0.34667     N
N       0.4695   0.4731  0.30527     N
C       0.4713   0.2073   0.9926     C
C       0.4714   0.2598  0.23217     C
C       0.4716   0.5034  0.78317     C
N        0.472   0.4632  0.04617     N
C       0.4723   0.5152  0.46557     C
C       0.4726    0.973    0.443     C
N       0.4731   0.0036   0.1386     N
N       0.4737   0.4672  0.08827     N
C        0.474   0.4019  0.59237     C
N        0.476   0.0077     0.18     N
C        0.476    0.621  0.10507     C
H       0.4767   0.0799   0.6597     H
H       0.4777   0.7921  0.72947     H
C       0.4787   0.5192  0.42527     C
C       0.4794   0.5037  0.86297     C
C       0.4808   0.9595   0.7586     C
C       0.4834   0.6892  0.22353     C
C       0.4838   0.9854   0.3638     C
C       0.4845   0.9828   0.3203     C
N       0.4846   0.9784   0.0794     N
C       0.4848   0.9571   0.7989     C
C       0.4856   0.5074  0.90637     C
C       0.4864   0.7908  0.00213     C
N       0.4879   0.6336  0.21433     N
O        0.488    0.126    0.607     O
N       0.4886   0.8492  0.01273     N
N       0.4888   0.5066  0.14707     N
O         0.49    0.418  0.54847     O
C       0.4926   0.9782   0.2397     C
N       0.4934   0.9822   0.4804     N
N       0.4938   0.5154  0.74607     N
C       0.4963   0.9757   0.1963     C
C       0.4966   0.9682   0.1165     C
C       0.4983   0.5155  0.98697     C
C       0.4984   0.4838  0.53047     C
C       0.4996   0.4726  0.60967     C
C       0.5004   0.5274  0.10967     C
C       0.5016   0.5162  0.03047     C
C       0.5017   0.4845  0.48697     C
C       0.5034   0.0318   0.6165     C
C       0.5037   0.0243   0.6963     C
N       0.5062   0.4846  0.24607     N
N       0.5066   0.0178   0.9804     N
C       0.5074   0.0218   0.7397     C
O         0.51    0.582  0.04847     O
N       0.5112   0.4934  0.64707     N
N       0.5114   0.1508  0.51273     N
O        0.512    0.874    0.107     O
N       0.5121   0.3664  0.71433     N
C       0.5136   0.2092  0.50213     C
C       0.5144   0.4926  0.40637     C
C       0.5152   0.0429   0.2989     C
N       0.5154   0.0216   0.5794     N
C       0.5155   0.0172   0.8203     C
C       0.5162   0.0146   0.8638     C
C       0.5166   0.3108  0.72353     C
C       0.5192   0.0405   0.2586     C
C       0.5206   0.4963  0.36297     C
C       0.5213   0.4808  0.92527     C
H       0.5223   0.2079  0.22947     H
H       0.5233   0.9201   0.1597     H
C        0.524    0.379  0.60507     C
N        0.524   0.9923     0.68     N
C        0.526   0.5981  0.09237     C
N       0.5263   0.5328  0.58827     N
N       0.5269   0.9964   0.6386     N
C       0.5274    0.027    0.943     C
C       0.5277   0.4848  0.96557     C
N        0.528   0.5368  0.54617     N
C       0.5284   0.4966  0.28317     C
C       0.5286   0.7402  0.73217     C
C       0.5287   0.7927   0.4926     C
N       0.5305   0.5269  0.80527     N
N       0.5317    0.524  0.84667     N
O        0.532    0.292   0.9426     O
N       0.5328   0.0065   0.4216     N
H        0.533   0.0845   0.3115     H
C        0.534   0.9329   0.1324     C
N       0.5346    0.687  0.71987     N
C        0.535    0.254  0.23837     C
C       0.5355   0.2735   0.9816     C
N       0.5363   0.8526   0.5046     N
N       0.5368   0.0088   0.3795     N
C       0.5374   0.4578  0.46807     C
C       0.5381   0.0818   0.7611     C
N       0.5393   0.5622  0.64897     N
H       0.5398   0.0808   0.2443     H
O         0.54    0.692  0.60767     O
H        0.541   0.4602  0.91097     H
Ag     0.54211  0.40577   0.1965    Ag
C       0.5422   0.0796   0.8014     C
Ag      0.5425  0.13675   0.0301    Ag
C       0.5437   0.4619  0.42777     C
C        0.547    0.328     0.01     C
N       0.5476   0.9846   0.5785     N
C       0.5482    0.589  0.61287     C
N       0.5493   0.7368  0.23523     N
H       0.5515    0.467  0.97817     H
N       0.5525   0.6456  0.22003     N
N       0.5541   0.8106  0.99403     N
N       0.5542   0.9019  0.01253     N
C       0.5554    0.967    0.615     C
H        0.556   0.1236   0.7484     H
H        0.557   0.4373  0.48237     H
H       0.5585    0.908   0.6518     H
C        0.559    0.258  0.27587     C
N       0.5622   0.0229   0.4823     N
H       0.5627   0.1197   0.8157     H
N        0.563   0.5476  0.74517     N
H       0.5676    0.444  0.41507     H
Ag     0.56839  0.99958   0.0298    Ag
Ag     0.56881  0.56839  0.19647    Ag
N       0.5694    0.804  0.24883     N
O         0.57    0.868    0.614     O
O        0.573    0.259  0.68793     O
H       0.5737   0.6308  0.09817     H
C        0.574     0.28  0.49693     C
H       0.5742   0.2656   0.9836     H
N        0.575   0.7659  0.97833     N
C        0.577      0.3  0.72263     C
H       0.5774    0.659  0.57127     H
O        0.578    0.303  0.45793     O
C        0.579   0.6627  0.59977     C
O        0.582    0.072   0.8818     O
O        0.584    0.301  0.20887     O
C        0.588   0.9266   0.6291     C
C       0.5884   0.5554  0.78167     C
C        0.589   0.0408   0.4462     C
C       0.5915    0.851  0.22893     C
C       0.5928   0.7102  0.23233     C
C       0.5934   0.7394    3e-05     C
Ag     0.59423  0.13634  0.52983    Ag
Ag     0.59425   0.4575  0.69677    Ag
N       0.5947   0.8029   0.4922     N
N       0.5956   0.7938  0.73417     N
C       0.5969   0.8799  0.00093     C
C       0.5981   0.0721   0.9257     C
C        0.599    0.327  0.52673     C
C       0.6011    0.534  0.29907     C
N       0.6015   0.7056  0.71547     N
H       0.6022    0.903  0.29953     H
H       0.6032   0.5233  0.32637     H
N       0.6033    0.898   0.5112     N
C         0.61    0.978    0.126     C
H       0.6105   0.2689  0.49593     H
H       0.6125   0.7082  0.92863     H
N       0.6139   0.7535   0.4838     N
C       0.6173   0.7459   0.4507     C
N       0.6195   0.8618  0.74437     N
C        0.621    0.145   0.9384     C
C        0.626   0.8703  0.77767     C
C        0.628     0.27  0.04667     C
C       0.6285   0.9379  0.28223     C
Ag     0.62924   0.9999   0.5301    Ag
Ag     0.62934  0.62924  0.69677    Ag
C       0.6305   0.9235  0.24313     C
H       0.6308   0.0571   0.9315     H
C        0.632     0.61  0.29267     C
N       0.6336   0.1457  0.04767     N
C       0.6347    0.709  0.98563     C
C       0.6364   0.6968  0.94613     C
O        0.638    0.512  0.27367     O
N       0.6394   0.4886   0.1794     N
C       0.6414   0.7716  0.72527     C
C       0.6419   0.8696   0.5029     C
C        0.642    0.372  0.71333     C
N       0.6456   0.0931  0.05337     N
C       0.6488   0.7056   0.4364     C
C         0.65    0.966    0.652     C
C       0.6503    0.941  0.79247     C
H       0.6505   0.5585  0.81847     H
H       0.6505   0.6647   0.4884     H
H       0.6511   0.9196  0.84947     H
N       0.6523   0.5542   0.1792     N
C        0.653    0.703  0.60767     C
H       0.6566   0.7339     0.38     H
H       0.6584   0.3895   0.1626     H
H        0.659   0.0816   0.4046     H
H       0.6592   0.9844  0.73977     H
C       0.6614    0.588  0.79577     C
C       0.6615   0.6661   0.4622     C
C       0.6625   0.9549  0.83197     C
C       0.6627   0.0837   0.4331     C
H       0.6647   0.0142  0.32173     H
C       0.6651   0.7075   0.3972     C
C       0.6661   0.0046  0.29553     C
C        0.667    0.746  0.24493     C
C       0.6674   0.9937  0.76627     C
H       0.6692   0.7001  0.03833     H
C         0.67   0.9757  0.21723     C
C       0.6703   0.6919  0.01193     C
C        0.671    0.759  0.28753     C
H       0.6714   0.9661  0.19113     H
C        0.672    0.219  0.34333     C
C        0.673    0.272  0.86007     C
C       0.6737   0.6674  0.93293     C
C        0.674    0.918  0.99703     C
H       0.6748   0.6592  0.90643     H
H       0.6768   0.7087  0.24403     H
N       0.6837   0.5363  0.67127     N
C        0.684     0.65  0.81867     C
H       0.6856   0.4777  0.89613     H
O        0.686    0.427   0.3546     O
N        0.687   0.1524   0.5532     N
C       0.6892   0.2058  0.05687     C
C       0.6906   0.6285   0.4489     C
H       0.6914   0.4258  0.65027     H
C       0.6919   0.0216  0.84527     C
O        0.692    0.152    0.441     O
C       0.6943     0.67   0.3839     C
C       0.6956   0.4864   0.1688     C
C       0.6968   0.0604  0.77947     C
O        0.697    0.275  0.79127     O
O        0.699    0.283   0.5422     O
C        0.699    0.441  0.94253     C
H       0.6992   0.6022   0.4662     H
C          0.7    0.277  0.05597     C
H       0.7001   0.0309  0.87167     H
O        0.702     0.57  0.78067     O
C        0.703     0.05    0.441     C
C        0.704     0.88  0.98533     C
O        0.704    0.986  0.99433     O
N       0.7053   0.6033  0.67787     N
H       0.7053   0.6714   0.3578     H
C       0.7056   0.0568  0.26973     C
N       0.7056   0.1041   0.5488     N
C        0.706    0.426   0.1636     C
C        0.707   0.6305   0.4098     C
C       0.7075   0.0424  0.23053     C
C       0.7076   0.6625  0.99863     C
O        0.708     0.24  0.27593     O
H       0.7082   0.0957  0.76197     H
H       0.7087   0.0319  0.07737     H
C        0.709   0.0743  0.81897     C
C       0.7093   0.6503  0.95913     C
C       0.7102   0.1174  0.06567     C
O        0.712    0.789  0.22073     O
O        0.717    0.416  0.87553     O
C        0.717   0.5969   0.1676     C
O        0.718    0.704    0.161     O
C       0.7183   0.8983   0.5071     C
C       0.7184   0.8179  0.72167     C
C        0.719    0.465  0.90503     C
C         0.72    0.294  0.83027     C
C        0.723    0.423   0.3893     C
O        0.725    0.422   0.1246     O
C       0.7265    0.262  0.31493     C
C        0.728    0.401   0.1934     C
C         0.73    0.358     0.38     C
H       0.7311   0.3416  0.82927     H
H       0.7315   0.6511  0.01613     H
H       0.7325   0.8555  0.74017     H
C        0.733    0.848  0.68027     C
H       0.7339   0.0773  0.21333     H
H       0.7339   0.8767   0.4882     H
H       0.7344   0.3086  0.31693     H
C        0.735    0.886   0.5487     C
C        0.736   0.5287  0.65927     C
N       0.7368   0.1875  0.06857     N
C        0.738   0.4645  0.64827     C
C       0.7394    0.146  0.83337     C
C       0.7402   0.2116   0.5655     C
C       0.7405   0.5915   0.3956     C
O        0.741    0.314  0.02127     O
C        0.742    0.301   0.6092     C
N       0.7435   0.5541   0.1607     N
C       0.7459   0.1286  0.28403     C
C        0.746    0.079  0.07827     C
C        0.746    0.281   0.5717     C
O        0.751     0.97   0.4999     O
O        0.752    0.785  0.73067     O
N       0.7535   0.1396  0.31713     N
C       0.7557    0.626  0.94433     C
C        0.756    0.674   0.1637     C
N       0.7577   0.6195  0.91103     N
C        0.759    0.088  0.12087     C
O         0.76    0.468  0.60927     O
N       0.7654   0.5694   0.4155     N
N       0.7659   0.1909  0.81167     N
C       0.7716   0.1302   0.5586     C
C       0.7723   0.6419  0.66957     C
C        0.781    0.453  0.67667     C
O        0.781    0.751  0.66657     O
O        0.785    0.033    0.564     O
C       0.7884   0.5286  0.89883     C
O        0.789    0.077  0.05407     O
C       0.7908   0.3044  0.83547     C
N       0.7918   0.5947  0.65887     N
H       0.7921   0.3144   0.5628     H
C       0.7927    0.264  0.32593     C
N       0.7938   0.1982   0.5675     N
C       0.7942   0.4834   0.3902     C
N       0.8018   0.5956  0.90083     N
N       0.8029   0.2082  0.32553     N
N        0.804   0.2346  0.08217     N
N       0.8091    0.575    0.145     N
N       0.8106   0.2565  0.82737     N
N       0.8125   0.5493   0.4019     N
C       0.8179   0.0995    0.555     C
C         0.82   0.7183  0.67377     C
C        0.824    0.704    0.152     C
N       0.8476   0.5346  0.88653     N
C        0.848    0.115   0.5136     C
O        0.848     0.54  0.77433     O
C        0.849    0.735  0.71537     C
N       0.8492   0.3606  0.84607     N
C        0.851   0.2595  0.06227     C
N       0.8526   0.3163  0.33793     N
C        0.854   0.5934   0.1667     C
N       0.8543   0.4879    0.381     N
C        0.855    0.476  0.27173     C
H       0.8555    0.123   0.5735     H
H       0.8572   0.7339  0.65487     H
N       0.8604   0.6139  0.65047     N
N       0.8618   0.2423   0.5777     N
Ag     0.86325  0.40575  0.36343    Ag
Ag     0.86366  0.45789  0.86317    Ag
O        0.868    0.298  0.44733     O
C       0.8696   0.2277  0.33623     C
C       0.8698   0.6414  0.89193     C
C       0.8703   0.2443    0.611     C
C       0.8714   0.6173  0.61737     C
O        0.874    0.362  0.94033     O
H       0.8764   0.4324  0.08173     H
H       0.8767   0.1428  0.32153     H
H        0.877   0.7325  0.90683     H
C       0.8799    0.283  0.83427     C
C         0.88    0.176  0.81867     C
H       0.8803    0.443  0.14903     H
C       0.8826   0.5928    0.399     C
C        0.885    0.733  0.84693     C
C        0.886    0.151  0.38203     C
N       0.8959   0.6015  0.88213     N
N        0.898   0.2947  0.34453     N
C       0.8983     0.18  0.34043     C
C       0.9005   0.7184  0.88833     C
N       0.9019   0.3477  0.84587     N
H        0.903   0.3008  0.13287     H
H       0.9043   0.6125   0.0953     H
N       0.9069   0.5525   0.3867     N
H        0.908   0.3495  0.48513     H
C        0.912    0.671   0.4542     C
H       0.9155   0.4485  0.64483     H
C       0.9163    0.579  0.76643     C
C        0.918    0.244  0.83037     C
C       0.9182   0.4563  0.09443     C
H       0.9184   0.5774  0.73793     H
H       0.9192    0.459  0.57763     H
H       0.9196   0.2685   0.6828     H
H       0.9201   0.3968  0.99303     H
C       0.9204   0.4626  0.13473     C
C        0.921    0.667   0.4116     C
H       0.9227   0.6566  0.54667     H
O        0.923    0.712   0.3874     O
C       0.9235    0.293  0.07647     C
C       0.9257   0.6347   0.1523     C
C       0.9266   0.3386  0.46243     C
C       0.9279    0.526  0.25903     C
O        0.928     0.51  0.21513     O
C       0.9329   0.3989  0.96573     C
C       0.9379   0.3094  0.11557     C
C       0.9396   0.6364   0.1128     C
C        0.941   0.2907   0.6258     C
H       0.9429   0.5737  0.26483     H
C       0.9432   0.6488  0.60307     C
C         0.95    0.653  0.77433     C
C       0.9549   0.2924   0.6653     C
C       0.9571   0.4723  0.63223     C
C       0.9576   0.6651  0.56387     C
C       0.9592   0.5482  0.77953     C
C       0.9595   0.4787  0.59193     C
C        0.966    0.316  0.48533     C
H       0.9661   0.2947  0.02447     H
C        0.967   0.4116  0.44833     C
O        0.967    0.752  0.89733     O
H       0.9681   0.6768   0.4107     H
C       0.9682   0.4716  0.94983     C
H       0.9691   0.6692    0.205     H
O         0.97    0.219  0.33323     O
C        0.973   0.5004  0.27633     C
C       0.9757   0.3057  0.05057     C
C       0.9757   0.4794  0.02963     C
N       0.9771   0.5393  0.81563     N
C        0.978    0.368  0.95933     C
C       0.9782   0.4856  0.07303     C
N       0.9784   0.4938  0.91273     N
C       0.9784   0.6703   0.1786     C
N       0.9822   0.4888  0.31373     N
C       0.9828   0.4983  0.15363     C
H       0.9844   0.3252   0.5731     H
N       0.9846    0.437  0.41183     N
C       0.9854   0.5016  0.19713     C
H       0.9858   0.6505  0.65507     H
O        0.986    0.282  0.82767     O
N       0.9912    0.528  0.71283     N
N       0.9923   0.4683  0.51333     N
N       0.9935   0.5263  0.75493     N
C       0.9937   0.3263   0.5996     C
C       0.9954   0.6615  0.62887     C
N       0.9964   0.4695  0.47193     N
Ag     0.99958  0.43119  0.86313    Ag
Ag      0.9999  0.37066  0.36343    Ag
