data_I
_chemical_name_common  '/home/zhangsd/repos/MofS-CGCNN/ML/data/TSD/clean_cifs/XOKHIP_clean'
_cell_length_a 12.20690
_cell_length_b 14.48110
_cell_length_c 28.55000
_cell_angle_alpha 90.00000
_cell_angle_beta  90.00000
_cell_angle_gamma 90.00000
_space_group_name_H-M_alt      'P 1'


loop_
_space_group_symop_operation_xyz
  'x, y, z' 

loop_
_atom_site_label
_atom_site_fract_x
_atom_site_fract_y
_atom_site_fract_z
_atom_site_type_symbol
H       0.0094   0.0174   0.4754     H
O       0.0128   0.8916   0.5633     O
H        0.013    0.037   0.3333     H
O       0.0196   0.9271   0.2511     O
C        0.023   0.0194   0.4048     C
C       0.0247   0.9552   0.8621     C
C        0.027   0.6534   0.1271     C
C       0.0275   0.9673   0.9472     C
C       0.0278   0.6147   0.6864     C
C       0.0336   0.5627    0.057     C
C       0.0414   0.5159   0.7549     C
O       0.0424   0.1168   0.2153     O
O       0.0427   0.0859   0.5984     O
H       0.0552   0.6645   0.6682     H
H       0.0583   0.6983   0.1474     H
C       0.0589   0.5199    0.243     C
H       0.0614   0.2244   0.2756     H
C       0.0671   0.4288   0.1742     C
C       0.0676    0.475   0.5671     C
H       0.0709   0.5441   0.0294     H
C       0.0759    0.387   0.6384     C
O        0.077   0.3428    0.103     O
O       0.0774    0.931   0.1782     O
H       0.0793   0.1804   0.5327     H
H       0.0799   0.4945   0.7817     H
O         0.08   0.8981   0.6353     O
C       0.0819   0.6274   0.0865     C
C       0.0843   0.8704   0.5929     C
C       0.0846   0.5842   0.7265     C
O       0.0862   0.3058   0.7104     O
C       0.0891   0.9052   0.2202     C
Br     0.09343   0.3667  0.34595    Br
Sm     0.11218   0.9743  0.70775    Sm
C       0.1148   0.4952   0.2023     C
Sm     0.11574    0.007  0.10508    Sm
C       0.1231   0.4506   0.6085     C
C       0.1237   0.2576    0.265     C
C       0.1237   0.4023   0.1301     C
Br     0.12382  0.60881  0.28388    Br
C        0.124   0.1182   0.6161     C
C        0.127   0.1546   0.1959     C
C       0.1307   0.9177   0.8638     C
C       0.1313   0.9319   0.9485     C
O       0.1314    0.905   0.7816     O
Br     0.13268  0.55747  0.52471    Br
O        0.133   0.9403   0.0306     O
C       0.1337   0.3624   0.6834     C
C       0.1422   0.2117   0.5442     C
Br       0.146  0.29012  0.45341    Br
O        0.166   0.0951   0.6551     O
C       0.1681   0.3298   0.2911     C
Zn     0.16846  0.31074  0.04906    Zn
Br      0.1695  0.97358  0.40276    Br
O       0.1703   0.1278   0.1581     O
Zn     0.17469  0.27699  0.76605    Zn
C       0.1754   0.2354   0.2216     C
H       0.1766   0.8635   0.5107     H
C       0.1792    0.195   0.5886     C
C       0.1797    0.809   0.5768     C
C       0.1825   0.8915   0.8172     C
H       0.1828   0.5229   0.1943     H
C       0.1845   0.9077   0.9061     C
C       0.1853   0.9194   0.9957     C
C       0.1875   0.8531   0.2342     C
C       0.1918   0.6288   0.7415     C
H        0.192   0.4775   0.6158     H
C       0.1925   0.6663    0.075     C
O       0.1941   0.7141   0.7419     O
C       0.1963   0.2741   0.5162     C
O       0.1973   0.7544   0.0736     O
H       0.1992   0.9149   0.2979     H
H       0.2036   0.7706   0.1772     H
H        0.207   0.7395   0.6387     H
C       0.2141   0.8223    0.531     C
O       0.2162    0.438   0.1207     O
O       0.2186   0.3836   0.9953     O
O       0.2212   0.3535   0.8194     O
O       0.2216   0.4016   0.6926     O
O        0.228   0.0787   0.7516     O
C       0.2307   0.7469   0.6073     C
O       0.2317   0.1124   0.0634     O
C        0.234   0.8724   0.2774     C
C       0.2346   0.7843    0.207     C
H       0.2427   0.3845   0.9067     H
H       0.2573   0.8845   0.9067     H
C       0.2654   0.2843    0.207     C
C        0.266   0.3724   0.2774     C
O       0.2683   0.6124   0.0634     O
C       0.2693   0.2469   0.6073     C
O        0.272   0.5787   0.7516     O
O       0.2784   0.9016   0.6926     O
O       0.2788   0.8535   0.8194     O
O       0.2814   0.8836   0.9953     O
O       0.2838    0.938   0.1207     O
C       0.2859   0.3223    0.531     C
H        0.293   0.2395   0.6387     H
H       0.2964   0.2706   0.1772     H
H       0.3008   0.4149   0.2979     H
O       0.3027   0.2544   0.0736     O
C       0.3037   0.7741   0.5162     C
O       0.3059   0.2141   0.7419     O
C       0.3075   0.1663    0.075     C
H        0.308   0.9775   0.6158     H
C       0.3082   0.1288   0.7415     C
C       0.3125   0.3531   0.2342     C
C       0.3147   0.4194   0.9957     C
C       0.3155   0.4077   0.9061     C
H       0.3172   0.0229   0.1943     H
C       0.3175   0.3915   0.8172     C
C       0.3203    0.309   0.5768     C
C       0.3208    0.695   0.5886     C
H       0.3234   0.3635   0.5107     H
C       0.3246   0.7354   0.2216     C
Zn     0.32531  0.77699  0.76605    Zn
O       0.3297   0.6278   0.1581     O
Br      0.3305  0.47358  0.40276    Br
Zn     0.33154  0.81074  0.04906    Zn
C       0.3319   0.8298   0.2911     C
O        0.334   0.5951   0.6551     O
Br       0.354  0.79012  0.45341    Br
C       0.3578   0.7117   0.5442     C
C       0.3663   0.8624   0.6834     C
O        0.367   0.4403   0.0306     O
Br     0.36732  0.05747  0.52471    Br
O       0.3686    0.405   0.7816     O
C       0.3687   0.4319   0.9485     C
C       0.3693   0.4177   0.8638     C
C        0.373   0.6546   0.1959     C
C        0.376   0.6182   0.6161     C
Br     0.37618  0.10881  0.28388    Br
C       0.3763   0.7576    0.265     C
C       0.3763   0.9023   0.1301     C
C       0.3769   0.9506   0.6085     C
Sm     0.38426    0.507  0.10508    Sm
C       0.3852   0.9952   0.2023     C
Sm     0.38782   0.4743  0.70775    Sm
Br     0.40657   0.8667  0.34595    Br
C       0.4109   0.4052   0.2202     C
O       0.4138   0.8058   0.7104     O
C       0.4154   0.0842   0.7265     C
C       0.4157   0.3704   0.5929     C
C       0.4181   0.1274   0.0865     C
O         0.42   0.3981   0.6353     O
H       0.4201   0.9945   0.7817     H
H       0.4207   0.6804   0.5327     H
O       0.4226    0.431   0.1782     O
O        0.423   0.8428    0.103     O
C       0.4241    0.887   0.6384     C
H       0.4291   0.0441   0.0294     H
C       0.4324    0.975   0.5671     C
C       0.4329   0.9288   0.1742     C
H       0.4386   0.7244   0.2756     H
C       0.4411   0.0199    0.243     C
H       0.4417   0.1983   0.1474     H
H       0.4448   0.1645   0.6682     H
O       0.4573   0.5859   0.5984     O
O       0.4576   0.6168   0.2153     O
C       0.4586   0.0159   0.7549     C
C       0.4664   0.0627    0.057     C
C       0.4722   0.1147   0.6864     C
C       0.4725   0.4673   0.9472     C
C        0.473   0.1534   0.1271     C
C       0.4753   0.4552   0.8621     C
C        0.477   0.5194   0.4048     C
O       0.4804   0.4271   0.2511     O
H        0.487    0.537   0.3333     H
O       0.4872   0.3916   0.5633     O
H       0.4906   0.5174   0.4754     H
H       0.5094   0.4826   0.9754     H
O       0.5128   0.6084   0.0633     O
H        0.513    0.463   0.8333     H
O       0.5196   0.5729   0.7511     O
C        0.523   0.4806   0.9048     C
C       0.5247   0.5448   0.3621     C
C        0.527   0.8466   0.6271     C
C       0.5275   0.5327   0.4472     C
C       0.5278   0.8853   0.1864     C
C       0.5336   0.9373    0.557     C
C       0.5414   0.9841   0.2549     C
O       0.5424   0.3832   0.7153     O
O       0.5427   0.4141   0.0984     O
H       0.5552   0.8355   0.1682     H
H       0.5583   0.8017   0.6474     H
C       0.5589   0.9801    0.743     C
H       0.5614   0.2756   0.7756     H
C       0.5671   0.0712   0.6742     C
C       0.5676    0.025   0.0671     C
H       0.5709   0.9559   0.5294     H
C       0.5759    0.113   0.1384     C
O        0.577   0.1572    0.603     O
O       0.5774    0.569   0.6782     O
H       0.5793   0.3196   0.0327     H
H       0.5799   0.0055   0.2817     H
O         0.58   0.6019   0.1353     O
C       0.5819   0.8726   0.5865     C
C       0.5843   0.6296   0.0929     C
C       0.5846   0.9158   0.2265     C
O       0.5862   0.1942   0.2104     O
C       0.5891   0.5948   0.7202     C
Br     0.59343   0.1333  0.84595    Br
Sm     0.61218   0.5257  0.20775    Sm
C       0.6148   0.0048   0.7023     C
Sm     0.61574    0.493  0.60508    Sm
C       0.6231   0.0494   0.1085     C
C       0.6237   0.0977   0.6301     C
C       0.6237   0.2424    0.765     C
Br     0.62382  0.89119  0.78388    Br
C        0.624   0.3818   0.1161     C
C        0.627   0.3454   0.6959     C
C       0.6307   0.5823   0.3638     C
C       0.6313   0.5681   0.4485     C
O       0.6314    0.595   0.2816     O
Br     0.63268  0.94253  0.02471    Br
O        0.633   0.5597   0.5306     O
C       0.6337   0.1376   0.1834     C
C       0.6422   0.2883   0.0442     C
Br       0.646  0.20988  0.95341    Br
O        0.666   0.4049   0.1551     O
C       0.6681   0.1702   0.7911     C
Zn     0.66846  0.18926  0.54906    Zn
Br      0.6695  0.52642  0.90276    Br
O       0.6703   0.3722   0.6581     O
Zn     0.67469  0.22301  0.26605    Zn
C       0.6754   0.2646   0.7216     C
H       0.6766   0.6365   0.0107     H
C       0.6792    0.305   0.0886     C
C       0.6797    0.691   0.0768     C
C       0.6825   0.6085   0.3172     C
H       0.6828   0.9771   0.6943     H
C       0.6845   0.5923   0.4061     C
C       0.6853   0.5806   0.4957     C
C       0.6875   0.6469   0.7342     C
C       0.6918   0.8712   0.2415     C
H        0.692   0.0225   0.1158     H
C       0.6925   0.8337    0.575     C
O       0.6941   0.7859   0.2419     O
C       0.6963   0.2259   0.0162     C
O       0.6973   0.7456   0.5736     O
H       0.6992   0.5851   0.7979     H
H       0.7036   0.7294   0.6772     H
H        0.707   0.7605   0.1387     H
C       0.7141   0.6777    0.031     C
O       0.7162    0.062   0.6207     O
O       0.7186   0.1164   0.4953     O
O       0.7212   0.1465   0.3194     O
O       0.7216   0.0984   0.1926     O
O        0.728   0.4213   0.2516     O
C       0.7307   0.7531   0.1073     C
O       0.7317   0.3876   0.5634     O
C        0.734   0.6276   0.7774     C
C       0.7346   0.7157    0.707     C
H       0.7427   0.1155   0.4067     H
H       0.7573   0.6155   0.4067     H
C       0.7654   0.2157    0.707     C
C        0.766   0.1276   0.7774     C
O       0.7683   0.8876   0.5634     O
C       0.7693   0.2531   0.1073     C
O        0.772   0.9213   0.2516     O
O       0.7784   0.5984   0.1926     O
O       0.7788   0.6465   0.3194     O
O       0.7814   0.6164   0.4953     O
O       0.7838    0.562   0.6207     O
C       0.7859   0.1777    0.031     C
H        0.793   0.2605   0.1387     H
H       0.7964   0.2294   0.6772     H
H       0.8008   0.0851   0.7979     H
O       0.8027   0.2456   0.5736     O
C       0.8037   0.7259   0.0162     C
O       0.8059   0.2859   0.2419     O
C       0.8075   0.3337    0.575     C
H        0.808   0.5225   0.1158     H
C       0.8082   0.3712   0.2415     C
C       0.8125   0.1469   0.7342     C
C       0.8147   0.0806   0.4957     C
C       0.8155   0.0923   0.4061     C
H       0.8172   0.4771   0.6943     H
C       0.8175   0.1085   0.3172     C
C       0.8203    0.191   0.0768     C
C       0.8208    0.805   0.0886     C
H       0.8234   0.1365   0.0107     H
C       0.8246   0.7646   0.7216     C
Zn     0.82531  0.72301  0.26605    Zn
O       0.8297   0.8722   0.6581     O
Br      0.8305  0.02642  0.90276    Br
Zn     0.83154  0.68926  0.54906    Zn
C       0.8319   0.6702   0.7911     C
O        0.834   0.9049   0.1551     O
Br       0.854  0.70988  0.95341    Br
C       0.8578   0.7883   0.0442     C
C       0.8663   0.6376   0.1834     C
O        0.867   0.0597   0.5306     O
Br     0.86732  0.44253  0.02471    Br
O       0.8686    0.095   0.2816     O
C       0.8687   0.0681   0.4485     C
C       0.8693   0.0823   0.3638     C
C        0.873   0.8454   0.6959     C
C        0.876   0.8818   0.1161     C
Br     0.87618  0.39119  0.78388    Br
C       0.8763   0.5977   0.6301     C
C       0.8763   0.7424    0.765     C
C       0.8769   0.5494   0.1085     C
Sm     0.88426    0.993  0.60508    Sm
C       0.8852   0.5048   0.7023     C
Sm     0.88782   0.0257  0.20775    Sm
Br     0.90657   0.6333  0.84595    Br
C       0.9109   0.0948   0.7202     C
O       0.9138   0.6942   0.2104     O
C       0.9154   0.4158   0.2265     C
C       0.9157   0.1296   0.0929     C
C       0.9181   0.3726   0.5865     C
O         0.92   0.1019   0.1353     O
H       0.9201   0.5055   0.2817     H
H       0.9207   0.8196   0.0327     H
O       0.9226    0.069   0.6782     O
O        0.923   0.6572    0.603     O
C       0.9241    0.613   0.1384     C
H       0.9291   0.4559   0.5294     H
C       0.9324    0.525   0.0671     C
C       0.9329   0.5712   0.6742     C
H       0.9386   0.7756   0.7756     H
C       0.9411   0.4801    0.743     C
H       0.9417   0.3017   0.6474     H
H       0.9448   0.3355   0.1682     H
O       0.9573   0.9141   0.0984     O
O       0.9576   0.8832   0.7153     O
C       0.9586   0.4841   0.2549     C
C       0.9664   0.4373    0.557     C
C       0.9722   0.3853   0.1864     C
C       0.9725   0.0327   0.4472     C
C        0.973   0.3466   0.6271     C
C       0.9753   0.0448   0.3621     C
C        0.977   0.9806   0.9048     C
O       0.9804   0.0729   0.7511     O
H        0.987    0.963   0.8333     H
O       0.9872   0.1084   0.0633     O
H       0.9906   0.9826   0.9754     H
