data_I
_chemical_name_common  '/home/zhangsd/repos/MofS-CGCNN/ML/data/TSD/clean_cifs/XOMCOT_clean'
_cell_length_a 20.36500
_cell_length_b 20.11900
_cell_length_c 17.31100
_cell_angle_alpha 90.00000
_cell_angle_beta  103.16600
_cell_angle_gamma 90.00000
_space_group_name_H-M_alt      'P 1'


loop_
_space_group_symop_operation_xyz
  'x, y, z' 

loop_
_atom_site_label
_atom_site_fract_x
_atom_site_fract_y
_atom_site_fract_z
_atom_site_type_symbol
C      0.00725  0.09921   0.2709     C
C      0.00725  0.40079   0.7709     C
O      0.00797  0.15959   0.2623     O
O      0.00797  0.34041   0.7623     O
H        0.014   0.6055   0.0717     H
H        0.014   0.8945   0.5717     H
C      0.01646  0.15968   0.5784     C
C      0.01646  0.34032   0.0784     C
H       0.0229   0.2434   0.1119     H
H       0.0229   0.2566   0.6119     H
H        0.025   0.0612   0.5691     H
H        0.025   0.4388   0.0691     H
H       0.0352   0.6325   0.7681     H
H       0.0352   0.8675   0.2681     H
N      0.03591  0.66933  0.99113     N
N      0.03591  0.83067  0.49113     N
H       0.0361   0.5312   0.7856     H
H       0.0361   0.9688   0.2856     H
H        0.037   0.7447   0.7572     H
H        0.037   0.7553   0.2572     H
C      0.04018  0.21439    0.626     C
C      0.04018  0.28561    0.126     C
C       0.0419  0.09777   0.6002     C
C       0.0419  0.40223   0.1002     C
C      0.04291  0.63844   0.0616     C
C      0.04291  0.86156   0.5616     C
O      0.04449  0.56829  0.22342     O
O      0.04449  0.93171  0.72342     O
H       0.0676   0.5775   0.3862     H
H       0.0676   0.9225   0.8862     H
C      0.07191  0.06083  0.27327     C
C      0.07191  0.43917  0.77327     C
C      0.07402   0.5082  0.77886     C
C      0.07402   0.9918  0.27886     C
C      0.07568  0.65369   0.7679     C
C      0.07568  0.84631   0.2679     C
C      0.07738  0.72188   0.7614     C
C      0.07738  0.77812   0.2614     C
C       0.0866   0.7158   0.0003     C
C       0.0866   0.7842   0.5003     C
C      0.08927  0.20518   0.6937     C
C      0.08927  0.29482   0.1937     C
C      0.09196  0.08893   0.6674     C
C      0.09196  0.41107   0.1674     C
H       0.0949   0.7456   0.9625     H
H       0.0949   0.7544   0.4625     H
N      0.09532  0.66027  0.11416     N
N      0.09532  0.83973  0.61416     N
H       0.1048   0.2417   0.7255     H
H       0.1048   0.2583   0.2255     H
H       0.1096   0.0467   0.6805     H
H       0.1096   0.4533   0.1805     H
C       0.1114   0.5925   0.4059     C
C       0.1114   0.9075   0.9059     C
C      0.11666  0.14298   0.7165     C
C      0.11666  0.35702   0.2165     C
C       0.1222   0.7088   0.0767     C
C       0.1222   0.7912   0.5767     C
Co      0.1249   0.6355  0.23672    Co
Co      0.1249   0.8645  0.73672    Co
H        0.128    0.141   0.2622     H
H        0.128    0.359   0.7622     H
H       0.1288   0.5687   0.5227     H
H       0.1288   0.9313   0.0227     H
C      0.12903  0.09486  0.26506     C
C      0.12903  0.40514  0.76506     C
N      0.13148  0.74264  0.26073     N
N      0.13148  0.75736  0.76073     N
C      0.13228   0.5435  0.77449     C
C      0.13228   0.9565  0.27449     C
C      0.13295  0.61713    0.774     C
C      0.13295  0.88287    0.274     C
H       0.1436   0.0455   0.8238     H
H       0.1436   0.4545   0.3238     H
C       0.1444   0.5886   0.4817     C
C       0.1444   0.9114   0.9817     C
N      0.14936  0.62067   0.3629     N
N      0.14936  0.87933   0.8629     N
H       0.1598   0.7339      0.1     H
H       0.1598   0.7661      0.6     H
C      0.17016  0.13557   0.7904     C
C      0.17016  0.36443   0.2904     C
C      0.17434     0.08   0.8383     C
C      0.17434     0.42   0.3383     C
O      0.18634  0.55274  0.21729     O
O      0.18634  0.94726  0.71729     O
C      0.18746  0.06167  0.26099     C
C      0.18746  0.43833  0.76099     C
C       0.1877  0.72164   0.7716     C
C       0.1877  0.77836   0.2716     C
C      0.18859  0.50774  0.76648     C
C      0.18859  0.99226  0.26648     C
C       0.1898  0.65392   0.7768     C
C       0.1898  0.84608   0.2768     C
N      0.20455  0.61891  0.48802     N
N      0.20455  0.88109  0.98802     N
C       0.2046   0.6363    0.414     C
C       0.2046   0.8637    0.914     C
H       0.2158   0.2235   0.7814     H
H       0.2158   0.2765   0.2814     H
C      0.21752    0.186   0.8132     C
C      0.21752    0.314   0.3132     C
C       0.2238  0.07521   0.9076     C
C       0.2238  0.42479   0.4076     C
H       0.2262   0.0375   0.9392     H
H       0.2262   0.4625   0.4392     H
H        0.228   0.5304   0.7647     H
H        0.228   0.9696   0.2647     H
H       0.2282   0.7442   0.7759     H
H       0.2282   0.7558   0.2759     H
H        0.231   0.6323   0.7824     H
H        0.231   0.8677   0.2824     H
O       0.2386  0.15885   0.2266     O
O       0.2386  0.34115   0.7266     O
C      0.23918  0.58519    0.225     C
C      0.23918  0.91481    0.725     C
O      0.23965  0.64635  0.23577     O
O      0.23965  0.85365  0.73577     O
H       0.2407   0.6576      0.4     H
H       0.2407   0.8424      0.9     H
C      0.24679  0.10047    0.247     C
C      0.24679  0.39953    0.747     C
C      0.25666  0.62468   0.5587     C
C      0.25666  0.87532   0.0587     C
H       0.2635   0.5271   0.5808     H
H       0.2635   0.9729   0.0808     H
H       0.2647   0.7242   0.5609     H
H       0.2647   0.7758   0.0609     H
C       0.2666  0.18114   0.8819     C
C       0.2666  0.31886   0.3819     C
H       0.2677   0.0429   0.7256     H
H       0.2677   0.4571   0.2256     H
C      0.26951   0.1261   0.9301     C
C      0.26951   0.3739   0.4301     C
H       0.2706   0.1047   0.0868     H
H       0.2706   0.3953   0.5868     H
C       0.2806   0.5683   0.5996     C
C       0.2806   0.9317   0.0996     C
C       0.2811   0.6856   0.5881     C
C       0.2811   0.8144   0.0881     C
H       0.2901   0.1478   0.6481     H
H       0.2901   0.3522   0.1481     H
H        0.298   0.2151   0.8961     H
H        0.298   0.2849   0.3961     H
H       0.2985   0.2398   0.1585     H
H       0.2985   0.2602   0.6585     H
O      0.30232  0.06987  0.25637     O
O      0.30232  0.43013  0.75637     O
C      0.30393  0.55014   0.2236     C
C      0.30393  0.94986   0.7236     C
C      0.30691  0.01887    0.727     C
C      0.30691  0.48113    0.227     C
H       0.3073   0.1672   0.3974     H
H       0.3073   0.3328   0.8974     H
C      0.31195  0.11464   0.0753     C
C      0.31195  0.38536   0.5753     C
N      0.32061  0.12323   0.0015     N
N      0.32061  0.37677   0.5015     N
C      0.32427  0.16673   0.6867     C
C      0.32427  0.33327   0.1867     C
C      0.32974  0.23443   0.6933     C
C      0.32974  0.26557   0.1933     C
C       0.3299   0.6895   0.6574     C
C       0.3299   0.8105   0.1574     C
C       0.3303   0.5723    0.669     C
C       0.3303   0.9277    0.169     C
H       0.3467   0.7308   0.6762     H
H       0.3467   0.7692   0.1762     H
H       0.3476   0.5334   0.6948     H
H       0.3476   0.9666   0.1948     H
C        0.352   0.1572   0.4209     C
C        0.352   0.3428   0.9209     C
C      0.35453  0.63238   0.7003     C
C      0.35453  0.86762   0.2003     C
H       0.3586   0.1768   0.5377     H
H       0.3586   0.3232   0.0377     H
H       0.3619   0.6315   0.2222     H
H       0.3619   0.8685   0.7222     H
C      0.36308   0.5853   0.2245     C
C      0.36308   0.9147   0.7245     C
C      0.36711  0.05262  0.73231     C
C      0.36711  0.44738  0.23231     C
N      0.36857  0.12187  0.12983     N
N      0.36857  0.37813  0.62983     N
C      0.36989  0.12649   0.7377     C
C      0.36989  0.37351   0.2377     C
N      0.37771  0.23418  0.24732     N
N      0.37771  0.26582  0.74732     N
C       0.3798   0.1624   0.4985     C
C       0.3798   0.3376   0.9985     C
H       0.3831   0.5487   0.8209     H
H       0.3831   0.9513   0.3209     H
Co     0.38409  0.12816  0.25581    Co
Co     0.38409  0.37184  0.75581    Co
C       0.3873   0.1395   0.0094     C
C       0.3873   0.3605   0.5094     C
N      0.39876  0.13482  0.38084     N
N      0.39876  0.36518  0.88084     N
C      0.40583  0.63577   0.7768     C
C      0.40583  0.86423   0.2768     C
H       0.4087   0.1496   0.9688     H
H       0.4087   0.3504   0.4688     H
C       0.4123   0.5849   0.8316     C
C       0.4123   0.9151   0.3316     C
C       0.4157    0.138   0.0879     C
C       0.4157    0.362   0.5879     C
C      0.41959  0.15888   0.7934     C
C      0.41959  0.34112   0.2934     C
C      0.42158  0.22694   0.7974     C
C      0.42158  0.27306   0.2974     C
C      0.42411  0.55225   0.2287     C
C      0.42411  0.94775   0.7287     C
C      0.42527  0.01643   0.7333     C
C      0.42527  0.48357   0.2333     C
N      0.44593  0.14246   0.5089     N
N      0.44593  0.35754   0.0089     N
H       0.4471   0.7243   0.7597     H
H       0.4471   0.7757   0.2597     H
C       0.4504   0.6893   0.7954     C
C       0.4504   0.8107   0.2954     C
H       0.4519   0.1341   0.8283     H
H       0.4519   0.3659   0.3283     H
C      0.45403  0.12641   0.4363     C
C      0.45403  0.37359   0.9363     C
H       0.4547   0.2471   0.8363     H
H       0.4547   0.2529   0.3363     H
O      0.45835  0.05763  0.26419     O
O      0.45835  0.44237  0.76419     O
H       0.4609   0.1468   0.1103     H
H       0.4609   0.3532   0.6103     H
C        0.461   0.5861    0.902     C
C        0.461   0.9139    0.402     C
H        0.465    0.551   0.9377     H
H        0.465    0.949   0.4377     H
H       0.4659   0.0388   0.7371     H
H       0.4659   0.4612   0.2371     H
H       0.4718   0.2275   0.6245     H
H       0.4718   0.2725   0.1245     H
O      0.48813  0.65124   0.2281     O
O      0.48813  0.84876   0.7281     O
C       0.4885   0.5903   0.2309     C
C       0.4885   0.9097   0.7309     C
H       0.4944    0.111   0.4264     H
H       0.4944    0.389   0.9264     H
C      0.49654  0.14002   0.5813     C
C      0.49654  0.35998   0.0813     C
C       0.4987   0.6916   0.8647     C
C       0.4987   0.8084   0.3647     C
C       0.5013   0.1916   0.6353     C
C       0.5013   0.3084   0.1353     C
C      0.50346  0.64002   0.9187     C
C      0.50346  0.85998   0.4187     C
H       0.5056    0.611   0.0736     H
H       0.5056    0.889   0.5736     H
C       0.5115   0.0903   0.2691     C
C       0.5115   0.4097   0.7691     C
O      0.51187  0.15124   0.2719     O
O      0.51187  0.34876   0.7719     O
H       0.5282   0.7275   0.8755     H
H       0.5282   0.7725   0.3755     H
H       0.5341   0.5388   0.7629     H
H       0.5341   0.9612   0.2629     H
H        0.535    0.051   0.5623     H
H        0.535    0.449   0.0623     H
C        0.539   0.0861    0.598     C
C        0.539   0.4139    0.098     C
H       0.5391   0.6468   0.3897     H
H       0.5391   0.8532   0.8897     H
O      0.54165  0.55763  0.23581     O
O      0.54165  0.94237  0.73581     O
H       0.5453   0.7471   0.6637     H
H       0.5453   0.7529   0.1637     H
C      0.54597  0.62641   0.0637     C
C      0.54597  0.87359   0.5637     C
H       0.5481   0.6341   0.6717     H
H       0.5481   0.8659   0.1717     H
C       0.5496   0.1893   0.7046     C
C       0.5496   0.3107   0.2046     C
H       0.5529   0.2243   0.7403     H
H       0.5529   0.2757   0.2403     H
N      0.55407  0.64246   0.9911     N
N      0.55407  0.85754   0.4911     N
C      0.57473  0.51643   0.7667     C
C      0.57473  0.98357   0.2667     C
C      0.57589  0.05225   0.2713     C
C      0.57589  0.44775   0.7713     C
C      0.57842  0.72694   0.7026     C
C      0.57842  0.77306   0.2026     C
C      0.58041  0.65888   0.7066     C
C      0.58041  0.84112   0.2066     C
C       0.5843    0.638   0.4121     C
C       0.5843    0.862   0.9121     C
C       0.5877   0.0849   0.6684     C
C       0.5877   0.4151   0.1684     C
H       0.5913   0.6496   0.5312     H
H       0.5913   0.8504   0.0312     H
C      0.59417  0.13577   0.7232     C
C      0.59417  0.36423   0.2232     C
N      0.60124  0.63482  0.11916     N
N      0.60124  0.86518  0.61916     N
C       0.6127   0.6395   0.4906     C
C       0.6127   0.8605   0.9906     C
Co     0.61591  0.62816  0.24419    Co
Co     0.61591  0.87184  0.74419    Co
H       0.6169   0.0487   0.6791     H
H       0.6169   0.4513   0.1791     H
C       0.6202   0.6624   0.0015     C
C       0.6202   0.8376   0.5015     C
N      0.62229  0.73418  0.25268     N
N      0.62229  0.76582  0.75268     N
C      0.63011  0.62649   0.7623     C
C      0.63011  0.87351   0.2623     C
N      0.63143  0.62187  0.37017     N
N      0.63143  0.87813  0.87017     N
C      0.63289  0.55262  0.76769     C
C      0.63289  0.94738  0.26769     C
C      0.63692   0.0853   0.2755     C
C      0.63692   0.4147   0.7755     C
H       0.6381   0.1315   0.2778     H
H       0.6381   0.3685   0.7778     H
H       0.6414   0.6768   0.9623     H
H       0.6414   0.8232   0.4623     H
C      0.64547  0.13238   0.7997     C
C      0.64547  0.36762   0.2997     C
C        0.648   0.6572   0.0791     C
C        0.648   0.8428   0.5791     C
H       0.6524   0.0334   0.8052     H
H       0.6524   0.4666   0.3052     H
H       0.6533   0.2308   0.8238     H
H       0.6533   0.2692   0.3238     H
C       0.6697   0.0723    0.831     C
C       0.6697   0.4277    0.331     C
C       0.6701   0.1895   0.8426     C
C       0.6701   0.3105   0.3426     C
C      0.67026  0.73443   0.8067     C
C      0.67026  0.76557   0.3067     C
C      0.67573  0.66673   0.8133     C
C      0.67573  0.83327   0.3133     C
N      0.67939  0.62323   0.4985     N
N      0.67939  0.87677   0.9985     N
C      0.68805  0.61464   0.4247     C
C      0.68805  0.88536   0.9247     C
H       0.6927   0.6672   0.1026     H
H       0.6927   0.8328   0.6026     H
C      0.69309  0.51887    0.773     C
C      0.69309  0.98113    0.273     C
C      0.69607  0.05014   0.2764     C
C      0.69607  0.44986   0.7764     C
O      0.69768  0.56987  0.24363     O
O      0.69768  0.93013  0.74363     O
H       0.7015   0.7398   0.3415     H
H       0.7015   0.7602   0.8415     H
H        0.702   0.7151   0.6039     H
H        0.702   0.7849   0.1039     H
H       0.7099   0.6478   0.8519     H
H       0.7099   0.8522   0.3519     H
C       0.7189   0.1856   0.9119     C
C       0.7189   0.3144   0.4119     C
C       0.7194   0.0683   0.9004     C
C       0.7194   0.4317   0.4004     C
H       0.7294   0.6047   0.4132     H
H       0.7294   0.8953   0.9132     H
C      0.73049   0.6261   0.5699     C
C      0.73049   0.8739   0.0699     C
H       0.7323   0.5429   0.7744     H
H       0.7323   0.9571   0.2744     H
C       0.7334  0.68114   0.6181     C
C       0.7334  0.81886   0.1181     C
H       0.7353   0.2242   0.9391     H
H       0.7353   0.2758   0.4391     H
H       0.7365   0.0271   0.9192     H
H       0.7365   0.4729   0.4192     H
C      0.74334  0.12468   0.9413     C
C      0.74334  0.37532   0.4413     C
C      0.75321  0.60047    0.253     C
C      0.75321  0.89953    0.753     C
H       0.7593   0.1576      0.1     H
H       0.7593   0.3424      0.6     H
O      0.76035  0.14635  0.26423     O
O      0.76035  0.35365  0.76423     O
C      0.76082  0.08519    0.275     C
C      0.76082  0.41481    0.775     C
O       0.7614  0.65885   0.2734     O
O       0.7614  0.84115   0.7734     O
H        0.769   0.1323   0.7176     H
H        0.769   0.3677   0.2176     H
H       0.7718   0.2442   0.7241     H
H       0.7718   0.2558   0.2241     H
H        0.772   0.0304   0.7353     H
H        0.772   0.4696   0.2353     H
H       0.7738   0.5375   0.5608     H
H       0.7738   0.9625   0.0608     H
C       0.7762  0.57521   0.5924     C
C       0.7762  0.92479   0.0924     C
C      0.78248    0.686   0.6868     C
C      0.78248    0.814   0.1868     C
H       0.7842   0.7235   0.7186     H
H       0.7842   0.7765   0.2186     H
C       0.7954   0.1363    0.086     C
C       0.7954   0.3637    0.586     C
N      0.79545  0.11891  0.01198     N
N      0.79545  0.38109  0.51198     N
C       0.8102  0.15392   0.7232     C
C       0.8102  0.34608   0.2232     C
C      0.81141  0.00774  0.73352     C
C      0.81141  0.49226  0.23352     C
C       0.8123  0.22164   0.7284     C
C       0.8123  0.27836   0.2284     C
C      0.81254  0.56167  0.23901     C
C      0.81254  0.93833  0.73901     C
O      0.81366  0.05274  0.28271     O
O      0.81366  0.44726  0.78271     O
C      0.82566     0.58   0.6617     C
C      0.82566     0.92   0.1617     C
C      0.82984  0.63557   0.7096     C
C      0.82984  0.86443   0.2096     C
H       0.8402   0.2339      0.4     H
H       0.8402   0.2661      0.9     H
N      0.85064  0.12067   0.1371     N
N      0.85064  0.37933   0.6371     N
C       0.8556   0.0886   0.0183     C
C       0.8556   0.4114   0.5183     C
H       0.8564   0.5455   0.6762     H
H       0.8564   0.9545   0.1762     H
C      0.86705  0.11713    0.726     C
C      0.86705  0.38287    0.226     C
C      0.86772   0.0435  0.72551     C
C      0.86772   0.4565  0.22551     C
N      0.86852  0.24264  0.23927     N
N      0.86852  0.25736  0.73927     N
C      0.87097  0.59486  0.23494     C
C      0.87097  0.90514  0.73494     C
H       0.8712   0.0687   0.9773     H
H       0.8712   0.4313   0.4773     H
H        0.872    0.641   0.2378     H
H        0.872    0.859   0.7378     H
Co      0.8751   0.1355  0.26328    Co
Co      0.8751   0.3645  0.76328    Co
C       0.8778   0.2088   0.4233     C
C       0.8778   0.2912   0.9233     C
C      0.88334  0.64298   0.7835     C
C      0.88334  0.85702   0.2835     C
C       0.8886   0.0925   0.0941     C
C       0.8886   0.4075   0.5941     C
H       0.8904   0.5467   0.8195     H
H       0.8904   0.9533   0.3195     H
H       0.8952   0.7417   0.7745     H
H       0.8952   0.7583   0.2745     H
N      0.90468  0.16027  0.38584     N
N      0.90468  0.33973  0.88584     N
H       0.9051   0.2456   0.5375     H
H       0.9051   0.2544   0.0375     H
C      0.90804  0.58893   0.8326     C
C      0.90804  0.91107   0.3326     C
C      0.91073  0.70518   0.8063     C
C      0.91073  0.79482   0.3063     C
C       0.9134   0.2158   0.4997     C
C       0.9134   0.2842   0.9997     C
C      0.92262  0.22188   0.7386     C
C      0.92262  0.27812   0.2386     C
C      0.92432  0.15369   0.7321     C
C      0.92432  0.34631   0.2321     C
C      0.92598   0.0082  0.72114     C
C      0.92598   0.4918  0.22114     C
C      0.92809  0.56083  0.22673     C
C      0.92809  0.93917  0.72673     C
H       0.9324   0.0775   0.1138     H
H       0.9324   0.4225   0.6138     H
O      0.95551  0.06829  0.27658     O
O      0.95551  0.43171  0.77658     O
C      0.95709  0.13844   0.4384     C
C      0.95709  0.36156   0.9384     C
C       0.9581  0.59777   0.8998     C
C       0.9581  0.90223   0.3998     C
C      0.95982  0.71439    0.874     C
C      0.95982  0.78561    0.374     C
H        0.963   0.2447   0.7428     H
H        0.963   0.2553   0.2428     H
H       0.9639   0.0312   0.7144     H
H       0.9639   0.4688   0.2144     H
N      0.96409  0.16933  0.50887     N
N      0.96409  0.33067  0.00887     N
H       0.9648   0.1325   0.7319     H
H       0.9648   0.3675   0.2319     H
H        0.975   0.5612   0.9309     H
H        0.975   0.9388   0.4309     H
H       0.9771   0.7434   0.3881     H
H       0.9771   0.7566   0.8881     H
C      0.98354  0.65968   0.9216     C
C      0.98354  0.84032   0.4216     C
H        0.986   0.1055   0.4283     H
H        0.986   0.3945   0.9283     H
O      0.99203  0.65959   0.2377     O
O      0.99203  0.84041   0.7377     O
C      0.99275  0.59921   0.2291     C
C      0.99275  0.90079   0.7291     C
