data_I
_chemical_name_common  '/home/zhangsd/repos/MofS-CGCNN/ML/data/TSD/clean_cifs/XOPMIA_clean'
_cell_length_a  9.07200
_cell_length_b 13.14000
_cell_length_c 30.70000
_cell_angle_alpha 92.72000
_cell_angle_beta  90.20000
_cell_angle_gamma 90.01000
_space_group_name_H-M_alt      'P 1'


loop_
_space_group_symop_operation_xyz
  'x, y, z' 

loop_
_atom_site_label
_atom_site_fract_x
_atom_site_fract_y
_atom_site_fract_z
_atom_site_type_symbol
H       0.0056   0.6443   0.1976     H
H       0.0065   0.6684   0.4589     H
H       0.0076   0.5661   0.1277     H
H       0.0104   0.2171   0.9887     H
H        0.012   0.1475   0.7045     H
N       0.0387   0.7088    0.956     N
C       0.0408   0.7328   0.5201     C
C       0.0474    0.786   0.9857     C
C       0.0529   0.1776   0.4863     C
O       0.0529   0.4593   0.9541     O
C       0.0535   0.3762   0.8663     C
C       0.0548   0.3302   0.8248     C
C       0.0557   0.6601   0.4858     C
N       0.0613   0.1058   0.4562     N
H       0.0624   0.2155   0.6367     H
C       0.0833   0.1998   0.7019     C
H       0.1068   0.7662    0.583     H
H       0.1073   0.1726   0.5126     H
H       0.1133   0.6587   0.8984     H
C       0.1145   0.7178   0.5591     C
C       0.1148   0.2402   0.6619     C
C        0.118   0.7136   0.9196     C
C       0.1327   0.3827   0.9452     C
O        0.135   0.1916   0.7767     O
H       0.1353   0.9704   0.4093     H
Cd     0.13557  0.42152  0.03696    Cd
C       0.1357   0.8699   0.9812     C
H       0.1364   0.4066   0.1922     H
H       0.1399   0.9225   0.0035     H
C       0.1402   0.3393   0.8992     C
C       0.1447   0.5742   0.4918     C
C        0.145   0.2467   0.8162     C
H       0.1562   0.5248   0.4685     H
O       0.1564   0.4304  0.11168     O
N       0.1604   0.0297   0.4682     N
C       0.1615   0.2397   0.7381     C
C       0.1822   0.9632   0.4367     C
H       0.1899   0.3445   0.2606     H
H       0.1961   0.1553   0.3413     H
C       0.1994   0.6309   0.5624     C
O        0.204   0.3096  0.57991     O
H       0.2049   0.2312    0.412     H
C       0.2076   0.3541   0.1947     C
C       0.2076   0.7974    0.912     C
O       0.2126   0.3419   0.9735     O
N       0.2129   0.5607   0.5293     N
C       0.2189   0.8766   0.9434     C
C       0.2196    0.315   0.6576     C
C       0.2339   0.2563   0.8897     C
C       0.2377   0.2116   0.8477     C
C       0.2379   0.3167   0.2353     C
H       0.2401   0.8016    0.385     H
C       0.2441    0.354   0.1137     C
H       0.2499   0.6205    0.589     H
H       0.2532   0.6196   0.0887     H
C       0.2571   0.3535   0.6138     C
H       0.2607      0.8   0.8855     H
C       0.2614   0.2104   0.3479     C
C       0.2616   0.3175   0.7354     C
C       0.2656   0.2565   0.3898     C
C       0.2797   0.8764   0.4434     C
C       0.2806   0.3157   0.1576     C
N       0.2878   0.5608   0.0291     N
O       0.2887   0.3416  0.47354     O
C       0.2919   0.7979   0.4118     C
C       0.2929   0.3545    0.695     C
H       0.2947   0.2306   0.9119     H
O       0.2972   0.3098  0.08001     O
C       0.3025   0.6303    0.062     C
H       0.3039   0.1573   0.8408     H
H       0.3087   0.3455   0.7609     H
C       0.3168   0.9625    0.937     C
C       0.3376   0.2391   0.2385     C
N       0.3396     0.03   0.9683     N
H       0.3443   0.5252   0.9683     H
O       0.3447   0.4301  0.61188     O
C       0.3523   0.2455   0.3166     C
C       0.3551   0.5749   0.9916     C
C       0.3574   0.3389   0.3993     C
H        0.359   0.9223   0.5029     H
O       0.3627   0.1906   0.2769     O
C       0.3627   0.3824   0.4451     C
C       0.3628   0.8695   0.4807     C
H       0.3642   0.9688   0.9097     H
H       0.3643   0.4068   0.6925     H
Cd     0.36497  0.42146  0.53711    Cd
C       0.3816   0.7125   0.4194     C
H       0.3848   0.6568   0.3985     H
C       0.3853   0.2394   0.1622     C
C       0.3871   0.7178   0.0588     C
H        0.392    0.174   0.0127     H
H       0.3955   0.7659   0.0827     H
C       0.4145   0.1998   0.2022     C
N       0.4367    0.106   0.9566     N
H       0.4379   0.2141   0.1373     H
C        0.441   0.6605   0.9857     C
O       0.4449   0.4591   0.4544     O
C       0.4451   0.3291   0.3249     C
C       0.4454   0.3762   0.3663     C
C       0.4465   0.1782   0.9865     C
C       0.4515   0.7857   0.4859     C
C       0.4589   0.7333   0.0199     C
N       0.4612   0.7098   0.4556     N
H       0.4851    0.147   0.2049     H
H       0.4873   0.6695   0.9584     H
H       0.4923   0.2182   0.4881     H
H       0.4932   0.6468   0.6974     H
H       0.4942   0.5657   0.6278     H
H       0.5058   0.4343   0.3722     H
H       0.5068   0.3532   0.3026     H
H       0.5077   0.7818   0.5119     H
H       0.5127   0.3305   0.0416     H
H       0.5149    0.853   0.7951     H
N       0.5388   0.2902   0.5444     N
C       0.5411   0.2667   0.9801     C
C       0.5485   0.2143   0.5141     C
C       0.5535   0.8218   0.0135     C
C       0.5546   0.6238   0.6337     C
C       0.5549   0.6709   0.6751     C
O       0.5551   0.5409   0.5456     O
C        0.559   0.3395   0.0143     C
H       0.5621   0.7859   0.8627     H
N       0.5633    0.894   0.0434     N
C       0.5855   0.8002   0.7978     C
H       0.6045   0.2341   0.9173     H
H        0.608    0.826   0.9873     H
C       0.6129   0.2822   0.9412     C
C       0.6147   0.7606   0.8378     C
H       0.6152   0.3432   0.6015     H
C       0.6184   0.2875   0.5806     C
Cd     0.63503  0.57854  0.46289    Cd
H       0.6357   0.5932   0.3075     H
H       0.6358   0.0312   0.0903     H
C       0.6372   0.1305   0.5193     C
C       0.6373   0.6176   0.5549     C
O       0.6373   0.8094   0.7231     O
H        0.641   0.0777   0.4971     H
C       0.6426   0.6611   0.6007     C
C       0.6449   0.4251   0.0084     C
C       0.6477   0.7545   0.6834     C
O       0.6553   0.5699  0.38812     O
H       0.6557   0.4748   0.0317     H
N       0.6604     0.97   0.0317     N
C       0.6624   0.7609   0.7615     C
C       0.6832   0.0375    0.063     C
H       0.6913   0.6545   0.2391     H
H       0.6961   0.8427   0.1592     H
C       0.6975   0.3697    0.938     C
O       0.7028   0.6902  0.91999     O
H       0.7053   0.7694   0.0881     H
C       0.7071   0.6455    0.305     C
C       0.7081   0.2021   0.5882     C
O       0.7113   0.6584  0.52646     O
N       0.7122   0.4392   0.9709     N
C       0.7194   0.6843   0.8424     C
C       0.7203   0.1236   0.5566     C
C       0.7344   0.7435   0.6102     C
C       0.7384   0.6825   0.2646     C
C       0.7386   0.7896   0.6521     C
H       0.7393      0.2   0.1145     H
C       0.7429   0.6465   0.3862     C
H       0.7468   0.3804   0.9113     H
H       0.7501   0.3795    0.411     H
C       0.7559    0.646   0.8863     C
H       0.7599   0.1984    0.615     H
C       0.7621   0.6833   0.7647     C
C       0.7623   0.7884   0.1523     C
C       0.7661   0.7437   0.1103     C
C       0.7804    0.685   0.3424     C
C       0.7811   0.1234   0.0566     C
N       0.7871   0.4393   0.4707     N
O       0.7874   0.6581   0.0265     O
C       0.7924   0.2026    0.088     C
C       0.7924   0.6459   0.8053     C
H       0.7951   0.7688    0.588     H
O        0.796   0.6904  0.42009     O
C       0.8006   0.3691   0.4376     C
H       0.8039   0.8447   0.6587     H
H       0.8101   0.6555   0.7394     H
C       0.8178   0.0368   0.5633     C
C       0.8385   0.7603   0.2619     C
N       0.8396   0.9703   0.5318     N
O       0.8436   0.5696  0.88832     O
H       0.8438   0.4752   0.5315     H
C        0.855   0.7533   0.1838     C
C       0.8553   0.4258   0.5082     C
C       0.8598   0.6607   0.1008     C
H       0.8601   0.0775   0.9965     H
H       0.8636   0.5934   0.8078     H
C       0.8643   0.1301   0.0188     C
Cd     0.86443  0.57848  0.96304    Cd
H       0.8647   0.0296   0.5907     H
O        0.865   0.8084   0.2233     O
C       0.8673   0.6173   0.0548     C
C        0.882   0.2864   0.0804     C
C       0.8852   0.7598   0.3381     C
C       0.8855   0.2822   0.4409     C
H       0.8867   0.3413   0.1016     H
H       0.8927   0.8274   0.4874     H
H       0.8932   0.2338    0.417     H
C       0.9167   0.8002   0.2981     C
H       0.9376   0.7845   0.3633     H
N       0.9387   0.8942   0.5438     N
C       0.9443   0.3399   0.5142     C
C       0.9452   0.6698   0.1752     C
C       0.9465   0.6238   0.1337     C
O       0.9471   0.5407   0.0459     O
C       0.9471   0.8224   0.5137     C
C       0.9526    0.214   0.0143     C
C       0.9592   0.2672   0.4799     C
N       0.9613   0.2912    0.044     N
H        0.988   0.8525   0.2955     H
H       0.9896   0.7829   0.0113     H
H       0.9924   0.4339   0.8723     H
H       0.9935   0.3316   0.5411     H
H       0.9944   0.3557   0.8024     H
