data_I
_chemical_name_common  '/home/zhangsd/repos/MofS-CGCNN/ML/data/TSD/clean_cifs/XOQXOR_SL'
_cell_length_a 27.08180
_cell_length_b 12.08910
_cell_length_c 36.31560
_cell_angle_alpha 90.00000
_cell_angle_beta  130.02970
_cell_angle_gamma 90.00000
_space_group_name_H-M_alt      'P 1'


loop_
_space_group_symop_operation_xyz
  'x, y, z' 

loop_
_atom_site_label
_atom_site_fract_x
_atom_site_fract_y
_atom_site_fract_z
_atom_site_type_symbol
Si         0.0  0.15289     0.25    Si
Si         0.0  0.84711     0.75    Si
C       0.0008    0.337   0.6062     C
C       0.0008    0.663   0.1062     C
H       0.0079   0.3648   0.2903     H
H       0.0079   0.6352   0.7903     H
C      0.01199   0.3754  0.41116     C
C      0.01199   0.6246  0.91116     C
H       0.0138   0.3766   0.6331     H
H       0.0138   0.6234   0.1331     H
C       0.0167   0.1714   0.5745     C
C       0.0167   0.8286   0.0745     C
H       0.0168    0.054    0.718     H
H       0.0168    0.946    0.218     H
C      0.02001   0.2768   0.3955     C
C      0.02001   0.7232   0.8955     C
C       0.0213   0.0249   0.8097     C
C       0.0213   0.9751   0.3097     C
H       0.0255   0.1405    0.146     H
H       0.0255   0.8595    0.646     H
C       0.0286   0.2318   0.6124     C
C       0.0286   0.7682   0.1124     C
C        0.029   0.2163     0.97     C
C        0.029   0.7837     0.47     C
C      0.03154   0.2059  0.13587     C
C      0.03154   0.7941  0.63587     C
H       0.0321   0.0041   0.5894     H
H       0.0321   0.9959   0.0894     H
H       0.0343   0.1441   0.8541     H
H       0.0343   0.8559   0.3541     H
C      0.03503   0.3452  0.22694     C
C      0.03503   0.6548  0.72694     C
H        0.041   0.1778   0.9969     H
H        0.041   0.8222   0.4969     H
C      0.04561   0.0695  0.30653     C
C      0.04561   0.9305  0.80653     C
H       0.0458   0.0416   0.5554     H
H       0.0458   0.9584   0.0554     H
C      0.04651   0.3828  0.94021     C
C      0.04651   0.6172  0.44021     C
C      0.04908      0.4  0.10492     C
C      0.04908      0.6  0.60492     C
C       0.0508   0.0609   0.5833     C
C       0.0508   0.9391   0.0833     C
C       0.0523   0.0793   0.8535     C
C       0.0523   0.9207   0.3535     C
H       0.0553   0.4643   0.0943     H
H       0.0553   0.5357   0.5943     H
H       0.0561   0.2015   0.6432     H
H       0.0561   0.7985   0.1432     H
H       0.0565   0.3452   0.5063     H
H       0.0565   0.6548   0.0063     H
C      0.05713   0.2459  0.25174     C
C      0.05713   0.7541  0.75174     C
C       0.0585   0.3178   0.9769     C
C       0.0585   0.6822   0.4769     C
H       0.0598   0.4823   0.2104     H
H       0.0598   0.5177   0.7104     H
H       0.0607   0.2581   0.4063     H
H       0.0607   0.7419   0.9063     H
C      0.07573   0.4161  0.22731     C
C      0.07573   0.5839  0.72731     C
H       0.0792   0.4844   0.8712     H
H       0.0792   0.5156   0.3712     H
Si     0.08127  0.47438  0.45115    Si
Si     0.08127  0.52562  0.95115    Si
H       0.0883   0.3439   0.0082     H
H       0.0883   0.6561   0.5082     H
C      0.09195   0.2339  0.15182     C
C      0.09195   0.7661  0.65182     C
H       0.0958   0.0678   0.6106     H
H       0.0958   0.9322   0.1106     H
C      0.09601    0.379  0.52975     C
C      0.09601    0.621  0.02975     C
C      0.09929   0.1138  0.35025     C
C      0.09929   0.8862  0.85025     C
C      0.10127   0.3304  0.13663     C
C      0.10127   0.6696  0.63663     C
H       0.1047   0.3243   0.5861     H
H       0.1047   0.6757   0.0861     H
H       0.1054   0.1393   0.9406     H
H       0.1054   0.8607   0.4406     H
C       0.1072   0.0411   0.8949     C
C       0.1072   0.9589   0.3949     C
H       0.1152   0.1822   0.3504     H
H       0.1152   0.8178   0.8504     H
C       0.1187   0.4807   0.3936     C
C       0.1187   0.5193   0.8936     C
H      0.11933  0.18014  0.71151     H
H      0.11933  0.81986  0.21151     H
C      0.12106   0.2179  0.27579     C
C      0.12106   0.7821  0.77579     C
C      0.12446   0.3674  0.57762     C
C      0.12446   0.6326  0.07762     C
C      0.12535   0.4407  0.51586     C
C      0.12535   0.5593  0.01586     C
C       0.1297   0.0588   0.3935     C
C       0.1297   0.9412   0.8935     C
H       0.1368   0.1508   0.2921     H
H       0.1368   0.8492   0.7921     H
C        0.137   0.0936   0.9438     C
C        0.137   0.9064   0.4438     C
C       0.1374   0.4553   0.4375     C
C       0.1374   0.5447   0.9375     C
O      0.13782   0.0712  0.19849     O
O      0.13782   0.9288  0.69849     O
C      0.13956   0.3889   0.2526     C
C      0.13956   0.6111   0.7526     C
H       0.1414   0.4779   0.3508     H
H       0.1414   0.5221   0.8508     H
H       0.1421   0.3487   0.1475     H
H       0.1421   0.6513   0.6475     H
C      0.14882   0.1618  0.18831     C
C      0.14882   0.8382  0.68831     C
H       0.1506   0.0363   0.9669     H
H       0.1506   0.9637   0.4669     H
C        0.156   0.4569    0.381     C
C        0.156   0.5431    0.881     C
C      0.16193   0.2875  0.27611     C
C      0.16193   0.7125  0.77611     C
O      0.16308   0.4392   0.7372     O
O      0.16308   0.5608   0.2372     O
H       0.1657   0.0902   0.4219     H
H       0.1657   0.9098   0.9219     H
O      0.16755  0.18014  0.73464     O
O      0.16755  0.81986  0.23464     O
H       0.1734   0.1379   0.9544     H
H       0.1734   0.8621   0.4544     H
C      0.18215   0.4193  0.61289     C
C      0.18215   0.5807  0.11289     C
C      0.18368    0.465  0.25332     C
C      0.18368    0.535  0.75332     C
C      0.18441   0.4914  0.55227     C
C      0.18441   0.5086  0.05227     C
O      0.19233   0.3356  0.67606     O
O      0.19233   0.6644  0.17606     O
C       0.1945   0.3971   0.4675     C
C       0.1945   0.6029   0.9675     C
Zn     0.20314  0.03768  0.74205    Zn
Zn     0.20314  0.96232  0.24205    Zn
O      0.20363   0.1977  0.20597     O
O      0.20363   0.8023  0.70597     O
H       0.2044   0.2665   0.2921     H
H       0.2044   0.7335   0.7921     H
H       0.2051   0.4669   0.0442     H
H       0.2051   0.5331   0.5442     H
Zn     0.20632  0.31317  0.73521    Zn
Zn     0.20632  0.68683  0.23521    Zn
H       0.2078   0.3728    0.497     H
H       0.2078   0.6272    0.997     H
C      0.21024   0.4132  0.66425     C
C      0.21024   0.5868  0.16425     C
C      0.21255     0.48  0.60033     C
C      0.21255     0.52  0.10033     C
H       0.2138   0.1888   0.5784     H
H       0.2138   0.8112   0.0784     H
C       0.2145   0.4024   0.4122     C
C       0.2145   0.5976   0.9122     C
H       0.2184   0.0683   0.5963     H
H       0.2184   0.9317   0.0963     H
H       0.2278   0.1634   0.5223     H
H       0.2278   0.8366   0.0223     H
H       0.2307   0.3425   0.3676     H
H       0.2307   0.6575   0.8676     H
C       0.2331   0.3731   0.4556     C
C       0.2331   0.6269   0.9556     C
O      0.23768   0.4275  0.26979     O
O      0.23768   0.5725  0.76979     O
C       0.2428   0.1312   0.5999     C
C       0.2428   0.8688   0.0999     C
H        0.248   0.0134   0.8759     H
H        0.248   0.9866   0.3759     H
O      0.24963    0.012  0.30787     O
O      0.24963    0.988  0.80787     O
O      0.25037    0.488  0.69213     O
O      0.25037    0.512  0.19213     O
H        0.252   0.4866   0.1241     H
H        0.252   0.5134   0.6241     H
C       0.2572   0.3688   0.4001     C
C       0.2572   0.6312   0.9001     C
O      0.26232   0.0725  0.73021     O
O      0.26232   0.9275  0.23021     O
C       0.2669   0.1269   0.5444     C
C       0.2669   0.8731   0.0444     C
H       0.2693   0.1575   0.6324     H
H       0.2693   0.8425   0.1324     H
H       0.2722   0.3366   0.4777     H
H       0.2722   0.6634   0.9777     H
H       0.2816   0.4317   0.4037     H
H       0.2816   0.5683   0.9037     H
C       0.2855   0.0976   0.5878     C
C       0.2855   0.9024   0.0878     C
H       0.2862   0.3112   0.4216     H
H       0.2862   0.6888   0.9216     H
C      0.28745     0.02  0.39967     C
C      0.28745     0.98  0.89967     C
C      0.28976   0.0868  0.33575     C
C      0.28976   0.9132  0.83575     C
H       0.2922   0.1272    0.503     H
H       0.2922   0.8728    0.003     H
Zn     0.29368  0.18683  0.26479    Zn
Zn     0.29368  0.81317  0.76479    Zn
H       0.2949   0.0331   0.9558     H
H       0.2949   0.9669   0.4558     H
H       0.2956   0.2335   0.7079     H
H       0.2956   0.7665   0.2079     H
O      0.29637   0.3023  0.79403     O
O      0.29637   0.6977  0.29403     O
Zn     0.29686  0.46232  0.25795    Zn
Zn     0.29686  0.53768  0.75795    Zn
C       0.3055   0.1029   0.5325     C
C       0.3055   0.8971   0.0325     C
O      0.30767   0.1644  0.32394     O
O      0.30767   0.8356  0.82394     O
C      0.31559   0.0086  0.44773     C
C      0.31559   0.9914  0.94773     C
C      0.31632    0.035  0.74668     C
C      0.31632    0.965  0.24668     C
C      0.31785   0.0807  0.38711     C
C      0.31785   0.9193  0.88711     C
H       0.3266   0.3621   0.0456     H
H       0.3266   0.6379   0.5456     H
O      0.33245  0.31986  0.26536     O
O      0.33245  0.68014  0.76536     O
H       0.3343   0.4098   0.5781     H
H       0.3343   0.5902   0.0781     H
O      0.33692   0.0608   0.2628     O
O      0.33692   0.9392   0.7628     O
C      0.33807   0.2125  0.72389     C
C      0.33807   0.7875  0.22389     C
C        0.344   0.0431    0.619     C
C        0.344   0.9569    0.119     C
H       0.3494   0.4637   0.0331     H
H       0.3494   0.5363   0.5331     H
C      0.35118   0.3382  0.81169     C
C      0.35118   0.6618  0.31169     C
H       0.3579   0.1513   0.8525     H
H       0.3579   0.8487   0.3525     H
H       0.3586   0.0221   0.6492     H
H       0.3586   0.9779   0.1492     H
C      0.36044   0.1111   0.7474     C
C      0.36044   0.8889   0.2474     C
O      0.36218   0.4288  0.80151     O
O      0.36218   0.5712  0.30151     O
C       0.3626   0.0447   0.5625     C
C       0.3626   0.9553   0.0625     C
C        0.363   0.4064   0.0562     C
C        0.363   0.5936   0.5562     C
H       0.3632   0.3492   0.7079     H
H       0.3632   0.6508   0.2079     H
C       0.3703   0.4412   0.6065     C
C       0.3703   0.5588   0.1065     C
C      0.37465   0.0593  0.48414     C
C      0.37465   0.9407  0.98414     C
C      0.37554   0.1326  0.42238     C
C      0.37554   0.8674  0.92238     C
C      0.37894   0.2821  0.72421     C
C      0.37894   0.7179  0.22421     C
H      0.38067  0.31986  0.28849     H
H      0.38067  0.68014  0.78849     H
C       0.3813   0.0193   0.6064     C
C       0.3813   0.9807   0.1064     C
H       0.3848   0.3178   0.6496     H
H       0.3848   0.6822   0.1496     H
C       0.3928   0.4589   0.1051     C
C       0.3928   0.5411   0.6051     C
H       0.3946   0.3607   0.0594     H
H       0.3946   0.6393   0.5594     H
H       0.3953   0.1757   0.4139     H
H       0.3953   0.8243   0.9139     H
C      0.39873   0.1696  0.86337     C
C      0.39873   0.8304  0.36337     C
C      0.40071   0.3862  0.64975     C
C      0.40071   0.6138  0.14975     C
C      0.40399    0.121  0.47025     C
C      0.40399    0.879  0.97025     C
H       0.4042   0.4322   0.3894     H
H       0.4042   0.5678   0.8894     H
C      0.40805   0.2661  0.84818     C
C      0.40805   0.7339  0.34818     C
H       0.4117   0.1561   0.9918     H
H       0.4117   0.8439   0.4918     H
Si     0.41873  0.02562  0.54885    Si
Si     0.41873  0.97438  0.04885    Si
H       0.4208   0.0156   0.1288     H
H       0.4208   0.9844   0.6288     H
C      0.42427   0.0839  0.77269     C
C      0.42427   0.9161  0.27269     C
H       0.4393   0.2419   0.5937     H
H       0.4393   0.7581   0.0937     H
H       0.4402   0.0177   0.7896     H
H       0.4402   0.9823   0.2896     H
C       0.4415   0.1822   0.0231     C
C       0.4415   0.8178   0.5231     C
C      0.44287   0.2541  0.74826     C
C      0.44287   0.7459  0.24826     C
H       0.4435   0.1548   0.4937     H
H       0.4435   0.8452   0.9937     H
H       0.4439   0.2985   0.3568     H
H       0.4439   0.7015   0.8568     H
H       0.4447   0.0357   0.9057     H
H       0.4447   0.9643   0.4057     H
C       0.4477   0.4207   0.1465     C
C       0.4477   0.5793   0.6465     C
C       0.4492   0.4391   0.4167     C
C       0.4492   0.5609   0.9167     C
C      0.45092      0.1  0.89508     C
C      0.45092      0.9  0.39508     C
C      0.45349   0.1172  0.05979     C
C      0.45349   0.8828  0.55979     C
H       0.4542   0.4584   0.4446     H
H       0.4542   0.5416   0.9446     H
C      0.45439   0.4305  0.69347     C
C      0.45439   0.5695  0.19347     C
H        0.459   0.3222   0.0031     H
H        0.459   0.6778   0.5031     H
C      0.46497   0.1548  0.77306     C
C      0.46497   0.8452  0.27306     C
H       0.4657   0.3559   0.1459     H
H       0.4657   0.6441   0.6459     H
H       0.4679   0.4959   0.4106     H
H       0.4679   0.5041   0.9106     H
C      0.46846   0.2941  0.86413     C
C      0.46846   0.7059  0.36413     C
C        0.471   0.2837     0.03     C
C        0.471   0.7163     0.53     C
C       0.4714   0.2682   0.3876     C
C       0.4714   0.7318   0.8876     C
H       0.4745   0.3595    0.854     H
H       0.4745   0.6405    0.354     H
C       0.4787   0.4751   0.1903     C
C       0.4787   0.5249   0.6903     C
C      0.47999   0.2232   0.6045     C
C      0.47999   0.7768   0.1045     C
H       0.4832    0.446    0.282     H
H       0.4832    0.554    0.782     H
C       0.4833   0.3286   0.4255     C
C       0.4833   0.6714   0.9255     C
H       0.4862   0.1234   0.3669     H
H       0.4862   0.8766   0.8669     H
C      0.48801   0.1246  0.58884     C
C      0.48801   0.8754  0.08884     C
H       0.4921   0.1352   0.7097     H
H       0.4921   0.8648   0.2097     H
C       0.4992    0.163   0.3938     C
C       0.4992    0.837   0.8938     C
Si         0.5  0.34711     0.75    Si
Si         0.5  0.65289     0.25    Si
C       0.5008    0.163   0.1062     C
C       0.5008    0.837   0.6062     C
H       0.5079   0.1352   0.7903     H
H       0.5079   0.8648   0.2903     H
C      0.51199   0.1246  0.91116     C
C      0.51199   0.8754  0.41116     C
H       0.5138   0.1234   0.1331     H
H       0.5138   0.8766   0.6331     H
C       0.5167   0.3286   0.0745     C
C       0.5167   0.6714   0.5745     C
H       0.5168    0.446    0.218     H
H       0.5168    0.554    0.718     H
C      0.52001   0.2232   0.8955     C
C      0.52001   0.7768   0.3955     C
C       0.5213   0.4751   0.3097     C
C       0.5213   0.5249   0.8097     C
H       0.5255   0.3595    0.646     H
H       0.5255   0.6405    0.146     H
C       0.5286   0.2682   0.1124     C
C       0.5286   0.7318   0.6124     C
C        0.529   0.2837     0.47     C
C        0.529   0.7163     0.97     C
C      0.53154   0.2941  0.63587     C
C      0.53154   0.7059  0.13587     C
H       0.5321   0.4959   0.0894     H
H       0.5321   0.5041   0.5894     H
H       0.5343   0.3559   0.3541     H
H       0.5343   0.6441   0.8541     H
C      0.53503   0.1548  0.72694     C
C      0.53503   0.8452  0.22694     C
H        0.541   0.3222   0.4969     H
H        0.541   0.6778   0.9969     H
C      0.54561   0.4305  0.80653     C
C      0.54561   0.5695  0.30653     C
H       0.5458   0.4584   0.0554     H
H       0.5458   0.5416   0.5554     H
C      0.54651   0.1172  0.44021     C
C      0.54651   0.8828  0.94021     C
C      0.54908      0.1  0.60492     C
C      0.54908      0.9  0.10492     C
C       0.5508   0.4391   0.0833     C
C       0.5508   0.5609   0.5833     C
C       0.5523   0.4207   0.3535     C
C       0.5523   0.5793   0.8535     C
H       0.5553   0.0357   0.5943     H
H       0.5553   0.9643   0.0943     H
H       0.5561   0.2985   0.1432     H
H       0.5561   0.7015   0.6432     H
H       0.5565   0.1548   0.0063     H
H       0.5565   0.8452   0.5063     H
C      0.55713   0.2541  0.75174     C
C      0.55713   0.7459  0.25174     C
C       0.5585   0.1822   0.4769     C
C       0.5585   0.8178   0.9769     C
H       0.5598   0.0177   0.7104     H
H       0.5598   0.9823   0.2104     H
H       0.5607   0.2419   0.9063     H
H       0.5607   0.7581   0.4063     H
C      0.57573   0.0839  0.72731     C
C      0.57573   0.9161  0.22731     C
H       0.5792   0.0156   0.3712     H
H       0.5792   0.9844   0.8712     H
Si     0.58127  0.02562  0.95115    Si
Si     0.58127  0.97438  0.45115    Si
H       0.5883   0.1561   0.5082     H
H       0.5883   0.8439   0.0082     H
C      0.59195   0.2661  0.65182     C
C      0.59195   0.7339  0.15182     C
H       0.5958   0.4322   0.1106     H
H       0.5958   0.5678   0.6106     H
C      0.59601    0.121  0.02975     C
C      0.59601    0.879  0.52975     C
C      0.59929   0.3862  0.85025     C
C      0.59929   0.6138  0.35025     C
C      0.60127   0.1696  0.63663     C
C      0.60127   0.8304  0.13663     C
H       0.6047   0.1757   0.0861     H
H       0.6047   0.8243   0.5861     H
H       0.6054   0.3607   0.4406     H
H       0.6054   0.6393   0.9406     H
C       0.6072   0.4589   0.3949     C
C       0.6072   0.5411   0.8949     C
H       0.6152   0.3178   0.8504     H
H       0.6152   0.6822   0.3504     H
C       0.6187   0.0193   0.8936     C
C       0.6187   0.9807   0.3936     C
H      0.61933  0.31986  0.21151     H
H      0.61933  0.68014  0.71151     H
C      0.62106   0.2821  0.77579     C
C      0.62106   0.7179  0.27579     C
C      0.62446   0.1326  0.07762     C
C      0.62446   0.8674  0.57762     C
C      0.62535   0.0593  0.01586     C
C      0.62535   0.9407  0.51586     C
C       0.6297   0.4412   0.8935     C
C       0.6297   0.5588   0.3935     C
H       0.6368   0.3492   0.7921     H
H       0.6368   0.6508   0.2921     H
C        0.637   0.4064   0.4438     C
C        0.637   0.5936   0.9438     C
C       0.6374   0.0447   0.9375     C
C       0.6374   0.9553   0.4375     C
O      0.63782   0.4288  0.69849     O
O      0.63782   0.5712  0.19849     O
C      0.63956   0.1111   0.7526     C
C      0.63956   0.8889   0.2526     C
H       0.6414   0.0221   0.8508     H
H       0.6414   0.9779   0.3508     H
H       0.6421   0.1513   0.6475     H
H       0.6421   0.8487   0.1475     H
C      0.64882   0.3382  0.68831     C
C      0.64882   0.6618  0.18831     C
H       0.6506   0.4637   0.4669     H
H       0.6506   0.5363   0.9669     H
C        0.656   0.0431    0.881     C
C        0.656   0.9569    0.381     C
C      0.66193   0.2125  0.77611     C
C      0.66193   0.7875  0.27611     C
O      0.66308   0.0608   0.2372     O
O      0.66308   0.9392   0.7372     O
H       0.6657   0.4098   0.9219     H
H       0.6657   0.5902   0.4219     H
O      0.66755  0.31986  0.23464     O
O      0.66755  0.68014  0.73464     O
H       0.6734   0.3621   0.4544     H
H       0.6734   0.6379   0.9544     H
C      0.68215   0.0807  0.11289     C
C      0.68215   0.9193  0.61289     C
C      0.68368    0.035  0.75332     C
C      0.68368    0.965  0.25332     C
C      0.68441   0.0086  0.05227     C
C      0.68441   0.9914  0.55227     C
O      0.69233   0.1644  0.17606     O
O      0.69233   0.8356  0.67606     O
C       0.6945   0.1029   0.9675     C
C       0.6945   0.8971   0.4675     C
Zn     0.70314  0.46232  0.24205    Zn
Zn     0.70314  0.53768  0.74205    Zn
O      0.70363   0.3023  0.70597     O
O      0.70363   0.6977  0.20597     O
H       0.7044   0.2335   0.7921     H
H       0.7044   0.7665   0.2921     H
H       0.7051   0.0331   0.5442     H
H       0.7051   0.9669   0.0442     H
Zn     0.70632  0.18683  0.23521    Zn
Zn     0.70632  0.81317  0.73521    Zn
H       0.7078   0.1272    0.997     H
H       0.7078   0.8728    0.497     H
C      0.71024   0.0868  0.16425     C
C      0.71024   0.9132  0.66425     C
C      0.71255     0.02  0.10033     C
C      0.71255     0.98  0.60033     C
H       0.7138   0.3112   0.0784     H
H       0.7138   0.6888   0.5784     H
C       0.7145   0.0976   0.9122     C
C       0.7145   0.9024   0.4122     C
H       0.7184   0.4317   0.0963     H
H       0.7184   0.5683   0.5963     H
H       0.7278   0.3366   0.0223     H
H       0.7278   0.6634   0.5223     H
H       0.7307   0.1575   0.8676     H
H       0.7307   0.8425   0.3676     H
C       0.7331   0.1269   0.9556     C
C       0.7331   0.8731   0.4556     C
O      0.73768   0.0725  0.76979     O
O      0.73768   0.9275  0.26979     O
C       0.7428   0.3688   0.0999     C
C       0.7428   0.6312   0.5999     C
H        0.748   0.4866   0.3759     H
H        0.748   0.5134   0.8759     H
O      0.74963    0.488  0.80787     O
O      0.74963    0.512  0.30787     O
O      0.75037    0.012  0.19213     O
O      0.75037    0.988  0.69213     O
H        0.752   0.0134   0.6241     H
H        0.752   0.9866   0.1241     H
C       0.7572   0.1312   0.9001     C
C       0.7572   0.8688   0.4001     C
O      0.76232   0.4275  0.23021     O
O      0.76232   0.5725  0.73021     O
C       0.7669   0.3731   0.0444     C
C       0.7669   0.6269   0.5444     C
H       0.7693   0.3425   0.1324     H
H       0.7693   0.6575   0.6324     H
H       0.7722   0.1634   0.9777     H
H       0.7722   0.8366   0.4777     H
H       0.7816   0.0683   0.9037     H
H       0.7816   0.9317   0.4037     H
C       0.7855   0.4024   0.0878     C
C       0.7855   0.5976   0.5878     C
H       0.7862   0.1888   0.9216     H
H       0.7862   0.8112   0.4216     H
C      0.78745     0.48  0.89967     C
C      0.78745     0.52  0.39967     C
C      0.78976   0.4132  0.83575     C
C      0.78976   0.5868  0.33575     C
H       0.7922   0.3728    0.003     H
H       0.7922   0.6272    0.503     H
Zn     0.79368  0.31317  0.76479    Zn
Zn     0.79368  0.68683  0.26479    Zn
H       0.7949   0.4669   0.4558     H
H       0.7949   0.5331   0.9558     H
H       0.7956   0.2665   0.2079     H
H       0.7956   0.7335   0.7079     H
O      0.79637   0.1977  0.29403     O
O      0.79637   0.8023  0.79403     O
Zn     0.79686  0.03768  0.75795    Zn
Zn     0.79686  0.96232  0.25795    Zn
C       0.8055   0.3971   0.0325     C
C       0.8055   0.6029   0.5325     C
O      0.80767   0.3356  0.82394     O
O      0.80767   0.6644  0.32394     O
C      0.81559   0.4914  0.94773     C
C      0.81559   0.5086  0.44773     C
C      0.81632    0.465  0.24668     C
C      0.81632    0.535  0.74668     C
C      0.81785   0.4193  0.88711     C
C      0.81785   0.5807  0.38711     C
H       0.8266   0.1379   0.5456     H
H       0.8266   0.8621   0.0456     H
O      0.83245  0.18014  0.76536     O
O      0.83245  0.81986  0.26536     O
H       0.8343   0.0902   0.0781     H
H       0.8343   0.9098   0.5781     H
O      0.83692   0.4392   0.7628     O
O      0.83692   0.5608   0.2628     O
C      0.83807   0.2875  0.22389     C
C      0.83807   0.7125  0.72389     C
C        0.844   0.4569    0.119     C
C        0.844   0.5431    0.619     C
H       0.8494   0.0363   0.5331     H
H       0.8494   0.9637   0.0331     H
C      0.85118   0.1618  0.31169     C
C      0.85118   0.8382  0.81169     C
H       0.8579   0.3487   0.3525     H
H       0.8579   0.6513   0.8525     H
H       0.8586   0.4779   0.1492     H
H       0.8586   0.5221   0.6492     H
C      0.86044   0.3889   0.2474     C
C      0.86044   0.6111   0.7474     C
O      0.86218   0.0712  0.30151     O
O      0.86218   0.9288  0.80151     O
C       0.8626   0.4553   0.0625     C
C       0.8626   0.5447   0.5625     C
C        0.863   0.0936   0.5562     C
C        0.863   0.9064   0.0562     C
H       0.8632   0.1508   0.2079     H
H       0.8632   0.8492   0.7079     H
C       0.8703   0.0588   0.1065     C
C       0.8703   0.9412   0.6065     C
C      0.87465   0.4407  0.98414     C
C      0.87465   0.5593  0.48414     C
C      0.87554   0.3674  0.92238     C
C      0.87554   0.6326  0.42238     C
C      0.87894   0.2179  0.22421     C
C      0.87894   0.7821  0.72421     C
H      0.88067  0.18014  0.78849     H
H      0.88067  0.81986  0.28849     H
C       0.8813   0.4807   0.1064     C
C       0.8813   0.5193   0.6064     C
H       0.8848   0.1822   0.1496     H
H       0.8848   0.8178   0.6496     H
C       0.8928   0.0411   0.6051     C
C       0.8928   0.9589   0.1051     C
H       0.8946   0.1393   0.5594     H
H       0.8946   0.8607   0.0594     H
H       0.8953   0.3243   0.9139     H
H       0.8953   0.6757   0.4139     H
C      0.89873   0.3304  0.36337     C
C      0.89873   0.6696  0.86337     C
C      0.90071   0.1138  0.14975     C
C      0.90071   0.8862  0.64975     C
C      0.90399    0.379  0.97025     C
C      0.90399    0.621  0.47025     C
H       0.9042   0.0678   0.8894     H
H       0.9042   0.9322   0.3894     H
C      0.90805   0.2339  0.34818     C
C      0.90805   0.7661  0.84818     C
H       0.9117   0.3439   0.4918     H
H       0.9117   0.6561   0.9918     H
Si     0.91873  0.47438  0.04885    Si
Si     0.91873  0.52562  0.54885    Si
H       0.9208   0.4844   0.6288     H
H       0.9208   0.5156   0.1288     H
C      0.92427   0.4161  0.27269     C
C      0.92427   0.5839  0.77269     C
H       0.9393   0.2581   0.0937     H
H       0.9393   0.7419   0.5937     H
H       0.9402   0.4823   0.2896     H
H       0.9402   0.5177   0.7896     H
C       0.9415   0.3178   0.5231     C
C       0.9415   0.6822   0.0231     C
C      0.94287   0.2459  0.24826     C
C      0.94287   0.7541  0.74826     C
H       0.9435   0.3452   0.9937     H
H       0.9435   0.6548   0.4937     H
H       0.9439   0.2015   0.8568     H
H       0.9439   0.7985   0.3568     H
H       0.9447   0.4643   0.4057     H
H       0.9447   0.5357   0.9057     H
C       0.9477   0.0793   0.6465     C
C       0.9477   0.9207   0.1465     C
C       0.9492   0.0609   0.9167     C
C       0.9492   0.9391   0.4167     C
C      0.95092      0.4  0.39508     C
C      0.95092      0.6  0.89508     C
C      0.95349   0.3828  0.55979     C
C      0.95349   0.6172  0.05979     C
H       0.9542   0.0416   0.9446     H
H       0.9542   0.9584   0.4446     H
C      0.95439   0.0695  0.19347     C
C      0.95439   0.9305  0.69347     C
H        0.959   0.1778   0.5031     H
H        0.959   0.8222   0.0031     H
C      0.96497   0.3452  0.27306     C
C      0.96497   0.6548  0.77306     C
H       0.9657   0.1441   0.6459     H
H       0.9657   0.8559   0.1459     H
H       0.9679   0.0041   0.9106     H
H       0.9679   0.9959   0.4106     H
C      0.96846   0.2059  0.36413     C
C      0.96846   0.7941  0.86413     C
C        0.971   0.2163     0.53     C
C        0.971   0.7837     0.03     C
C       0.9714   0.2318   0.8876     C
C       0.9714   0.7682   0.3876     C
H       0.9745   0.1405    0.354     H
H       0.9745   0.8595    0.854     H
C       0.9787   0.0249   0.6903     C
C       0.9787   0.9751   0.1903     C
C      0.97999   0.2768   0.1045     C
C      0.97999   0.7232   0.6045     C
H       0.9832    0.054    0.782     H
H       0.9832    0.946    0.282     H
C       0.9833   0.1714   0.9255     C
C       0.9833   0.8286   0.4255     C
H       0.9862   0.3766   0.8669     H
H       0.9862   0.6234   0.3669     H
C      0.98801   0.3754  0.08884     C
C      0.98801   0.6246  0.58884     C
H       0.9921   0.3648   0.2097     H
H       0.9921   0.6352   0.7097     H
C       0.9992    0.337   0.8938     C
C       0.9992    0.663   0.3938     C
