data_I
_chemical_name_common  '/home/zhangsd/repos/MofS-CGCNN/ML/data/TSD/clean_cifs/XOQXEH_clean'
_cell_length_a  7.52800
_cell_length_b 17.85300
_cell_length_c 23.75700
_cell_angle_alpha 92.53400
_cell_angle_beta  90.00000
_cell_angle_gamma 90.00000
_space_group_name_H-M_alt      'P 1'


loop_
_space_group_symop_operation_xyz
  'x, y, z' 

loop_
_atom_site_label
_atom_site_fract_x
_atom_site_fract_y
_atom_site_fract_z
_atom_site_type_symbol
Zn     0.02626  0.57831  0.03157    Zn
Zn     0.02626  0.92169  0.46843    Zn
C       0.0293  0.19343  0.34554     C
C       0.0293  0.30657  0.15446     C
C       0.0445     0.75     0.75     C
C       0.0505   0.5139  0.24742     C
C       0.0505   0.9861  0.25258     C
C       0.0541  0.54285  0.14585     C
C       0.0541  0.95715  0.35415     C
H       0.0654   0.0094   0.1697     H
H       0.0654   0.4906   0.3303     H
H       0.0668   0.5047   0.7581     H
H       0.0668   0.9953   0.7419     H
F       0.0708  0.65197  0.67919     F
F       0.0708  0.84803  0.82081     F
C       0.0723  0.20411  0.28951     C
C       0.0723  0.29589  0.21049     C
H       0.0783   0.7134   0.8607     H
H       0.0783   0.7866   0.6393     H
O       0.1015   0.0178  0.64296     O
O       0.1015   0.4822  0.85704     O
H       0.1114   0.1476   0.4174     H
H       0.1114   0.3524   0.0826     H
C       0.1282  0.51164  0.30016     C
C       0.1282  0.98836  0.19984     C
F       0.1298  0.56471  0.41753     F
F       0.1298  0.93529  0.08247     F
O       0.1408  0.56726  0.10526     O
O       0.1408  0.93274  0.39474     O
C       0.1413  0.54278  0.20275     C
C       0.1413  0.95722  0.29725     C
C       0.1419   0.1541  0.37912     C
C       0.1419   0.3459  0.12088     C
O       0.1539  0.16016  0.56192     O
O       0.1539  0.33984  0.93808     O
H       0.1648   0.2016   0.9291     H
H       0.1648   0.2984   0.5709     H
C       0.1648  0.69283  0.71766     C
C       0.1648  0.80717  0.78234     C
O       0.1747  0.00288  0.51379     O
O       0.1747  0.49712  0.98621     O
F       0.2116  0.05098   0.0878     F
F       0.2116  0.44902   0.4122     F
C       0.2263  0.17103  0.26755     C
C       0.2263  0.32897  0.23245     C
F       0.2392   0.6451  0.75164     F
F       0.2392   0.8549  0.74836     F
H       0.2544   0.1758   0.2289     H
H       0.2544   0.3242   0.2711     H
H       0.2591   0.6734   0.3595     H
H       0.2591   0.8266   0.1405     H
C       0.2715  0.52003  0.41516     C
C       0.2715  0.97997  0.08484     C
H       0.2758   0.0818    0.908     H
H       0.2758   0.4182    0.592     H
C        0.282  0.19586   0.9148     C
C        0.282  0.30414   0.5852     C
Zn     0.29499  0.00941   0.5873    Zn
Zn     0.29499  0.49059   0.9127    Zn
F       0.2976   0.7252  0.68957     F
F       0.2976   0.7748  0.81043     F
C       0.2986  0.54024  0.30886     C
C       0.2986  0.95976  0.19114     C
C       0.2995   0.1237  0.35777     C
C       0.2995   0.3763  0.14223     C
C       0.3089   0.1639  0.58039     C
C       0.3089   0.3361  0.91961     C
C       0.3119  0.57045   0.2111     C
C       0.3119  0.92955   0.2889     C
F       0.3316  0.50725  0.67451     F
F       0.3316  0.99275  0.82549     F
C       0.3391  0.13132  0.30126     C
C       0.3391  0.36868  0.19874     C
C       0.3477  0.12449  0.90223     C
C       0.3477  0.37551  0.59777     C
F       0.3538  0.52916  0.46499     F
F       0.3538  0.97084  0.03501     F
H       0.3696   0.7074   0.1177     H
H       0.3696   0.7926   0.3823     H
H       0.3757     0.59   0.1805     H
H       0.3757     0.91   0.3195     H
C       0.3765  0.67895  0.37372     C
C       0.3765  0.82105  0.12628     C
C       0.3847  0.24113  0.59326     C
C       0.3847  0.25887  0.90674     C
F       0.3885  0.54195   0.5909     F
F       0.3885  0.95805   0.9091     F
C       0.3889  0.56957  0.26369     C
C       0.3889  0.93043  0.23631     C
O        0.389  0.07532  0.44525     O
O        0.389  0.42468  0.05475     O
C       0.3968  0.53837  0.36606     C
C       0.3968  0.96163  0.13394     C
O       0.4075  0.10886   0.5903     O
O       0.4075  0.39114   0.9097     O
C       0.4248  0.08321  0.39498     C
C       0.4248  0.41679  0.10502     C
O       0.4314  0.56045  0.87173     O
O       0.4314  0.93955  0.62827     O
C       0.4425   0.7499  0.38686     C
C       0.4425   0.7501  0.11314     C
H        0.444   0.1092   0.2857     H
H        0.444   0.3908   0.2143     H
F       0.4643  0.08856  0.16133     F
F       0.4643  0.41144  0.33867     F
C       0.4644  0.52507  0.64025     C
C       0.4644  0.97493  0.85975     C
C       0.4802  0.61564  0.38116     C
C       0.4802  0.88436  0.11884     C
H       0.4948   0.0892   0.7692     H
H       0.4948   0.4108   0.7308     H
H       0.5052   0.5892   0.2692     H
H       0.5052   0.9108   0.2308     H
C       0.5198  0.11564  0.88116     C
C       0.5198  0.38436  0.61884     C
C       0.5356  0.02507  0.14025     C
C       0.5356  0.47493  0.35975     C
F       0.5357  0.58856  0.66133     F
F       0.5357  0.91144  0.83867     F
H        0.556   0.6092   0.7857     H
H        0.556   0.8908   0.7143     H
C       0.5575   0.2499  0.88686     C
C       0.5575   0.2501  0.61314     C
O       0.5686  0.06045  0.37173     O
O       0.5686  0.43955  0.12827     O
C       0.5752  0.58321  0.89498     C
C       0.5752  0.91679  0.60502     C
O       0.5925  0.60886   0.0903     O
O       0.5925  0.89114   0.4097     O
C       0.6032  0.03837  0.86606     C
C       0.6032  0.46163  0.63394     C
O        0.611  0.57532  0.94525     O
O        0.611  0.92468  0.55475     O
C       0.6111  0.06957  0.76369     C
C       0.6111  0.43043  0.73631     C
F       0.6115  0.04195   0.0909     F
F       0.6115  0.45805   0.4091     F
C       0.6153  0.74113  0.09326     C
C       0.6153  0.75887  0.40674     C
C       0.6235  0.17895  0.87372     C
C       0.6235  0.32105  0.62628     C
H       0.6243     0.09   0.6805     H
H       0.6243     0.41   0.8195     H
H       0.6304   0.2074   0.6177     H
H       0.6304   0.2926   0.8823     H
F       0.6462  0.02916  0.96499     F
F       0.6462  0.47084  0.53501     F
C       0.6523  0.62449  0.40223     C
C       0.6523  0.87551  0.09777     C
C       0.6609  0.63132  0.80126     C
C       0.6609  0.86868  0.69874     C
F       0.6684  0.00725  0.17451     F
F       0.6684  0.49275  0.32549     F
C       0.6881  0.07045   0.7111     C
C       0.6881  0.42955   0.7889     C
C       0.6911   0.6639  0.08039     C
C       0.6911   0.8361  0.41961     C
C       0.7005   0.6237  0.85777     C
C       0.7005   0.8763  0.64223     C
C       0.7014  0.04024  0.80886     C
C       0.7014  0.45976  0.69114     C
F       0.7024   0.2252  0.18957     F
F       0.7024   0.2748  0.31043     F
Zn     0.70501  0.50941   0.0873    Zn
Zn     0.70501  0.99059   0.4127    Zn
C        0.718  0.69586   0.4148     C
C        0.718  0.80414   0.0852     C
H       0.7242   0.5818    0.408     H
H       0.7242   0.9182    0.092     H
C       0.7285  0.02003  0.91516     C
C       0.7285  0.47997  0.58484     C
H       0.7409   0.1734   0.8595     H
H       0.7409   0.3266   0.6405     H
H       0.7456   0.6758   0.7289     H
H       0.7456   0.8242   0.7711     H
F       0.7608   0.1451  0.25164     F
F       0.7608   0.3549  0.24836     F
C       0.7737  0.67103  0.76755     C
C       0.7737  0.82897  0.73245     C
F       0.7884  0.55098   0.5878     F
F       0.7884  0.94902   0.9122     F
O       0.8253  0.50288  0.01379     O
O       0.8253  0.99712  0.48621     O
C       0.8352  0.19283  0.21766     C
C       0.8352  0.30717  0.28234     C
H       0.8352   0.7016   0.4291     H
H       0.8352   0.7984   0.0709     H
O       0.8461  0.66016  0.06192     O
O       0.8461  0.83984  0.43808     O
C       0.8581   0.6541  0.87912     C
C       0.8581   0.8459  0.62088     C
C       0.8587  0.04278  0.70275     C
C       0.8587  0.45722  0.79725     C
O       0.8592  0.06726  0.60526     O
O       0.8592  0.43274  0.89474     O
F       0.8702  0.06471  0.91753     F
F       0.8702  0.43529  0.58247     F
C       0.8718  0.01164  0.80016     C
C       0.8718  0.48836  0.69984     C
H       0.8886   0.6476   0.9174     H
H       0.8886   0.8524   0.5826     H
O       0.8985   0.5178  0.14296     O
O       0.8985   0.9822  0.35704     O
H       0.9217   0.2134   0.3607     H
H       0.9217   0.2866   0.1393     H
C       0.9277  0.70411  0.78951     C
C       0.9277  0.79589  0.71049     C
F       0.9292  0.15197  0.17919     F
F       0.9292  0.34803  0.32081     F
H       0.9332   0.0047   0.2581     H
H       0.9332   0.4953   0.2419     H
H       0.9346   0.5094   0.6697     H
H       0.9346   0.9906   0.8303     H
C       0.9459  0.04285  0.64585     C
C       0.9459  0.45715  0.85415     C
C       0.9495   0.0139  0.74742     C
C       0.9495   0.4861  0.75258     C
C       0.9555     0.25     0.25     C
C       0.9707  0.69343  0.84554     C
C       0.9707  0.80657  0.65446     C
Zn     0.97374  0.07831  0.53157    Zn
Zn     0.97374  0.42169  0.96843    Zn
