data_I
_chemical_name_common  '/home/zhangsd/repos/MofS-CGCNN/ML/data/TSD/clean_cifs/XOVVIO_clean'
_cell_length_a  9.92400
_cell_length_b 11.73800
_cell_length_c 15.20300
_cell_angle_alpha 94.77000
_cell_angle_beta  98.94000
_cell_angle_gamma 112.62000
_space_group_name_H-M_alt      'P 1'


loop_
_space_group_symop_operation_xyz
  'x, y, z' 

loop_
_atom_site_label
_atom_site_fract_x
_atom_site_fract_y
_atom_site_fract_z
_atom_site_type_symbol
Zn     0.01456  0.93243  0.20794    Zn
C       0.0381   0.8704   0.0115     C
H       0.0634   0.1772   0.0092     H
O        0.079   0.3131   0.2353     O
N       0.0998   0.9325   0.0963     N
O        0.108   0.2552   0.8054     O
Zn     0.11375  0.81516  0.83346    Zn
N       0.1213   0.0175   0.7257     N
O       0.1357   0.1513   0.2092     O
N       0.1398   0.8855   0.9616     N
C       0.1715   0.2595   0.2448     C
H       0.1724   0.0675   0.4113     H
H       0.1731   0.1378   0.6394     H
N       0.1836   0.9499    0.312     N
N       0.1856   0.9356   0.7499     N
C       0.1942    0.077   0.6668     C
H       0.2016   0.4905   0.8327     H
O       0.2086   0.6975   0.8368     O
C       0.2242   0.0218   0.3925     C
H       0.2302   0.4632   0.0599     H
C       0.2389    0.283   0.8525     C
C       0.2456   0.9853   0.0947     C
O       0.2464   0.4002   0.0638     O
H       0.2628   0.6687   0.5905     H
O       0.2712   0.2017   0.8886     O
N       0.2762   0.9601   0.0159     N
C       0.2871   0.9024   0.3156     C
H       0.2893   0.8472   0.2688     H
C       0.2933   0.9543   0.7038     C
H       0.2956   0.4821   0.5655     H
H       0.3004   0.4974    0.325     H
C       0.3023   0.5097   0.8534     C
N       0.3025   0.0409   0.6501     N
O       0.3117   0.2708    0.542     O
H       0.3182   0.0349   0.1445     H
C       0.3231   0.3345   0.3007     C
N       0.3436   0.0216   0.4421     N
O       0.3444   0.7158    0.621     O
C       0.3489   0.7347   0.8663     C
C       0.3506   0.4146   0.8644     C
H       0.3556   0.9119   0.7082     H
C       0.3671   0.4595   0.3354     C
H       0.3742   0.2542    0.087     H
N       0.3858   0.9425   0.3925     N
C       0.3914   0.5282   0.5991     C
H       0.3938   0.1961   0.2919     H
C       0.3969   0.4335   0.0909     C
C       0.4049   0.6343   0.8734     C
C       0.4222   0.2794   0.3158     C
O       0.4342   0.8484   0.8886     O
C       0.4351   0.6523   0.6332     C
C       0.4416    0.336   0.5818     C
C       0.4432   0.3369   0.0993     C
Zn     0.44328   0.1086  0.56835    Zn
O       0.4601   0.7107   0.4015     O
H        0.466   0.6208   0.1014     H
C       0.4914   0.4726   0.6151     C
C       0.4987   0.5571   0.1082     C
Zn         0.5      0.0      0.0    Zn
C       0.5013   0.4429   0.8918     C
C       0.5086   0.5274   0.3849     C
H        0.534   0.3792   0.8986     H
O       0.5399   0.2893   0.5985     O
Zn     0.55672   0.8914  0.43165    Zn
C       0.5568   0.6631   0.9007     C
C       0.5584    0.664   0.4182     C
C       0.5649   0.3477   0.3668     C
O       0.5658   0.1516   0.1114     O
C       0.5778   0.7206   0.6842     C
C       0.5951   0.3657   0.1266     C
C       0.6031   0.5665   0.9091     C
H       0.6062   0.8039   0.7081     H
C       0.6086   0.4718   0.4009     C
N       0.6142   0.0575   0.6075     N
H       0.6258   0.7458    0.913     H
C       0.6329   0.5405   0.6646     C
H       0.6444   0.0881   0.2918     H
C       0.6494   0.5854   0.1356     C
C       0.6511   0.2653   0.1337     C
O       0.6556   0.2842    0.379     O
N       0.6564   0.9784   0.5579     N
C       0.6769   0.6655   0.6993     C
H       0.6818   0.9651   0.8555     H
O       0.6883   0.7292    0.458     O
N       0.6975   0.9591   0.3499     N
C       0.6977   0.4903   0.1466     C
H       0.6996   0.5026    0.675     H
H       0.7044   0.5179   0.4345     H
C       0.7067   0.0457   0.2962     C
H       0.7107   0.1528   0.7312     H
C       0.7129   0.0976   0.6844     C
N       0.7238   0.0399   0.9841     N
O       0.7288   0.7983   0.1114     O
H       0.7372   0.3313   0.4095     H
O       0.7536   0.5998   0.9362     O
C       0.7544   0.0147   0.9053     C
C       0.7611    0.717   0.1475     C
H       0.7698   0.5368   0.9401     H
C       0.7758   0.9782   0.6075     C
O       0.7914   0.3025   0.1632     O
H       0.7984   0.5095   0.1673     H
C       0.8058    0.923   0.3332     C
N       0.8144   0.0644   0.2501     N
N       0.8164   0.0501    0.688     N
H       0.8269   0.8622   0.3606     H
H       0.8276   0.9325   0.5887     H
C       0.8285   0.7405   0.7552     C
N       0.8602   0.1145   0.0384     N
O       0.8643   0.8487   0.7908     O
N       0.8787   0.9825   0.2743     N
Zn     0.88625  0.18484  0.16654    Zn
O        0.892   0.7448   0.1946     O
N       0.9002   0.0675   0.9037     N
O        0.921   0.6869   0.7647     O
H       0.9366   0.8228   0.9908     H
C       0.9619   0.1296   0.9885     C
Zn     0.98544  0.06757  0.79206    Zn
