data_I
_chemical_name_common  '/home/zhangsd/repos/MofS-CGCNN/ML/data/TSD/clean_cifs/XOXMED_clean'
_cell_length_a 23.27500
_cell_length_b 25.48600
_cell_length_c 43.96450
_cell_angle_alpha 90.00000
_cell_angle_beta  90.62370
_cell_angle_gamma 90.00000
_space_group_name_H-M_alt      'P 1'


loop_
_space_group_symop_operation_xyz
  'x, y, z' 

loop_
_atom_site_label
_atom_site_fract_x
_atom_site_fract_y
_atom_site_fract_z
_atom_site_type_symbol
C      0.00368   0.7417  0.44918     C
C      0.00575   0.3005  0.15095     C
C       0.0074   0.2734   0.0655     C
O       0.0111   0.7158   0.5004     O
C      0.01321   0.6996  0.29151     C
H       0.0134   0.3323   0.9631     H
C      0.01436   0.2286  0.60316     C
C      0.01449   0.7052  0.88229     C
C      0.02012   0.2667  0.52032     C
H       0.0228   0.6863   0.3119     H
H       0.0245   0.6737   0.2762     H
H       0.0246   0.6527   0.0661     H
N      0.02473  0.78061  0.33733     N
C      0.02541   0.6681  0.04571     C
H       0.0257   0.8477   0.9916     H
C      0.02598   0.2805  0.09638     C
H       0.0267   0.1766   0.4674     H
N      0.02764  0.74244  0.99474     N
C      0.02778   0.1994  0.65758     C
H       0.0283   0.2942   0.7101     H
O      0.02871  0.68621  0.83021     O
C      0.02966   0.2477  0.01216     C
C      0.03507   0.2352  0.57407     C
C      0.04098   0.7536  0.39068     C
H       0.0416   0.1965    0.184     H
H       0.0423   0.8894   0.3317     H
C      0.04448   0.7496  0.28618     C
H       0.0451   0.4025   0.1739     H
C        0.047   0.7248   0.0477     C
C      0.04898    0.763  0.02438     C
C      0.04947   0.7156  0.94197     C
C      0.05033   0.2074  0.62543     C
C      0.05097   0.2549  0.04507     C
H       0.0511   0.6476   0.0328     H
C      0.05145  0.78892  0.30725     C
C      0.05681   0.7261  0.44261     C
O      0.05724   0.1794  0.67604     O
C      0.06059   0.7585  0.35909     C
N       0.0619   0.2903   0.1573     N
C      0.06207   0.8523  0.00277     C
H       0.0635   0.8876   0.0116     H
O      0.06365  0.23121  0.99225     O
C      0.06604   0.8128  0.02734     C
C      0.06697   0.1739  0.46127     C
C      0.06734   0.7196  0.97404     C
H       0.0689   0.1604   0.4405     H
C      0.06957   0.6916  0.88997     C
H       0.0698    0.176   0.2152     H
H       0.0744   0.7339   0.2421     H
H       0.0747    0.375   0.5039     H
N      0.07486   0.2521  0.51446     N
C      0.07542  0.74087  0.07582     C
C      0.07589  0.19783  0.19719     C
C      0.07597   0.7318  0.41227     C
C      0.07716  0.75884  0.25806     C
H       0.0791   0.7168   0.0922     H
C      0.08009  0.83372  0.30339     C
H       0.0813   0.7114   0.4579     H
C      0.08167  0.87924  0.32667     C
C       0.0819  0.29908   0.1878     C
C      0.08259  0.26778  0.10419     C
C       0.0862   0.2212   0.5655     C
C      0.08643  0.39525  0.17463     C
C      0.08697   0.2549  0.20707     C
H       0.0874   0.1501   0.4751     H
C      0.08841   0.6944  0.92201     C
H       0.0942   0.8477   0.9888     H
C      0.09507  0.82472  0.05427     C
H       0.0955   0.6805   0.8747     H
C      0.09677  0.79065  0.07867     C
C      0.09721   0.2329  0.46281     C
C      0.09838  0.34855  0.19688     C
H       0.0996    0.386   0.1542     H
C       0.0998    0.267   0.4857     C
C      0.10109   0.2727  0.13699     C
H       0.1018   0.9093   0.3179     H
H       0.1019   0.8678   0.3452     H
H       0.1034   0.0447   0.3304     H
C      0.10416     0.19  0.61936     C
H       0.1046   0.6231    0.335     H
C      0.10615    0.247  0.05245     C
H       0.1069   0.4265   0.1818     H
H       0.1091   0.1847    0.186     H
O      0.10983  0.74262  0.35133     O
C      0.11014  0.80062  0.25434     C
C      0.11074  0.26403  0.23734     C
C      0.11148  0.84004  0.27468     C
C       0.1134   0.2297   0.5344     C
H       0.1134   0.7202    0.407     H
O      0.11356   0.7156  0.98256     O
H       0.1142   0.2362   0.2516     H
H       0.1143   0.8575    0.056     H
C      0.11503   0.3637  0.50443     C
C       0.1201   0.1978   0.5865     C
C      0.12033  0.35765  0.22563     C
H       0.1223   0.9976   0.3524     H
C      0.12305   0.2538  0.08215     C
C      0.12342   0.3164  0.48162     C
H       0.1251   0.6822   0.9285     H
H       0.1254   0.3525   0.5251     H
C      0.12562   0.2425  0.43632     C
H        0.126   0.5364   0.1309     H
O       0.1267  0.77747  0.12985     O
C      0.12867  0.31571  0.24487     C
H       0.1291   0.1746   0.6342     H
H       0.1296   0.3923    0.232     H
O      0.13031  0.77875  0.20216     O
H       0.1309   0.6107   0.3023     H
H        0.131   0.2148   0.4222     H
H       0.1321   0.8713   0.2706     H
C      0.13243   0.8052  0.10703     C
H        0.133   0.2369   0.0374     H
C      0.13336  0.01864  0.33476     C
H       0.1379   0.9956   0.3171     H
C      0.13846  0.62693  0.32216     C
H       0.1396   0.3931   0.4984     H
H       0.1423   0.1105   0.1141     H
H        0.144   0.4884   0.1525     H
C      0.14599  0.80585  0.22599     C
H       0.1471   0.6643   0.3194     H
C      0.14721   0.2931  0.42961     C
C      0.14975   0.3299  0.45545     C
O      0.14982  0.26186  0.14452     O
O      0.15285  0.28638  0.29513     O
H       0.1541   0.1562   0.1383     H
C       0.1564   0.5111   0.1358     C
H       0.1565   0.1853   0.5802     H
C      0.16072  0.32209  0.27512     C
H       0.1622   0.2491   0.0878     H
O      0.16342  0.27939  0.37709     O
O      0.16401    0.219  0.52821     O
H       0.1645   0.4896   0.1179     H
H       0.1649   0.1215   0.3318     H
H       0.1651   0.5253   0.3269     H
O      0.16549  0.84547  0.10439     O
H       0.1694   0.3624   0.4538     H
C      0.17134  0.13446  0.12244     C
H       0.1727   0.6144   0.1456     H
C      0.17586   0.3094  0.40116     C
Zn      0.1778  0.77722  0.16606    Zn
H       0.1858   0.1571   0.1062     H
Zn      0.1865  0.28415  0.33557    Zn
O      0.18746  0.83752  0.22694     O
C      0.18805  0.04559  0.34125     C
O      0.18899  0.36413  0.27848     O
H       0.1897   0.0312   0.1264     H
C      0.18972  0.59991  0.33742     C
C      0.19362   0.5454  0.33722     C
C      0.19717  0.10104  0.33787     C
O      0.19867  0.70471  0.16247     O
O      0.20534  0.20854  0.33406     O
H       0.2061   0.7783   0.4215     H
O      0.20728   0.3484  0.40052     O
C      0.20832  0.59733  0.14922     C
O      0.21061  0.68467  0.39913     O
C      0.21131   0.5407  0.14551     C
O      0.21257  0.43572  0.33308     O
C      0.21483   0.7961  0.40313     C
H       0.2159   0.8697   0.4214     H
O      0.21679  0.96277  0.39929     O
C      0.21894  0.85106  0.40274     C
C      0.22037  0.10319  0.13587     C
C      0.22106  0.04875  0.13596     C
C      0.22192  0.71099  0.37622     C
C      0.22363   0.7677  0.37633     C
C      0.22711  0.87867  0.37661     C
C      0.22805  0.93615  0.37695     C
C      0.23098  0.79588  0.34768     C
N       0.2315  0.68513  0.34922     N
O      0.23215  0.94085  0.12552     O
Zn     0.23279  0.86529  0.12758    Zn
C      0.23368  0.62756  0.35048     C
N      0.23487  0.96158  0.34867     N
C      0.23529  0.85073  0.34889     C
C      0.23544  0.01925  0.34824     C
Zn     0.23753  0.87762  0.19805    Zn
C      0.23847  0.46186  0.35437     C
C      0.23892  0.52009  0.35192     C
C       0.2401  0.76911   0.3214     C
O      0.24131  0.82393  0.16416     O
C       0.2427  0.87766    0.321     C
O      0.24396  0.46106  0.20232     O
C      0.24443  0.93552  0.32103     C
O       0.2445  0.18521  0.20144     O
C      0.24461  0.71176  0.32081     C
C      0.24631  0.12657  0.34241     C
H       0.2464   0.3684   0.2234     H
C       0.2465  0.79468   0.2951     C
C      0.24767  0.68375  0.16277     C
C      0.24829  0.85021  0.29519     C
H       0.2499   0.7758   0.2766     H
H       0.2501   0.2758   0.2234     H
C      0.25171  0.35021  0.20481     C
C      0.25233  0.18375  0.33723     C
C       0.2535  0.29468   0.2049     C
H       0.2536   0.8684   0.2766     H
C      0.25369  0.62657  0.15759     C
C      0.25539  0.21176  0.17919     C
O       0.2555  0.68521  0.29856     O
C      0.25557  0.43552  0.17897     C
O      0.25604  0.96106  0.29768     O
C       0.2573  0.37766    0.179     C
O      0.25869  0.32393  0.33584     O
C       0.2599  0.26911   0.1786     C
C      0.26108  0.02009  0.14808     C
C      0.26153  0.96186  0.14563     C
Zn     0.26247  0.37762  0.30195    Zn
C      0.26456  0.51925  0.15176     C
C      0.26471  0.35073  0.15111     C
N      0.26513  0.46158  0.15133     N
C      0.26632  0.12756  0.14952     C
Zn     0.26721  0.36529  0.37242    Zn
O      0.26785  0.44085  0.37448     O
N       0.2685  0.18513  0.15078     N
C      0.26902  0.29588  0.15232     C
C      0.27195  0.43615  0.12305     C
C      0.27289  0.37867  0.12339     C
C      0.27637   0.2677  0.12367     C
C      0.27808  0.21099  0.12378     C
C      0.27894  0.54875  0.36404     C
C      0.27963  0.60319  0.36413     C
C      0.28106  0.35106  0.09726     C
O      0.28321  0.46277  0.10071     O
H       0.2841   0.3697   0.0786     H
C      0.28517   0.2961  0.09687     C
O      0.28743  0.93572  0.16692     O
C      0.28869   0.0407  0.35449     C
O      0.28939  0.18467  0.10087     O
C      0.29168  0.09733  0.35078     C
O      0.29272   0.8484  0.09948     O
H       0.2939   0.2783   0.0785     H
O      0.29466  0.70854  0.16594     O
O      0.30133  0.20471  0.33753     O
C      0.30283  0.60104  0.16213     C
C      0.30638   0.0454  0.16278     C
C      0.31028  0.09991  0.16258     C
H       0.3103   0.5312   0.3736     H
O      0.31101  0.86413  0.22152     O
C      0.31195  0.54559  0.15875     C
O      0.31254  0.33752  0.27306     O
Zn      0.3135  0.78415  0.16443    Zn
H       0.3142   0.6571   0.3938     H
Zn      0.3222  0.27722  0.33394    Zn
C      0.32414   0.8094  0.09884     C
H       0.3273   0.1144   0.3544     H
C      0.32866  0.63446  0.37756     C
H       0.3306   0.8624   0.0462     H
O      0.33451  0.34547  0.39561     O
H       0.3349   0.0253   0.1731     H
H       0.3351   0.6215   0.1682     H
H       0.3355   0.9896   0.3821     H
O      0.33599    0.719  0.97179     O
O      0.33658  0.77939  0.12291     O
H       0.3378   0.7491   0.4122     H
C      0.33928  0.82209  0.22488     C
H       0.3435   0.6853   0.9198     H
C       0.3436   0.0111   0.3642     C
H       0.3459   0.6562   0.3617     H
O      0.34715  0.78638  0.20487     O
O      0.35018  0.76186  0.35548     O
C      0.35025   0.8299  0.04455     C
C      0.35279   0.7931  0.07039     C
H       0.3529   0.1643   0.1806     H
C      0.35401  0.30585  0.27401     C
H        0.356   0.9884   0.3475     H
H       0.3577   0.6105   0.3859     H
H       0.3604   0.8931   0.0016     H
C      0.36154  0.12693  0.17784     C
H       0.3621   0.4956   0.1829     H
C      0.36664  0.51864  0.16524     C
H        0.367   0.7369   0.4626     H
C      0.36757   0.3052  0.39297     C
H       0.3679   0.3713   0.2294     H
H        0.369   0.7148   0.0778     H
H       0.3691   0.1107   0.1977     H
O      0.36969  0.27875  0.29784     O
H       0.3704   0.8923    0.268     H
H       0.3709   0.6746   0.8658     H
C      0.37133  0.81571  0.25513     C
O       0.3733  0.27747  0.37015     O
H        0.374   0.0364   0.3691     H
C      0.37438   0.7425  0.06368     C
H       0.3746   0.8525   0.9749     H
H       0.3749   0.1822   0.5715     H
C      0.37658   0.8164  0.01838     C
C      0.37695   0.7538  0.41785     C
H       0.3777   0.4976   0.1476     H
C      0.37967  0.85765  0.27437     C
C       0.3799   0.6978   0.9135     C
C      0.38497   0.8637  0.99557     C
H       0.3857   0.3575    0.444     H
H       0.3858   0.7362   0.2484     H
O      0.38644   0.2156  0.51744     O
H       0.3866   0.2202    0.093     H
C       0.3866   0.7297   0.9656     C
C      0.38852  0.34004  0.22532     C
C      0.38926  0.76403  0.26266     C
C      0.38986  0.30062  0.24566     C
O      0.39017  0.24262  0.14867     O
H       0.3909   0.6847    0.314     H
H       0.3931   0.9265   0.3182     H
C      0.39385    0.747  0.44755     C
H       0.3954   0.1231    0.165     H
C      0.39584     0.69  0.88064     C
H       0.3966   0.5447   0.1696     H
H       0.3981   0.3678   0.1548     H
H       0.3982   0.4093   0.1821     H
C      0.39891   0.7727  0.36301     C
C       0.4002    0.767   0.0143     C
H       0.4004    0.886   0.3458     H
C      0.40162  0.84855  0.30312     C
C      0.40279   0.7329  0.03719     C
C      0.40323  0.29065  0.42133     C
H       0.4045   0.1805   0.6253     H
C      0.40493  0.32472  0.44573     C
H       0.4058   0.3477   0.5112     H
C      0.41159   0.1944  0.57799     C
H       0.4126   0.6501   0.0249     H
C      0.41303   0.7549  0.29293     C
C      0.41357  0.89525  0.32537     C
C       0.4138   0.7212   0.9345     C
C      0.41741  0.76778  0.39581     C
C       0.4181  0.79908   0.3122     C
C      0.41833  0.37924  0.17333     C
H       0.4187   0.2114   0.0421     H
C      0.41991  0.33372  0.19661     C
H       0.4209   0.2168   0.4078     H
C      0.42284  0.25884  0.24194     C
C      0.42403   0.2318  0.08773     C
C      0.42411  0.69783  0.30281     C
C      0.42458  0.24087  0.42418     C
N      0.42514   0.7521  0.98554     N
H       0.4253    0.875   0.9961     H
H       0.4256   0.2339   0.2579     H
H       0.4302    0.676   0.2848     H
C      0.43043   0.1916  0.61003     C
H       0.4311   0.6604   0.0595     H
C      0.43266   0.2196  0.52596     C
C      0.43303   0.6739  0.03873     C
C      0.43396   0.3128  0.47266     C
O      0.43635  0.73121  0.50775     O
H       0.4365   0.3876   0.4884     H
C      0.43793   0.3523  0.49723     C
N       0.4381   0.7903   0.3427     N
C      0.43941   0.2585  0.14091     C
O      0.44276   0.6794  0.82396     O
C      0.44319   0.2261  0.05739     C
C      0.44855  0.28892  0.19275     C
H       0.4489   0.1476   0.4672     H
C      0.44903   0.7549  0.45493     C
C      0.44967   0.7074  0.87457     C
C      0.45053   0.2156  0.55803     C
C      0.45102    0.263  0.47562     C
C        0.453   0.2248   0.4523     C
H       0.4549   0.9025   0.3261     H
C      0.45552   0.2496  0.21382     C
H       0.4577   0.3894   0.1683     H
H       0.4584   0.6965    0.316     H
C      0.45902   0.2536  0.10932     C
C      0.46493   0.7352  0.92593     C
C      0.47034   0.7477  0.48784     C
O      0.47129  0.18621  0.66979     O
H       0.4717   0.7942   0.7899     H
C      0.47222   0.6994  0.84242     C
N      0.47236  0.24244  0.50526     N
H       0.4733   0.6766   0.0326     H
C      0.47402   0.7805  0.40362     C
H       0.4743   0.3477   0.5084     H
C      0.47459   0.1681  0.45429     C
N      0.47527  0.28061  0.16267     N
H       0.4754   0.1527   0.4339     H
H       0.4755   0.1737   0.2238     H
H       0.4772   0.1863   0.1881     H
C      0.47988   0.7667  0.97968     C
C      0.48551   0.2052  0.61771     C
C      0.48564   0.7286  0.89684     C
H       0.4866   0.8323   0.5369     H
C      0.48679   0.1996  0.20849     C
O       0.4889   0.2158   0.9996     O
C       0.4926   0.7734   0.4345     C
C      0.49425   0.8005  0.34905     C
C      0.49632   0.2417  0.05082     C
C      0.50368   0.7583  0.94918     C
C      0.50575   0.1995  0.65095     C
C       0.5074   0.2266   0.5655     C
O       0.5111   0.7842   0.0004     O
C      0.51321   0.8004  0.79151     C
H       0.5134   0.1677   0.4631     H
C      0.51436   0.2714  0.10316     C
C      0.51449   0.7948  0.38229     C
C      0.52012   0.2333  0.02032     C
H       0.5228   0.8137   0.8119     H
H       0.5245   0.8263   0.7762     H
H       0.5246   0.8473   0.5661     H
N      0.52473  0.71939  0.83733     N
C      0.52541   0.8319  0.54571     C
H       0.5257   0.6523   0.4916     H
C      0.52598   0.2195  0.59638     C
H       0.5267   0.3234   0.9674     H
N      0.52764  0.75756  0.49474     N
C      0.52778   0.3006  0.15758     C
H       0.5283   0.2058   0.2101     H
O      0.52871  0.81379  0.33021     O
C      0.52966   0.2523  0.51216     C
C      0.53507   0.2648  0.07407     C
C      0.54098   0.7464  0.89068     C
H       0.5416   0.3035    0.684     H
H       0.5423   0.6106   0.8317     H
C      0.54448   0.7504  0.78618     C
H       0.5451   0.0975   0.6739     H
C        0.547   0.7752   0.5477     C
C      0.54898    0.737  0.52438     C
C      0.54947   0.7844  0.44197     C
C      0.55033   0.2926  0.12543     C
C      0.55097   0.2451  0.54507     C
H       0.5511   0.8524   0.5328     H
C      0.55145  0.71108  0.80725     C
C      0.55681   0.7739  0.94261     C
O      0.55724   0.3206  0.17604     O
C      0.56059   0.7415  0.85909     C
N       0.5619   0.2097   0.6573     N
C      0.56207   0.6477  0.50277     C
H       0.5635   0.6124   0.5116     H
O      0.56365  0.26879  0.49225     O
C      0.56604   0.6872  0.52734     C
C      0.56697   0.3261  0.96127     C
C      0.56734   0.7804  0.47404     C
H       0.5689   0.3396   0.9405     H
C      0.56957   0.8084  0.38997     C
H       0.5698    0.324   0.7152     H
H       0.5744   0.7661   0.7421     H
H       0.5747    0.125   0.0039     H
N      0.57486   0.2479  0.01446     N
C      0.57542  0.75913  0.57582     C
C      0.57589  0.30217  0.69719     C
C      0.57597   0.7682  0.91227     C
C      0.57716  0.74116  0.75806     C
H       0.5791   0.7832   0.5922     H
C      0.58009  0.66628  0.80339     C
H       0.5813   0.7886   0.9579     H
C      0.58167  0.62076  0.82667     C
C       0.5819  0.20092   0.6878     C
C      0.58259  0.23222  0.60419     C
C       0.5862   0.2788   0.0655     C
C      0.58643  0.10475  0.67463     C
C      0.58697   0.2451  0.70707     C
H       0.5874   0.3499   0.9751     H
C      0.58841   0.8056  0.42201     C
H       0.5942   0.6523   0.4888     H
C      0.59507  0.67528  0.55427     C
H       0.5955   0.8195   0.3747     H
C      0.59677  0.70935  0.57867     C
C      0.59721   0.2671  0.96281     C
C      0.59838  0.15145  0.69688     C
H       0.5996    0.114   0.6542     H
C       0.5998    0.233   0.9857     C
C      0.60109   0.2273  0.63699     C
H       0.6018   0.5907   0.8179     H
H       0.6019   0.6322   0.8452     H
H       0.6034   0.4553   0.8304     H
C      0.60416     0.31  0.11936     C
H       0.6046   0.8769    0.835     H
C      0.60615    0.253  0.55245     C
H       0.6069   0.0735   0.6818     H
H       0.6091   0.3153    0.686     H
O      0.60983  0.75738  0.85133     O
C      0.61014  0.69938  0.75434     C
C      0.61074  0.23597  0.73734     C
C      0.61148  0.65996  0.77468     C
C       0.6134   0.2703   0.0344     C
H       0.6134   0.7798    0.907     H
O      0.61356   0.7844  0.48256     O
H       0.6142   0.2638   0.7516     H
H       0.6143   0.6425    0.556     H
C      0.61503   0.1363  0.00443     C
C       0.6201   0.3022   0.0865     C
C      0.62033  0.14235  0.72563     C
H       0.6223   0.5024   0.8524     H
C      0.62305   0.2462  0.58215     C
C      0.62342   0.1836  0.98162     C
H       0.6251   0.8178   0.4285     H
H       0.6254   0.1475   0.0251     H
C      0.62562   0.2575  0.93632     C
H        0.626   0.9636   0.6309     H
O       0.6267  0.72253  0.62985     O
C      0.62867  0.18429  0.74487     C
H       0.6291   0.3254   0.1342     H
H       0.6296   0.1077    0.732     H
O      0.63031  0.72125  0.70216     O
H       0.6309   0.8893   0.8023     H
H        0.631   0.2852   0.9222     H
H       0.6321   0.6287   0.7706     H
C      0.63243   0.6948  0.60703     C
H        0.633   0.2631   0.5374     H
C      0.63336  0.48136  0.83476     C
H       0.6379   0.5044   0.8171     H
C      0.63846  0.87307  0.82216     C
H       0.6396   0.1069   0.9984     H
H       0.6423   0.3895   0.6141     H
H        0.644   0.0116   0.6525     H
C      0.64599  0.69415  0.72599     C
H       0.6471   0.8357   0.8194     H
C      0.64721   0.2069  0.92961     C
C      0.64975   0.1701  0.95545     C
O      0.64982  0.23814  0.64452     O
O      0.65285  0.21362  0.79513     O
H       0.6541   0.3438   0.6383     H
C       0.6564   0.9889   0.6358     C
H       0.6565   0.3147   0.0802     H
C      0.66072  0.17791  0.77512     C
H       0.6622   0.2509   0.5878     H
O      0.66342  0.22061  0.87709     O
O      0.66401    0.281  0.02821     O
H       0.6645   0.0104   0.6179     H
H       0.6649   0.3785   0.8318     H
H       0.6651   0.9747   0.8269     H
O      0.66549  0.65453  0.60439     O
H       0.6694   0.1376   0.9538     H
C      0.67134  0.36554  0.62244     C
H       0.6727   0.8856   0.6456     H
C      0.67586   0.1906  0.90116     C
Zn      0.6778  0.72278  0.66606    Zn
H       0.6858   0.3429   0.6062     H
Zn      0.6865  0.21585  0.83557    Zn
O      0.68746  0.66248  0.72694     O
C      0.68805  0.45441  0.84125     C
O      0.68899  0.13587  0.77848     O
H       0.6897   0.4688   0.6264     H
C      0.68972  0.90009  0.83742     C
C      0.69362   0.9546  0.83722     C
C      0.69717  0.39896  0.83787     C
O      0.69867  0.79529  0.66247     O
O      0.70534  0.29146  0.83406     O
H       0.7061   0.7217   0.9215     H
O      0.70728   0.1516  0.90052     O
C      0.70832  0.90267  0.64922     C
O      0.71061  0.81533  0.89913     O
C      0.71131   0.9593  0.64551     C
O      0.71257  0.06428  0.83308     O
C      0.71483   0.7039  0.90313     C
H       0.7159   0.6303   0.9214     H
O      0.71679  0.53723  0.89929     O
C      0.71894  0.64894  0.90274     C
C      0.72037  0.39681  0.63587     C
C      0.72106  0.45125  0.63596     C
C      0.72192  0.78901  0.87622     C
C      0.72363   0.7323  0.87633     C
C      0.72711  0.62133  0.87661     C
C      0.72805  0.56385  0.87695     C
C      0.73098  0.70412  0.84768     C
N       0.7315  0.81487  0.84922     N
O      0.73215  0.55915  0.62552     O
Zn     0.73279  0.63471  0.62758    Zn
C      0.73368  0.87244  0.85048     C
N      0.73487  0.53842  0.84867     N
C      0.73529  0.64927  0.84889     C
C      0.73544  0.48075  0.84824     C
Zn     0.73753  0.62238  0.69805    Zn
C      0.73847  0.03814  0.85437     C
C      0.73892  0.97991  0.85192     C
C       0.7401  0.73089   0.8214     C
O      0.74131  0.67607  0.66416     O
C       0.7427  0.62234    0.821     C
O      0.74396  0.03894  0.70232     O
C      0.74443  0.56448  0.82103     C
O       0.7445  0.31479  0.70144     O
C      0.74461  0.78824  0.82081     C
C      0.74631  0.37343  0.84241     C
H       0.7464   0.1316   0.7234     H
C       0.7465  0.70532   0.7951     C
C      0.74767  0.81625  0.66277     C
C      0.74829  0.64979  0.79519     C
H       0.7499   0.7242   0.7766     H
H       0.7501   0.2242   0.7234     H
C      0.75171  0.14979  0.70481     C
C      0.75233  0.31625  0.83723     C
C       0.7535  0.20532   0.7049     C
H       0.7536   0.6316   0.7766     H
C      0.75369  0.87343  0.65759     C
C      0.75539  0.28824  0.67919     C
O       0.7555  0.81479  0.79856     O
C      0.75557  0.06448  0.67897     C
O      0.75604  0.53894  0.79768     O
C       0.7573  0.12234    0.679     C
O      0.75869  0.17607  0.83584     O
C       0.7599  0.23089   0.6786     C
C      0.76108  0.47991  0.64808     C
C      0.76153  0.53814  0.64563     C
Zn     0.76247  0.12238  0.80195    Zn
C      0.76456  0.98075  0.65176     C
C      0.76471  0.14927  0.65111     C
N      0.76513  0.03842  0.65133     N
C      0.76632  0.37244  0.64952     C
Zn     0.76721  0.13471  0.87242    Zn
O      0.76785  0.05915  0.87448     O
N       0.7685  0.31487  0.65078     N
C      0.76902  0.20412  0.65232     C
C      0.77195  0.06385  0.62305     C
C      0.77289  0.12133  0.62339     C
C      0.77637   0.2323  0.62367     C
C      0.77808  0.28901  0.62378     C
C      0.77894  0.95125  0.86404     C
C      0.77963  0.89681  0.86413     C
C      0.78106  0.14894  0.59726     C
O      0.78321  0.03723  0.60071     O
H       0.7841   0.1303   0.5786     H
C      0.78517   0.2039  0.59687     C
O      0.78743  0.56428  0.66692     O
C      0.78869   0.4593  0.85449     C
O      0.78939  0.31533  0.60087     O
C      0.79168  0.40267  0.85078     C
O      0.79272   0.6516  0.59948     O
H       0.7939   0.2217   0.5785     H
O      0.79466  0.79146  0.66594     O
O      0.80133  0.29529  0.83753     O
C      0.80283  0.89896  0.66213     C
C      0.80638   0.4546  0.66278     C
C      0.81028  0.40009  0.66258     C
H       0.8103   0.9688   0.8736     H
O      0.81101  0.63587  0.72152     O
C      0.81195  0.95441  0.65875     C
O      0.81254  0.16248  0.77306     O
Zn      0.8135  0.71585  0.66443    Zn
H       0.8142   0.8429   0.8938     H
Zn      0.8222  0.22278  0.83394    Zn
C      0.82414   0.6906  0.59884     C
H       0.8273   0.3856   0.8544     H
C      0.82866  0.86554  0.87756     C
H       0.8306   0.6376   0.5462     H
O      0.83451  0.15453  0.89561     O
H       0.8349   0.4747   0.6731     H
H       0.8351   0.8785   0.6682     H
H       0.8355   0.5104   0.8821     H
O      0.83599    0.781  0.47179     O
O      0.83658  0.72061  0.62291     O
H       0.8378   0.7509   0.9122     H
C      0.83928  0.67791  0.72488     C
H       0.8435   0.8147   0.4198     H
C       0.8436   0.4889   0.8642     C
H       0.8459   0.8438   0.8617     H
O      0.84715  0.71362  0.70487     O
O      0.85018  0.73814  0.85548     O
C      0.85025   0.6701  0.54455     C
C      0.85279   0.7069  0.57039     C
H       0.8529   0.3357   0.6806     H
C      0.85401  0.19415  0.77401     C
H        0.856   0.5116   0.8475     H
H       0.8577   0.8895   0.8859     H
H       0.8604   0.6069   0.5016     H
C      0.86154  0.37307  0.67784     C
H       0.8621   0.0044   0.6829     H
C      0.86664  0.98136  0.66524     C
H        0.867   0.7631   0.9626     H
C      0.86757   0.1948  0.89297     C
H       0.8679   0.1287   0.7294     H
H        0.869   0.7852   0.5778     H
H       0.8691   0.3893   0.6977     H
O      0.86969  0.22125  0.79784     O
H       0.8704   0.6077    0.768     H
H       0.8709   0.8254   0.3658     H
C      0.87133  0.68429  0.75513     C
O       0.8733  0.22253  0.87015     O
H        0.874   0.4636   0.8691     H
C      0.87438   0.7575  0.56368     C
H       0.8746   0.6475   0.4749     H
H       0.8749   0.3178   0.0715     H
C      0.87658   0.6836  0.51838     C
C      0.87695   0.7462  0.91785     C
H       0.8777   0.0024   0.6476     H
C      0.87967  0.64235  0.77437     C
C       0.8799   0.8022   0.4135     C
C      0.88497   0.6363  0.49557     C
H       0.8857   0.1425    0.944     H
H       0.8858   0.7638   0.7484     H
O      0.88644   0.2844  0.01744     O
H       0.8866   0.2798    0.593     H
C       0.8866   0.7703   0.4656     C
C      0.88852  0.15996  0.72532     C
C      0.88926  0.73597  0.76266     C
C      0.88986  0.19938  0.74566     C
O      0.89017  0.25738  0.64867     O
H       0.8909   0.8153    0.814     H
H       0.8931   0.5735   0.8182     H
C      0.89385    0.753  0.94755     C
H       0.8954   0.3769    0.665     H
C      0.89584     0.81  0.38064     C
H       0.8966   0.9553   0.6696     H
H       0.8981   0.1322   0.6548     H
H       0.8982   0.0907   0.6821     H
C      0.89891   0.7273  0.86301     C
C       0.9002    0.733   0.5143     C
H       0.9004    0.614   0.8458     H
C      0.90162  0.65145  0.80312     C
C      0.90279   0.7671  0.53719     C
C      0.90323  0.20935  0.92133     C
H       0.9045   0.3195   0.1253     H
C      0.90493  0.17528  0.94573     C
H       0.9058   0.1523   0.0112     H
C      0.91159   0.3056  0.07799     C
H       0.9126   0.8499   0.5249     H
C      0.91303   0.7451  0.79293     C
C      0.91357  0.60475  0.82537     C
C       0.9138   0.7788   0.4345     C
C      0.91741  0.73222  0.89581     C
C       0.9181  0.70092   0.8122     C
C      0.91833  0.12076  0.67333     C
H       0.9187   0.2886   0.5421     H
C      0.91991  0.16628  0.69661     C
H       0.9209   0.2832   0.9078     H
C      0.92284  0.24116  0.74194     C
C      0.92403   0.2682  0.58773     C
C      0.92411  0.80217  0.80281     C
C      0.92458  0.25913  0.92418     C
N      0.92514   0.7479  0.48554     N
H       0.9253    0.625   0.4961     H
H       0.9256   0.2661   0.7579     H
H       0.9302    0.824   0.7848     H
C      0.93043   0.3084  0.11003     C
H       0.9311   0.8396   0.5595     H
C      0.93266   0.2804  0.02596     C
C      0.93303   0.8261  0.53873     C
C      0.93396   0.1872  0.97266     C
O      0.93635  0.76879  0.00775     O
H       0.9365   0.1124   0.9884     H
C      0.93793   0.1477  0.99723     C
N       0.9381   0.7097   0.8427     N
C      0.93941   0.2415  0.64091     C
O      0.94276   0.8206  0.32396     O
C      0.94319   0.2739  0.55739     C
C      0.94855  0.21108  0.69275     C
H       0.9489   0.3524   0.9672     H
C      0.94903   0.7451  0.95493     C
C      0.94967   0.7926  0.37457     C
C      0.95053   0.2844  0.05803     C
C      0.95102    0.237  0.97562     C
C        0.953   0.2752   0.9523     C
H       0.9549   0.5975   0.8261     H
C      0.95552   0.2504  0.71382     C
H       0.9577   0.1106   0.6683     H
H       0.9584   0.8035    0.816     H
C      0.95902   0.2464  0.60932     C
C      0.96493   0.7648  0.42593     C
C      0.97034   0.7523  0.98784     C
O      0.97129  0.31379  0.16979     O
H       0.9717   0.7058   0.2899     H
C      0.97222   0.8006  0.34242     C
N      0.97236  0.25756  0.00526     N
H       0.9733   0.8234   0.5326     H
C      0.97402   0.7195  0.90362     C
H       0.9743   0.1523   0.0084     H
C      0.97459   0.3319  0.95429     C
N      0.97527  0.21939  0.66267     N
H       0.9754   0.3473   0.9339     H
H       0.9755   0.3263   0.7238     H
H       0.9772   0.3137   0.6881     H
C      0.97988   0.7333  0.47968     C
C      0.98551   0.2948  0.11771     C
C      0.98564   0.7714  0.39684     C
H       0.9866   0.6677   0.0369     H
C      0.98679   0.3004  0.70849     C
O       0.9889   0.2842   0.4996     O
C       0.9926   0.7266   0.9345     C
C      0.99425   0.6995  0.84905     C
C      0.99632   0.2583  0.55082     C
