data_I
_chemical_name_common  '/home/zhangsd/repos/MofS-CGCNN/ML/data/TSD/clean_cifs/XUBGUY_clean'
_cell_length_a 15.22800
_cell_length_b 15.22800
_cell_length_c 28.79100
_cell_angle_alpha 90.00000
_cell_angle_beta  90.00000
_cell_angle_gamma 90.00000
_space_group_name_H-M_alt      'P 1'


loop_
_space_group_symop_operation_xyz
  'x, y, z' 

loop_
_atom_site_label
_atom_site_fract_x
_atom_site_fract_y
_atom_site_fract_z
_atom_site_type_symbol
Zr         0.0      0.0  0.41456    Zr
Zr         0.0      0.0  0.58543    Zr
Si         0.0      0.5     0.25    Si
Si         0.0      0.5     0.75    Si
C       0.0048   0.2527  0.31068     C
C       0.0048   0.2527  0.68932     C
C       0.0073   0.6785  0.28007     C
C       0.0073   0.6785  0.71993     C
H       0.0159    0.803   0.3032     H
H       0.0159    0.803   0.6968     H
C      0.02413  0.40402  0.28885     C
C      0.02413  0.40402  0.71115     C
H       0.0298   0.5954    0.164     H
H       0.0298   0.5954    0.836     H
O      0.03373  0.11842  0.37516     O
O      0.03373  0.11842  0.62484     O
H       0.0378   0.6886   0.2526     H
H       0.0378   0.6886   0.7474     H
C      0.04776  0.26655  0.35253     C
C      0.04776  0.26655  0.64747     C
Zr     0.05007  0.15679      0.5    Zr
C      0.05131  0.19637  0.38818     C
C      0.05131  0.19637  0.61182     C
O      0.05376  0.89678  0.45862     O
O      0.05376  0.89678  0.54138     O
O      0.06858  0.21891  0.42933     O
O      0.06858  0.21891  0.57067     O
C       0.0708   0.4156  0.32971     C
C       0.0708   0.4156  0.67029     C
C       0.0817   0.3485  0.36121     C
C       0.0817   0.3485  0.63879     C
C       0.0844   0.5708  0.17029     C
C       0.0844   0.5708  0.82971     C
H       0.0954   0.4702    0.336     H
H       0.0954   0.4702    0.664     H
C      0.09598  0.52413  0.21115     C
C      0.09598  0.52413  0.78885     C
O      0.10322  0.05376  0.45862     O
O      0.10322  0.05376  0.54138     O
H       0.1124   0.3587   0.3886     H
H       0.1124   0.3587   0.6114     H
O      0.11842  0.96627  0.37516     O
O      0.11842  0.96627  0.62484     O
H       0.1413   0.6124   0.1114     H
H       0.1413   0.6124   0.8886     H
C       0.1515   0.5817  0.13879     C
C       0.1515   0.5817  0.86121     C
Zr     0.15679  0.94993      0.5    Zr
C       0.1785   0.4927  0.21993     C
C       0.1785   0.4927  0.78007     C
H       0.1886   0.4622   0.2474     H
H       0.1886   0.4622   0.7526     H
C      0.19637  0.94869  0.38818     C
C      0.19637  0.94869  0.61182     C
H        0.197   0.0159   0.3032     H
H        0.197   0.0159   0.6968     H
O      0.21891  0.93142  0.42933     O
O      0.21891  0.93142  0.57067     O
C      0.23345  0.54776  0.14747     C
C      0.23345  0.54776  0.85253     C
C       0.2473   0.5048  0.18932     C
C       0.2473   0.5048  0.81068     C
C       0.2527   0.9952  0.31068     C
C       0.2527   0.9952  0.68932     C
C      0.26655  0.95224  0.35253     C
C      0.26655  0.95224  0.64747     C
O      0.28109  0.56858  0.07067     O
O      0.28109  0.56858  0.92933     O
H        0.303   0.4841   0.1968     H
H        0.303   0.4841   0.8032     H
C      0.30363  0.55131  0.11182     C
C      0.30363  0.55131  0.88818     C
H       0.3114   0.0378   0.2526     H
H       0.3114   0.0378   0.7474     H
C       0.3215   0.0073  0.28007     C
C       0.3215   0.0073  0.71993     C
Zr     0.34321  0.55007      0.0    Zr
C       0.3485   0.9183  0.36121     C
C       0.3485   0.9183  0.63879     C
H       0.3587   0.8876   0.3886     H
H       0.3587   0.8876   0.6114     H
O      0.38158  0.53373  0.12484     O
O      0.38158  0.53373  0.87516     O
H       0.3876   0.1413   0.1114     H
H       0.3876   0.1413   0.8886     H
O      0.39678  0.44624  0.04138     O
O      0.39678  0.44624  0.95862     O
C      0.40402  0.97587  0.28885     C
C      0.40402  0.97587  0.71115     C
H       0.4046   0.0298    0.164     H
H       0.4046   0.0298    0.836     H
C       0.4156   0.9292  0.32971     C
C       0.4156   0.9292  0.67029     C
C       0.4183   0.1515  0.13879     C
C       0.4183   0.1515  0.86121     C
C       0.4292   0.0844  0.17029     C
C       0.4292   0.0844  0.82971     C
O      0.43142  0.28109  0.07067     O
O      0.43142  0.28109  0.92933     O
O      0.44624  0.60322  0.04138     O
O      0.44624  0.60322  0.95862     O
C      0.44869  0.30363  0.11182     C
C      0.44869  0.30363  0.88818     C
Zr     0.44993  0.34321      0.0    Zr
C      0.45224  0.23345  0.14747     C
C      0.45224  0.23345  0.85253     C
H       0.4622   0.8114   0.2474     H
H       0.4622   0.8114   0.7526     H
O      0.46627  0.38158  0.12484     O
O      0.46627  0.38158  0.87516     O
H       0.4702   0.9046    0.336     H
H       0.4702   0.9046    0.664     H
C      0.47587  0.09598  0.21115     C
C      0.47587  0.09598  0.78885     C
H       0.4841    0.697   0.1968     H
H       0.4841    0.697   0.8032     H
C       0.4927   0.8215  0.21993     C
C       0.4927   0.8215  0.78007     C
C       0.4952   0.2473  0.18932     C
C       0.4952   0.2473  0.81068     C
Si         0.5      0.0     0.25    Si
Si         0.5      0.0     0.75    Si
Zr         0.5      0.5  0.08544    Zr
Zr         0.5      0.5  0.91456    Zr
C       0.5048   0.7527  0.18932     C
C       0.5048   0.7527  0.81068     C
C       0.5073   0.1785  0.21993     C
C       0.5073   0.1785  0.78007     C
H       0.5159    0.303   0.1968     H
H       0.5159    0.303   0.8032     H
C      0.52413  0.90402  0.21115     C
C      0.52413  0.90402  0.78885     C
H       0.5298   0.0954    0.336     H
H       0.5298   0.0954    0.664     H
O      0.53373  0.61842  0.12484     O
O      0.53373  0.61842  0.87516     O
H       0.5378   0.1886   0.2474     H
H       0.5378   0.1886   0.7526     H
C      0.54776  0.76655  0.14747     C
C      0.54776  0.76655  0.85253     C
Zr     0.55007  0.65679      0.0    Zr
C      0.55131  0.69637  0.11182     C
C      0.55131  0.69637  0.88818     C
O      0.55376  0.39678  0.04138     O
O      0.55376  0.39678  0.95862     O
O      0.56858  0.71891  0.07067     O
O      0.56858  0.71891  0.92933     O
C       0.5708   0.9156  0.17029     C
C       0.5708   0.9156  0.82971     C
C       0.5817   0.8485  0.13879     C
C       0.5817   0.8485  0.86121     C
C       0.5844   0.0708  0.32971     C
C       0.5844   0.0708  0.67029     C
H       0.5954   0.9702    0.164     H
H       0.5954   0.9702    0.836     H
C      0.59598  0.02413  0.28885     C
C      0.59598  0.02413  0.71115     C
O      0.60322  0.55376  0.04138     O
O      0.60322  0.55376  0.95862     O
H       0.6124   0.8587   0.1114     H
H       0.6124   0.8587   0.8886     H
O      0.61842  0.46627  0.12484     O
O      0.61842  0.46627  0.87516     O
H       0.6413   0.1124   0.3886     H
H       0.6413   0.1124   0.6114     H
C       0.6515   0.0817  0.36121     C
C       0.6515   0.0817  0.63879     C
Zr     0.65679  0.44993      0.0    Zr
C       0.6785   0.9927  0.28007     C
C       0.6785   0.9927  0.71993     C
H       0.6886   0.9622   0.2526     H
H       0.6886   0.9622   0.7474     H
C      0.69637  0.44869  0.11182     C
C      0.69637  0.44869  0.88818     C
H        0.697   0.5159   0.1968     H
H        0.697   0.5159   0.8032     H
O      0.71891  0.43142  0.07067     O
O      0.71891  0.43142  0.92933     O
C      0.73345  0.04776  0.35253     C
C      0.73345  0.04776  0.64747     C
C       0.7473   0.0048  0.31068     C
C       0.7473   0.0048  0.68932     C
C       0.7527   0.4952  0.18932     C
C       0.7527   0.4952  0.81068     C
C      0.76655  0.45224  0.14747     C
C      0.76655  0.45224  0.85253     C
O      0.78109  0.06858  0.42933     O
O      0.78109  0.06858  0.57067     O
H        0.803   0.9841   0.3032     H
H        0.803   0.9841   0.6968     H
C      0.80363  0.05131  0.38818     C
C      0.80363  0.05131  0.61182     C
H       0.8114   0.5378   0.2474     H
H       0.8114   0.5378   0.7526     H
C       0.8215   0.5073  0.21993     C
C       0.8215   0.5073  0.78007     C
Zr     0.84321  0.05007      0.5    Zr
C       0.8485   0.4183  0.13879     C
C       0.8485   0.4183  0.86121     C
H       0.8587   0.3876   0.1114     H
H       0.8587   0.3876   0.8886     H
O      0.88158  0.03373  0.37516     O
O      0.88158  0.03373  0.62484     O
H       0.8876   0.6413   0.3886     H
H       0.8876   0.6413   0.6114     H
O      0.89678  0.94624  0.45862     O
O      0.89678  0.94624  0.54138     O
C      0.90402  0.47587  0.21115     C
C      0.90402  0.47587  0.78885     C
H       0.9046   0.5298    0.336     H
H       0.9046   0.5298    0.664     H
C       0.9156   0.4292  0.17029     C
C       0.9156   0.4292  0.82971     C
C       0.9183   0.6515  0.36121     C
C       0.9183   0.6515  0.63879     C
C       0.9292   0.5844  0.32971     C
C       0.9292   0.5844  0.67029     C
O      0.93142  0.78109  0.42933     O
O      0.93142  0.78109  0.57067     O
O      0.94624  0.10322  0.45862     O
O      0.94624  0.10322  0.54138     O
C      0.94869  0.80363  0.38818     C
C      0.94869  0.80363  0.61182     C
Zr     0.94993  0.84321      0.5    Zr
C      0.95224  0.73345  0.35253     C
C      0.95224  0.73345  0.64747     C
H       0.9622   0.3114   0.2526     H
H       0.9622   0.3114   0.7474     H
O      0.96627  0.88158  0.37516     O
O      0.96627  0.88158  0.62484     O
H       0.9702   0.4046    0.164     H
H       0.9702   0.4046    0.836     H
C      0.97587  0.59598  0.28885     C
C      0.97587  0.59598  0.71115     C
H       0.9841    0.197   0.3032     H
H       0.9841    0.197   0.6968     H
C       0.9927   0.3215  0.28007     C
C       0.9927   0.3215  0.71993     C
C       0.9952   0.7473  0.31068     C
C       0.9952   0.7473  0.68932     C
