data_I
_chemical_name_common  '/home/zhangsd/repos/MofS-CGCNN/ML/data/TSD/clean_cifs/XUCSOF_clean'
_cell_length_a 12.00200
_cell_length_b 15.37200
_cell_length_c 18.01800
_cell_angle_alpha 90.15000
_cell_angle_beta  96.90100
_cell_angle_gamma 92.01300
_space_group_name_H-M_alt      'P 1'


loop_
_space_group_symop_operation_xyz
  'x, y, z' 

loop_
_atom_site_label
_atom_site_fract_x
_atom_site_fract_y
_atom_site_fract_z
_atom_site_type_symbol
N       0.0028   0.3094      0.2     N
C       0.0081   0.0617   0.5506     C
C       0.0081   0.2946   0.3324     C
O       0.0086   0.2507   0.4569     O
C        0.009   0.7634   0.3036     C
H       0.0115    0.104    0.588     H
C       0.0147   0.7527   0.1766     C
N       0.0246   0.5822    0.971     N
O       0.0414    0.746   0.0523     O
H        0.042   0.7784   0.3515     H
C       0.0443   0.6827   0.7384     C
O       0.0468   0.5194   0.4262     O
C       0.0474   0.7178   0.5991     C
C        0.053   0.4336   0.9823     C
C       0.0573   0.0146   0.4418     C
N       0.0655   0.0769   0.4929     N
N       0.0666   0.7799   0.2453     N
C       0.0759   0.5116   0.9515     C
C       0.0787   0.7782   0.1123     C
C       0.0883   0.2878   0.8284     C
H       0.0946   0.3869     0.97     H
C       0.0982   0.2754   0.7054     C
Y      0.09873  0.73473  0.93001     Y
O       0.0989   0.2634   0.0807     O
C       0.1086   0.2936    0.207     C
H        0.116   0.6608   0.7418     H
N       0.1168   0.2782   0.3411     N
H       0.1215   0.3052   0.8756     H
N       0.1216    0.568   0.4581     N
C       0.1231   0.0279   0.3776     C
O       0.1251   0.9655   0.3347     O
O        0.134   0.6487   0.4394     O
O       0.1419    0.242   0.5849     O
N       0.1448   0.3045   0.7713     N
O       0.1504   0.6942   0.6061     O
O       0.1572   0.8325   0.1253     O
C       0.1606   0.5254   0.8972     C
C       0.1652   0.2706   0.1396     C
O       0.1688      0.1   0.3749     O
C        0.169   0.2811   0.2769     C
C       0.1693    0.286   0.6435     C
O       0.1776   0.6017   0.8794     O
Y      0.19166  0.21279  0.46725     Y
O       0.1927   0.5446   0.5123     O
O       0.2048   0.4608   0.8731     O
Y      0.20717  0.91163  0.23688     Y
O       0.2305   0.7698   0.8488     O
H       0.2462   0.2745   0.2804     H
H       0.2494   0.7806   0.7111     H
O       0.2541   0.3395   0.6574     O
O       0.2551   0.8263   0.3513     O
O       0.2682   0.2586   0.1479     O
Y      0.29587  0.68815  0.53145     Y
Y      0.30664  0.41735  0.77243     Y
O       0.3171   0.9547   0.1431     O
C       0.3254   0.7709   0.3614     C
C       0.3275   0.7822   0.7155     C
O       0.3308   0.0971    0.123     O
C        0.334    0.777   0.8566     C
O       0.3469   0.7196   0.4136     O
O       0.3476   0.3298   0.8765     O
O        0.348   0.5968   0.6351     O
O       0.3482   0.2187   0.4001     O
N       0.3511   0.7954   0.2293     N
C       0.3547   0.0205     0.11     C
H       0.3746   0.7942   0.1227     H
H       0.3759   0.1721   0.2654     H
N       0.3784   0.7735   0.6533     N
C       0.3856   0.7931   0.7839     C
C       0.3911   0.7599   0.2953     C
C       0.3967    0.529   0.6313     C
O       0.3992   0.7666   0.9154     O
Y       0.4016  0.22809  0.07069     Y
O       0.4035   0.4694   0.6778     O
C       0.4052   0.7766   0.1699     C
N       0.4216   0.5654   0.5045     N
H       0.4242   0.8779   0.0435     H
C        0.427   0.0096   0.0501     C
C       0.4306   0.2855   0.8889     C
C       0.4502   0.2325   0.4047     C
C       0.4507   0.1913    0.268     C
H       0.4512   0.5853   0.4013     H
N       0.4515   0.2964   0.7601     N
C       0.4536   0.5116   0.5631     C
C       0.4568   0.9278   0.0249     C
O       0.4697    0.252   0.9528     O
C       0.4705   0.5506   0.4428     C
N       0.4707    0.081   0.0241     N
H       0.4749   0.3069   0.6547     H
O       0.4857   0.7324   0.5404     O
C       0.4898   0.7856   0.6637     C
C       0.4947    0.715   0.2995     C
N       0.4992   0.8032    0.794     N
C       0.4995   0.7343   0.1762     C
C       0.5005   0.2657   0.8238     C
N       0.5008   0.1968    0.206     N
C       0.5053    0.285   0.7005     C
C       0.5102   0.2144   0.3363     C
O       0.5143   0.2676   0.4596     O
H       0.5251   0.6931   0.3453     H
N       0.5293    0.919   0.9759     N
C       0.5295   0.4494   0.5572     C
O       0.5303    0.748   0.0472     O
C       0.5432   0.0722   0.9751     C
C       0.5464   0.4884   0.4369     C
N       0.5485   0.7036   0.2399     N
H       0.5488   0.4147   0.5987     H
C       0.5493   0.8087    0.732     C
C       0.5498   0.7675   0.5953     C
C       0.5694   0.7145   0.1111     C
C        0.573   0.9904   0.9499     C
H       0.5758   0.1221   0.9565     H
N       0.5784   0.4346   0.4955     N
C       0.5948   0.2234   0.8301     C
O       0.5965   0.5306   0.3222     O
Y       0.5984  0.77191  0.92931     Y
O       0.6008   0.2334   0.0846     O
C       0.6033    0.471   0.3687     C
C       0.6089   0.2401   0.7047     C
C       0.6144   0.2069   0.2161     C
N       0.6216   0.2265   0.3467     N
H       0.6241   0.8279   0.7346     H
H       0.6254   0.2058   0.8773     H
C       0.6453   0.9795     0.89     C
N       0.6489   0.2046   0.7707     N
O       0.6518   0.7813   0.5999     O
O        0.652   0.4032   0.3649     O
O       0.6524   0.6702   0.1235     O
O       0.6531   0.2804   0.5864     O
C        0.666    0.223   0.1434     C
O       0.6692   0.9029    0.877     O
C       0.6725   0.2178   0.2845     C
C       0.6746   0.2291   0.6386     C
O       0.6829   0.0453   0.8569     O
Y      0.69336  0.58265  0.22757     Y
Y      0.70413  0.31185  0.46855     Y
O       0.7318   0.7414   0.8521     O
O       0.7449   0.1737   0.6487     O
O       0.7459   0.6605   0.3426     O
H       0.7506   0.2194   0.2889     H
H       0.7538   0.7255   0.7196     H
O       0.7695   0.2302   0.1512     O
Y      0.79283  0.08837  0.76312     Y
O       0.7952   0.5392   0.1269     O
O       0.8073   0.4554   0.4877     O
Y      0.80834  0.78721  0.53275     Y
O       0.8224   0.3983   0.1206     O
C       0.8307    0.714   0.3565     C
C        0.831   0.7189   0.7231     C
O       0.8312      0.9   0.6251     O
C       0.8348   0.7294   0.8604     C
C       0.8394   0.4746   0.1028     C
O       0.8428   0.1675   0.8747     O
O       0.8496   0.3058   0.3939     O
N       0.8552   0.6955   0.2287     N
O       0.8581    0.758   0.4151     O
O        0.866   0.3513   0.5606     O
O       0.8749   0.0345   0.6653     O
C       0.8769   0.9721   0.6224     C
N       0.8784    0.432   0.5419     N
H       0.8785   0.6948   0.1244     H
N       0.8832   0.7218   0.6589     N
H        0.884   0.3392   0.2582     H
C       0.8914   0.7064    0.793     C
O       0.9011   0.7366   0.9193     O
Y      0.90127  0.26527  0.06999     Y
C       0.9018   0.7246   0.2946     C
H       0.9054   0.6131     0.03     H
C       0.9117   0.7122   0.1716     C
C       0.9213   0.2218   0.8877     C
C       0.9241   0.4884   0.0485     C
N       0.9334   0.2201   0.7547     N
N       0.9345   0.9231   0.5071     N
C       0.9427   0.9854   0.5582     C
C        0.947   0.5664   0.0177     C
C       0.9526   0.2822   0.4009     C
O       0.9532   0.4806   0.5738     O
C       0.9557   0.3173   0.2616     C
H        0.958   0.2216   0.6485     H
O       0.9586    0.254   0.9477     O
N       0.9754   0.4178    0.029     N
C       0.9853   0.2473   0.8234     C
H       0.9885    0.896    0.412     H
C        0.991   0.2366   0.6964     C
O       0.9914   0.7493   0.5431     O
C       0.9919   0.7054   0.6676     C
C       0.9919   0.9383   0.4494     C
N       0.9972   0.6906      0.8     N
