data_I
_chemical_name_common  '/home/zhangsd/repos/MofS-CGCNN/ML/data/TSD/clean_cifs/XUCSAR_clean'
_cell_length_a  9.60840
_cell_length_b 15.80300
_cell_length_c  7.93090
_cell_angle_alpha 90.00000
_cell_angle_beta  96.84000
_cell_angle_gamma 90.00000
_space_group_name_H-M_alt      'P 1'


loop_
_space_group_symop_operation_xyz
  'x, y, z' 

loop_
_atom_site_label
_atom_site_fract_x
_atom_site_fract_y
_atom_site_fract_z
_atom_site_type_symbol
C       0.0098    0.515   0.9093     C
O        0.012  0.05551   0.6749     O
O       0.0235  0.41004   0.1269     O
C       0.0268   0.8677   0.5808     C
N        0.048   0.2355   0.1695     N
O       0.0567    0.462   0.8135     O
C       0.0768   0.9187   0.4404     C
C       0.0836   0.7777   0.8037     C
O       0.1086  0.68972   0.1442     O
C       0.1146   0.1412   0.3995     C
N       0.1259    0.827   0.6829     N
Y      0.13306  0.32737  0.92743     Y
C       0.1468   0.1953   0.2753     C
H       0.1551   0.7493  0.87757     H
H      0.18607  0.11083  0.46983     H
O       0.1872   0.7625   0.3757     O
C       0.2033   0.7174   0.2515     C
O       0.2087   0.9294   0.4485     O
O       0.2913   0.4294   0.0515     O
C       0.2967   0.2174   0.2485     C
O       0.3128   0.2625   0.1243     O
H      0.31393  0.61083  0.03017     H
H       0.3449   0.2493  0.62243     H
C       0.3532   0.6953   0.2247     C
Y      0.36694  0.82737  0.57257     Y
N       0.3741    0.327   0.8171     N
C       0.3854   0.6412   0.1005     C
O       0.3914  0.18972   0.3558     O
C       0.4164   0.2777   0.6963     C
C       0.4232   0.4187   0.0596     C
O       0.4433    0.962   0.6865     O
N        0.452   0.7355   0.3305     N
C       0.4732   0.3677   0.9192     C
O       0.4765  0.91004   0.3731     O
O        0.488  0.55551   0.8251     O
C       0.4902    0.015   0.5907     C
C       0.5098    0.985   0.4093     C
O        0.512  0.44449   0.1749     O
O       0.5235  0.08996   0.6269     O
C       0.5268   0.6323   0.0808     C
N        0.548   0.2645   0.6695     N
O       0.5567    0.038   0.3135     O
C       0.5768   0.5813   0.9404     C
C       0.5836   0.7223   0.3037     C
O       0.6086  0.81028   0.6442     O
C       0.6146   0.3588   0.8995     C
N       0.6259    0.673   0.1829     N
Y      0.63306  0.17263  0.42743     Y
C       0.6468   0.3047   0.7753     C
H       0.6551   0.7507  0.37757     H
H      0.68607  0.38917  0.96983     H
O       0.6872   0.7375   0.8757     O
C       0.7033   0.7826   0.7515     C
O       0.7087   0.5706   0.9485     O
O       0.7913   0.0706   0.5515     O
C       0.7967   0.2826   0.7485     C
O       0.8128   0.2375   0.6243     O
H      0.81393  0.88917  0.53017     H
H       0.8449   0.2507  0.12243     H
C       0.8532   0.8047   0.7247     C
Y      0.86694  0.67263  0.07257     Y
N       0.8741    0.173   0.3171     N
C       0.8854   0.8588   0.6005     C
O       0.8914  0.31028   0.8558     O
C       0.9164   0.2223   0.1963     C
C       0.9232   0.0813   0.5596     C
O       0.9433    0.538   0.1865     O
N        0.952   0.7645   0.8305     N
C       0.9732   0.1323   0.4192     C
O       0.9765  0.58996   0.8731     O
O        0.988  0.94449   0.3251     O
C       0.9902    0.485   0.0907     C
