data_I
_chemical_name_common  '/home/zhangsd/repos/MofS-CGCNN/ML/data/TSD/clean_cifs/XULDOZ_clean'
_cell_length_a 23.36200
_cell_length_b 22.49100
_cell_length_c 22.73800
_cell_angle_alpha 90.00000
_cell_angle_beta  90.00000
_cell_angle_gamma 90.00000
_space_group_name_H-M_alt      'P 1'


loop_
_space_group_symop_operation_xyz
  'x, y, z' 

loop_
_atom_site_label
_atom_site_fract_x
_atom_site_fract_y
_atom_site_fract_z
_atom_site_type_symbol
Co         0.0      0.0  0.19978    Co
Co         0.0      0.5  0.69978    Co
O       0.0002   0.4032   0.8118     O
O       0.0002   0.9032   0.3118     O
H       0.0076   0.4028   0.3964     H
H       0.0076   0.9028   0.8964     H
H       0.0101     0.32   0.0923     H
H       0.0101     0.82   0.5923     H
Co     0.01148  0.11571  0.11014    Co
Co     0.01148  0.61571  0.61014    Co
C       0.0127   0.3835   0.0261     C
C       0.0127   0.8835   0.5261     C
O       0.0135    0.383   0.5067     O
O       0.0135    0.883   0.0067     O
H       0.0157   0.4056   0.9169     H
H       0.0157   0.9056   0.4169     H
C       0.0158    0.125   0.6946     C
C       0.0158    0.625   0.1946     C
H        0.016   0.0608   0.6278     H
H        0.016   0.5608   0.1278     H
C       0.0183   0.3622   0.0901     C
C       0.0183   0.8622   0.5901     C
H       0.0212   0.3517   0.9986     H
H       0.0212   0.8517   0.4986     H
O       0.0222   0.0798   0.7873     O
O       0.0222   0.5798   0.2873     O
C        0.023   0.0806    0.004     C
C        0.023   0.5806    0.504     C
C       0.0237   0.1031   0.6302     C
C       0.0237   0.6031   0.1302     C
H       0.0241   0.3781   0.2061     H
H       0.0241   0.8781   0.7061     H
H       0.0254   0.1013   0.5182     H
H       0.0254   0.6013   0.0182     H
C       0.0255   0.0742   0.8957     C
C       0.0255   0.5742   0.3957     C
H       0.0274   0.1663    0.698     H
H       0.0274   0.6663    0.198     H
Co     0.02874  0.14602  0.24645    Co
Co     0.02874  0.64602  0.74645    Co
C       0.0379   0.4423   0.8093     C
C       0.0379   0.9423   0.3093     C
O       0.0422   0.0773   0.1856     O
O       0.0422   0.5773   0.6856     O
C       0.0452   0.4333    0.919     C
C       0.0452   0.9333    0.419     C
C       0.0466   0.0594    0.944     C
C       0.0466   0.5594    0.444     C
C       0.0477   0.0588   0.8407     C
C       0.0477   0.5588   0.3407     C
O       0.0491   0.0592    0.049     O
O       0.0491   0.4237   0.0233     O
O       0.0491   0.5592    0.549     O
O       0.0491   0.9237   0.5233     O
O       0.0531   0.3279   0.7241     O
O       0.0531   0.8279   0.2241     O
C       0.0537    0.085    0.735     C
C       0.0537    0.585    0.235     C
O       0.0543   0.4673   0.7641     O
O       0.0543   0.9673   0.2641     O
O       0.0551   0.3323   0.6264     O
O       0.0551   0.8323   0.1264     O
H       0.0573   0.3685   0.1037     H
H       0.0573   0.8685   0.6037     H
H       0.0599   0.0463   0.7173     H
H       0.0599   0.5463   0.2173     H
O       0.0606    0.206   0.1898     O
O       0.0606    0.706   0.6898     O
H       0.0628     0.11   0.6175     H
H       0.0628     0.61   0.1175     H
C       0.0659   0.4588   0.8689     C
C       0.0659   0.9588   0.3689     C
C       0.0679   0.4489   0.9727     C
C       0.0679   0.9489   0.4727     C
C       0.0746    0.311   0.6749     C
C       0.0746    0.811   0.1749     C
O       0.0754   0.1767   0.0978     O
O       0.0754   0.6767   0.5978     O
C       0.0864   0.2071   0.1431     C
C       0.0864   0.7071   0.6431     C
C        0.088   0.0201   0.8381     C
C        0.088   0.5201   0.3381     C
H       0.0905   0.1036   0.7423     H
H       0.0905   0.6036   0.2423     H
C       0.0917   0.0209    0.944     C
C       0.0917   0.5209    0.444     C
H       0.0995   0.0043   0.8022     H
H       0.0995   0.5043   0.3022     H
H       0.1075   0.0073    0.979     H
H       0.1075   0.5073    0.479     H
C       0.1093   0.0002   0.3687     C
C       0.1093   0.5002   0.8687     C
C       0.1107   0.4914   0.9744     C
C       0.1107   0.9914   0.4744     C
C       0.1136   0.0025   0.8893     C
C       0.1136   0.5025   0.3893     C
C       0.1173    0.269    0.672     C
C       0.1173    0.769    0.172     C
H       0.1229   0.0155   0.3334     H
H       0.1229   0.5155   0.8334     H
H       0.1242   0.2525   0.7606     H
H       0.1242   0.7525   0.2606     H
H       0.1258   0.0025   0.5106     H
H       0.1258   0.5025   0.0106     H
H       0.1271   0.2655   0.5834     H
H       0.1271   0.7655   0.0834     H
C       0.1327    0.019    0.422     C
C       0.1327    0.519    0.922     C
C       0.1364   0.2525   0.1393     C
C       0.1364   0.7525   0.6393     C
C       0.1393   0.2414   0.7244     C
C       0.1393   0.7414   0.2244     C
C       0.1407   0.2502   0.6187     C
C       0.1407   0.7502   0.1187     C
H       0.1425   0.2573    0.229     H
H       0.1425   0.7573    0.729     H
H       0.1505   0.2543   0.0522     H
H       0.1505   0.7543   0.5522     H
C       0.1583   0.2709    0.194     C
C       0.1583   0.7709    0.694     C
H       0.1595   0.3536   0.9923     H
H       0.1595   0.8536   0.4923     H
C        0.162   0.2701   0.0881     C
C        0.162   0.7701   0.5881     C
C       0.1636   0.4571   0.3931     C
C       0.1636   0.9571   0.8931     C
O       0.1746   0.4267   0.3478     O
O       0.1746   0.9267   0.8478     O
C       0.1754    0.061   0.4249     C
C       0.1754    0.561   0.9249     C
C       0.1821   0.1989   0.7227     C
C       0.1821   0.6989   0.2227     C
C       0.1841   0.2088   0.6189     C
C       0.1841   0.7088   0.1189     C
H       0.1872     0.36   0.8675     H
H       0.1872     0.86   0.3675     H
O       0.1894    0.456   0.4398     O
O       0.1894    0.956   0.9398     O
H       0.1901   0.2963   0.9673     H
H       0.1901   0.7963   0.4673     H
H       0.1927   0.1185   0.8537     H
H       0.1927   0.6185   0.3537     H
O       0.1949   0.0823   0.3764     O
O       0.1949   0.5823   0.8764     O
O       0.1957   0.2173   0.5141     O
O       0.1957   0.7173   0.0141     O
C       0.1963    0.335    0.985     C
C       0.1963    0.835    0.485     C
O       0.1969   0.0779   0.4741     O
O       0.1969   0.5779   0.9741     O
O       0.2009   0.1737   0.7733     O
O       0.2009   0.3092    0.299     O
O       0.2009   0.6737   0.2733     O
O       0.2009   0.8092    0.799     O
C       0.2023   0.3088   0.0907     C
C       0.2023   0.8088   0.5907     C
C       0.2034   0.3094    0.194     C
C       0.2034   0.8094    0.694     C
C       0.2048   0.1833    0.669     C
C       0.2048   0.6833    0.169     C
O       0.2078   0.3273   0.4356     O
O       0.2078   0.8273   0.9356     O
C       0.2121   0.1923   0.5593     C
C       0.2121   0.6923   0.0593     C
Co     0.22126  0.39602  0.49645    Co
Co     0.22126  0.89602  0.99645    Co
H       0.2226   0.4163    0.948     H
H       0.2226   0.9163    0.448     H
C       0.2245   0.3242   0.1457     C
C       0.2245   0.8242   0.6457     C
H       0.2246   0.3513   0.7682     H
H       0.2246   0.8513   0.2682     H
H       0.2259   0.1281   0.9561     H
H       0.2259   0.6281   0.4561     H
C       0.2263   0.3531   0.8802     C
C       0.2263   0.8531   0.3802     C
C        0.227   0.3306    0.254     C
C        0.227   0.8306    0.754     C
O       0.2278   0.3298   0.0373     O
O       0.2278   0.8298   0.5373     O
H       0.2288   0.1017   0.7486     H
H       0.2288   0.6017   0.2486     H
C       0.2317   0.1122   0.8401     C
C       0.2317   0.6122   0.3401     C
H        0.234   0.3108   0.8778     H
H        0.234   0.8108   0.3778     H
C       0.2342    0.375   0.9446     C
C       0.2342    0.875   0.4446     C
H       0.2343   0.1556   0.6669     H
H       0.2343   0.6556   0.1669     H
O       0.2365    0.133   0.2567     O
O       0.2365    0.633   0.7567     O
C       0.2373   0.1335   0.7761     C
C       0.2373   0.6335   0.2761     C
Co     0.23852  0.36571  0.36014    Co
Co     0.23852  0.86571  0.86014    Co
H       0.2399     0.07   0.8423     H
H       0.2399     0.57   0.3423     H
H       0.2424   0.1528   0.1464     H
H       0.2424   0.6528   0.6464     H
O       0.2498   0.1532   0.5618     O
O       0.2498   0.6532   0.0618     O
Co        0.25     0.25  0.44978    Co
Co        0.25     0.75  0.94978    Co
O       0.2502   0.3468   0.5618     O
O       0.2502   0.8468   0.0618     O
H       0.2576   0.3472   0.1464     H
H       0.2576   0.8472   0.6464     H
H       0.2601     0.43   0.8423     H
H       0.2601     0.93   0.3423     H
Co     0.26148  0.13429  0.36014    Co
Co     0.26148  0.63429  0.86014    Co
C       0.2627   0.3665   0.7761     C
C       0.2627   0.8665   0.2761     C
O       0.2635    0.367   0.2567     O
O       0.2635    0.867   0.7567     O
H       0.2657   0.3444   0.6669     H
H       0.2657   0.8444   0.1669     H
C       0.2658    0.125   0.9446     C
C       0.2658    0.625   0.4446     C
H        0.266   0.1892   0.8778     H
H        0.266   0.6892   0.3778     H
C       0.2683   0.3878   0.8401     C
C       0.2683   0.8878   0.3401     C
H       0.2712   0.3983   0.7486     H
H       0.2712   0.8983   0.2486     H
O       0.2722   0.1702   0.0373     O
O       0.2722   0.6702   0.5373     O
C        0.273   0.1694    0.254     C
C        0.273   0.6694    0.754     C
C       0.2737   0.1469   0.8802     C
C       0.2737   0.6469   0.3802     C
H       0.2741   0.3719   0.9561     H
H       0.2741   0.8719   0.4561     H
H       0.2754   0.1487   0.7682     H
H       0.2754   0.6487   0.2682     H
C       0.2755   0.1758   0.1457     C
C       0.2755   0.6758   0.6457     C
H       0.2774   0.0837    0.948     H
H       0.2774   0.5837    0.448     H
Co     0.27874  0.10398  0.49645    Co
Co     0.27874  0.60398  0.99645    Co
C       0.2879   0.3077   0.5593     C
C       0.2879   0.8077   0.0593     C
O       0.2922   0.1727   0.4356     O
O       0.2922   0.6727   0.9356     O
C       0.2952   0.3167    0.669     C
C       0.2952   0.8167    0.169     C
C       0.2966   0.1906    0.194     C
C       0.2966   0.6906    0.694     C
C       0.2977   0.1912   0.0907     C
C       0.2977   0.6912   0.5907     C
O       0.2991   0.1908    0.299     O
O       0.2991   0.3263   0.7733     O
O       0.2991   0.6908    0.799     O
O       0.2991   0.8263   0.2733     O
O       0.3031   0.4221   0.4741     O
O       0.3031   0.9221   0.9741     O
C       0.3037    0.165    0.985     C
C       0.3037    0.665    0.485     C
O       0.3043   0.2827   0.5141     O
O       0.3043   0.7827   0.0141     O
O       0.3051   0.4177   0.3764     O
O       0.3051   0.9177   0.8764     O
H       0.3073   0.3815   0.8537     H
H       0.3073   0.8815   0.3537     H
H       0.3099   0.2037   0.9673     H
H       0.3099   0.7037   0.4673     H
O       0.3106    0.044   0.4398     O
O       0.3106    0.544   0.9398     O
H       0.3128     0.14   0.8675     H
H       0.3128     0.64   0.3675     H
C       0.3159   0.2912   0.6189     C
C       0.3159   0.7912   0.1189     C
C       0.3179   0.3011   0.7227     C
C       0.3179   0.8011   0.2227     C
C       0.3246    0.439   0.4249     C
C       0.3246    0.939   0.9249     C
O       0.3254   0.0733   0.3478     O
O       0.3254   0.5733   0.8478     O
C       0.3364   0.0429   0.3931     C
C       0.3364   0.5429   0.8931     C
C        0.338   0.2299   0.0881     C
C        0.338   0.7299   0.5881     C
H       0.3405   0.1464   0.9923     H
H       0.3405   0.6464   0.4923     H
C       0.3417   0.2291    0.194     C
C       0.3417   0.7291    0.694     C
H       0.3495   0.2457   0.0522     H
H       0.3495   0.7457   0.5522     H
H       0.3575   0.2427    0.229     H
H       0.3575   0.7427    0.729     H
C       0.3593   0.2498   0.6187     C
C       0.3593   0.7498   0.1187     C
C       0.3607   0.2586   0.7244     C
C       0.3607   0.7586   0.2244     C
C       0.3636   0.2475   0.1393     C
C       0.3636   0.7475   0.6393     C
C       0.3673    0.481    0.422     C
C       0.3673    0.981    0.922     C
H       0.3729   0.2345   0.5834     H
H       0.3729   0.7345   0.0834     H
H       0.3742   0.4975   0.5106     H
H       0.3742   0.9975   0.0106     H
H       0.3758   0.2475   0.7606     H
H       0.3758   0.7475   0.2606     H
H       0.3771   0.4845   0.3334     H
H       0.3771   0.9845   0.8334     H
C       0.3827    0.231    0.672     C
C       0.3827    0.731    0.172     C
C       0.3864   0.4975   0.8893     C
C       0.3864   0.9975   0.3893     C
C       0.3893   0.0086   0.9744     C
C       0.3893   0.5086   0.4744     C
C       0.3907   0.4998   0.3687     C
C       0.3907   0.9998   0.8687     C
H       0.3925   0.4927    0.979     H
H       0.3925   0.9927    0.479     H
H       0.4005   0.4957   0.8022     H
H       0.4005   0.9957   0.3022     H
C       0.4083   0.4791    0.944     C
C       0.4083   0.9791    0.444     C
H       0.4095   0.3964   0.7423     H
H       0.4095   0.8964   0.2423     H
C        0.412   0.4799   0.8381     C
C        0.412   0.9799   0.3381     C
C       0.4136   0.2929   0.1431     C
C       0.4136   0.7929   0.6431     C
O       0.4246   0.3233   0.0978     O
O       0.4246   0.8233   0.5978     O
C       0.4254    0.189   0.6749     C
C       0.4254    0.689   0.1749     C
C       0.4321   0.0511   0.9727     C
C       0.4321   0.5511   0.4727     C
C       0.4341   0.0412   0.8689     C
C       0.4341   0.5412   0.3689     C
H       0.4372     0.39   0.6175     H
H       0.4372     0.89   0.1175     H
O       0.4394    0.294   0.1898     O
O       0.4394    0.794   0.6898     O
H       0.4401   0.4537   0.7173     H
H       0.4401   0.9537   0.2173     H
H       0.4427   0.1315   0.1037     H
H       0.4427   0.6315   0.6037     H
O       0.4449   0.1677   0.6264     O
O       0.4449   0.6677   0.1264     O
O       0.4457   0.0327   0.7641     O
O       0.4457   0.5327   0.2641     O
C       0.4463    0.415    0.735     C
C       0.4463    0.915    0.235     C
O       0.4469   0.1721   0.7241     O
O       0.4469   0.6721   0.2241     O
O       0.4509   0.0763   0.0233     O
O       0.4509   0.4408    0.049     O
O       0.4509   0.5763   0.5233     O
O       0.4509   0.9408    0.549     O
C       0.4523   0.4412   0.8407     C
C       0.4523   0.9412   0.3407     C
C       0.4534   0.4406    0.944     C
C       0.4534   0.9406    0.444     C
C       0.4548   0.0667    0.919     C
C       0.4548   0.5667    0.419     C
O       0.4578   0.4227   0.1856     O
O       0.4578   0.9227   0.6856     O
C       0.4621   0.0577   0.8093     C
C       0.4621   0.5577   0.3093     C
Co     0.47126  0.35398  0.24645    Co
Co     0.47126  0.85398  0.74645    Co
H       0.4726   0.3337    0.698     H
H       0.4726   0.8337    0.198     H
C       0.4745   0.4258   0.8957     C
C       0.4745   0.9258   0.3957     C
H       0.4746   0.3987   0.5182     H
H       0.4746   0.8987   0.0182     H
H       0.4759   0.1219   0.2061     H
H       0.4759   0.6219   0.7061     H
C       0.4763   0.3969   0.6302     C
C       0.4763   0.8969   0.1302     C
C        0.477   0.4194    0.004     C
C        0.477   0.9194    0.504     C
O       0.4778   0.4202   0.7873     O
O       0.4778   0.9202   0.2873     O
H       0.4788   0.1483   0.9986     H
H       0.4788   0.6483   0.4986     H
C       0.4817   0.1378   0.0901     C
C       0.4817   0.6378   0.5901     C
H        0.484   0.4392   0.6278     H
H        0.484   0.9392   0.1278     H
C       0.4842    0.375   0.6946     C
C       0.4842    0.875   0.1946     C
H       0.4843   0.0944   0.9169     H
H       0.4843   0.5944   0.4169     H
O       0.4865    0.117   0.5067     O
O       0.4865    0.617   0.0067     O
C       0.4873   0.1165   0.0261     C
C       0.4873   0.6165   0.5261     C
Co     0.48852  0.38429  0.11014    Co
Co     0.48852  0.88429  0.61014    Co
H       0.4899     0.18   0.0923     H
H       0.4899     0.68   0.5923     H
H       0.4924   0.0972   0.3964     H
H       0.4924   0.5972   0.8964     H
O       0.4998   0.0968   0.8118     O
O       0.4998   0.5968   0.3118     O
Co         0.5      0.0  0.69978    Co
Co         0.5      0.5  0.19978    Co
O       0.5002   0.4032   0.3118     O
O       0.5002   0.9032   0.8118     O
H       0.5076   0.4028   0.8964     H
H       0.5076   0.9028   0.3964     H
H       0.5101     0.32   0.5923     H
H       0.5101     0.82   0.0923     H
Co     0.51148  0.11571  0.61014    Co
Co     0.51148  0.61571  0.11014    Co
C       0.5127   0.3835   0.5261     C
C       0.5127   0.8835   0.0261     C
O       0.5135    0.383   0.0067     O
O       0.5135    0.883   0.5067     O
H       0.5157   0.4056   0.4169     H
H       0.5157   0.9056   0.9169     H
C       0.5158    0.125   0.1946     C
C       0.5158    0.625   0.6946     C
H        0.516   0.0608   0.1278     H
H        0.516   0.5608   0.6278     H
C       0.5183   0.3622   0.5901     C
C       0.5183   0.8622   0.0901     C
H       0.5212   0.3517   0.4986     H
H       0.5212   0.8517   0.9986     H
O       0.5222   0.0798   0.2873     O
O       0.5222   0.5798   0.7873     O
C        0.523   0.0806    0.504     C
C        0.523   0.5806    0.004     C
C       0.5237   0.1031   0.1302     C
C       0.5237   0.6031   0.6302     C
H       0.5241   0.3781   0.7061     H
H       0.5241   0.8781   0.2061     H
H       0.5254   0.1013   0.0182     H
H       0.5254   0.6013   0.5182     H
C       0.5255   0.0742   0.3957     C
C       0.5255   0.5742   0.8957     C
H       0.5274   0.1663    0.198     H
H       0.5274   0.6663    0.698     H
Co     0.52874  0.14602  0.74645    Co
Co     0.52874  0.64602  0.24645    Co
C       0.5379   0.4423   0.3093     C
C       0.5379   0.9423   0.8093     C
O       0.5422   0.0773   0.6856     O
O       0.5422   0.5773   0.1856     O
C       0.5452   0.4333    0.419     C
C       0.5452   0.9333    0.919     C
C       0.5466   0.0594    0.444     C
C       0.5466   0.5594    0.944     C
C       0.5477   0.0588   0.3407     C
C       0.5477   0.5588   0.8407     C
O       0.5491   0.0592    0.549     O
O       0.5491   0.4237   0.5233     O
O       0.5491   0.5592    0.049     O
O       0.5491   0.9237   0.0233     O
O       0.5531   0.3279   0.2241     O
O       0.5531   0.8279   0.7241     O
C       0.5537    0.085    0.235     C
C       0.5537    0.585    0.735     C
O       0.5543   0.4673   0.2641     O
O       0.5543   0.9673   0.7641     O
O       0.5551   0.3323   0.1264     O
O       0.5551   0.8323   0.6264     O
H       0.5573   0.3685   0.6037     H
H       0.5573   0.8685   0.1037     H
H       0.5599   0.0463   0.2173     H
H       0.5599   0.5463   0.7173     H
O       0.5606    0.206   0.6898     O
O       0.5606    0.706   0.1898     O
H       0.5628     0.11   0.1175     H
H       0.5628     0.61   0.6175     H
C       0.5659   0.4588   0.3689     C
C       0.5659   0.9588   0.8689     C
C       0.5679   0.4489   0.4727     C
C       0.5679   0.9489   0.9727     C
C       0.5746    0.311   0.1749     C
C       0.5746    0.811   0.6749     C
O       0.5754   0.1767   0.5978     O
O       0.5754   0.6767   0.0978     O
C       0.5864   0.2071   0.6431     C
C       0.5864   0.7071   0.1431     C
C        0.588   0.0201   0.3381     C
C        0.588   0.5201   0.8381     C
H       0.5905   0.1036   0.2423     H
H       0.5905   0.6036   0.7423     H
C       0.5917   0.0209    0.444     C
C       0.5917   0.5209    0.944     C
H       0.5995   0.0043   0.3022     H
H       0.5995   0.5043   0.8022     H
H       0.6075   0.0073    0.479     H
H       0.6075   0.5073    0.979     H
C       0.6093   0.0002   0.8687     C
C       0.6093   0.5002   0.3687     C
C       0.6107   0.4914   0.4744     C
C       0.6107   0.9914   0.9744     C
C       0.6136   0.0025   0.3893     C
C       0.6136   0.5025   0.8893     C
C       0.6173    0.269    0.172     C
C       0.6173    0.769    0.672     C
H       0.6229   0.0155   0.8334     H
H       0.6229   0.5155   0.3334     H
H       0.6242   0.2525   0.2606     H
H       0.6242   0.7525   0.7606     H
H       0.6258   0.0025   0.0106     H
H       0.6258   0.5025   0.5106     H
H       0.6271   0.2655   0.0834     H
H       0.6271   0.7655   0.5834     H
C       0.6327    0.019    0.922     C
C       0.6327    0.519    0.422     C
C       0.6364   0.2525   0.6393     C
C       0.6364   0.7525   0.1393     C
C       0.6393   0.2414   0.2244     C
C       0.6393   0.7414   0.7244     C
C       0.6407   0.2502   0.1187     C
C       0.6407   0.7502   0.6187     C
H       0.6425   0.2573    0.729     H
H       0.6425   0.7573    0.229     H
H       0.6505   0.2543   0.5522     H
H       0.6505   0.7543   0.0522     H
C       0.6583   0.2709    0.694     C
C       0.6583   0.7709    0.194     C
H       0.6595   0.3536   0.4923     H
H       0.6595   0.8536   0.9923     H
C        0.662   0.2701   0.5881     C
C        0.662   0.7701   0.0881     C
C       0.6636   0.4571   0.8931     C
C       0.6636   0.9571   0.3931     C
O       0.6746   0.4267   0.8478     O
O       0.6746   0.9267   0.3478     O
C       0.6754    0.061   0.9249     C
C       0.6754    0.561   0.4249     C
C       0.6821   0.1989   0.2227     C
C       0.6821   0.6989   0.7227     C
C       0.6841   0.2088   0.1189     C
C       0.6841   0.7088   0.6189     C
H       0.6872     0.36   0.3675     H
H       0.6872     0.86   0.8675     H
O       0.6894    0.456   0.9398     O
O       0.6894    0.956   0.4398     O
H       0.6901   0.2963   0.4673     H
H       0.6901   0.7963   0.9673     H
H       0.6927   0.1185   0.3537     H
H       0.6927   0.6185   0.8537     H
O       0.6949   0.0823   0.8764     O
O       0.6949   0.5823   0.3764     O
O       0.6957   0.2173   0.0141     O
O       0.6957   0.7173   0.5141     O
C       0.6963    0.335    0.485     C
C       0.6963    0.835    0.985     C
O       0.6969   0.0779   0.9741     O
O       0.6969   0.5779   0.4741     O
O       0.7009   0.1737   0.2733     O
O       0.7009   0.3092    0.799     O
O       0.7009   0.6737   0.7733     O
O       0.7009   0.8092    0.299     O
C       0.7023   0.3088   0.5907     C
C       0.7023   0.8088   0.0907     C
C       0.7034   0.3094    0.694     C
C       0.7034   0.8094    0.194     C
C       0.7048   0.1833    0.169     C
C       0.7048   0.6833    0.669     C
O       0.7078   0.3273   0.9356     O
O       0.7078   0.8273   0.4356     O
C       0.7121   0.1923   0.0593     C
C       0.7121   0.6923   0.5593     C
Co     0.72126  0.39602  0.99645    Co
Co     0.72126  0.89602  0.49645    Co
H       0.7226   0.4163    0.448     H
H       0.7226   0.9163    0.948     H
C       0.7245   0.3242   0.6457     C
C       0.7245   0.8242   0.1457     C
H       0.7246   0.3513   0.2682     H
H       0.7246   0.8513   0.7682     H
H       0.7259   0.1281   0.4561     H
H       0.7259   0.6281   0.9561     H
C       0.7263   0.3531   0.3802     C
C       0.7263   0.8531   0.8802     C
C        0.727   0.3306    0.754     C
C        0.727   0.8306    0.254     C
O       0.7278   0.3298   0.5373     O
O       0.7278   0.8298   0.0373     O
H       0.7288   0.1017   0.2486     H
H       0.7288   0.6017   0.7486     H
C       0.7317   0.1122   0.3401     C
C       0.7317   0.6122   0.8401     C
H        0.734   0.3108   0.3778     H
H        0.734   0.8108   0.8778     H
C       0.7342    0.375   0.4446     C
C       0.7342    0.875   0.9446     C
H       0.7343   0.1556   0.1669     H
H       0.7343   0.6556   0.6669     H
O       0.7365    0.133   0.7567     O
O       0.7365    0.633   0.2567     O
C       0.7373   0.1335   0.2761     C
C       0.7373   0.6335   0.7761     C
Co     0.73852  0.36571  0.86014    Co
Co     0.73852  0.86571  0.36014    Co
H       0.7399     0.07   0.3423     H
H       0.7399     0.57   0.8423     H
H       0.7424   0.1528   0.6464     H
H       0.7424   0.6528   0.1464     H
O       0.7498   0.1532   0.0618     O
O       0.7498   0.6532   0.5618     O
Co        0.75     0.25  0.94978    Co
Co        0.75     0.75  0.44978    Co
O       0.7502   0.3468   0.0618     O
O       0.7502   0.8468   0.5618     O
H       0.7576   0.3472   0.6464     H
H       0.7576   0.8472   0.1464     H
H       0.7601     0.43   0.3423     H
H       0.7601     0.93   0.8423     H
Co     0.76148  0.13429  0.86014    Co
Co     0.76148  0.63429  0.36014    Co
C       0.7627   0.3665   0.2761     C
C       0.7627   0.8665   0.7761     C
O       0.7635    0.367   0.7567     O
O       0.7635    0.867   0.2567     O
H       0.7657   0.3444   0.1669     H
H       0.7657   0.8444   0.6669     H
C       0.7658    0.125   0.4446     C
C       0.7658    0.625   0.9446     C
H        0.766   0.1892   0.3778     H
H        0.766   0.6892   0.8778     H
C       0.7683   0.3878   0.3401     C
C       0.7683   0.8878   0.8401     C
H       0.7712   0.3983   0.2486     H
H       0.7712   0.8983   0.7486     H
O       0.7722   0.1702   0.5373     O
O       0.7722   0.6702   0.0373     O
C        0.773   0.1694    0.754     C
C        0.773   0.6694    0.254     C
C       0.7737   0.1469   0.3802     C
C       0.7737   0.6469   0.8802     C
H       0.7741   0.3719   0.4561     H
H       0.7741   0.8719   0.9561     H
H       0.7754   0.1487   0.2682     H
H       0.7754   0.6487   0.7682     H
C       0.7755   0.1758   0.6457     C
C       0.7755   0.6758   0.1457     C
H       0.7774   0.0837    0.448     H
H       0.7774   0.5837    0.948     H
Co     0.77874  0.10398  0.99645    Co
Co     0.77874  0.60398  0.49645    Co
C       0.7879   0.3077   0.0593     C
C       0.7879   0.8077   0.5593     C
O       0.7922   0.1727   0.9356     O
O       0.7922   0.6727   0.4356     O
C       0.7952   0.3167    0.169     C
C       0.7952   0.8167    0.669     C
C       0.7966   0.1906    0.694     C
C       0.7966   0.6906    0.194     C
C       0.7977   0.1912   0.5907     C
C       0.7977   0.6912   0.0907     C
O       0.7991   0.1908    0.799     O
O       0.7991   0.3263   0.2733     O
O       0.7991   0.6908    0.299     O
O       0.7991   0.8263   0.7733     O
O       0.8031   0.4221   0.9741     O
O       0.8031   0.9221   0.4741     O
C       0.8037    0.165    0.485     C
C       0.8037    0.665    0.985     C
O       0.8043   0.2827   0.0141     O
O       0.8043   0.7827   0.5141     O
O       0.8051   0.4177   0.8764     O
O       0.8051   0.9177   0.3764     O
H       0.8073   0.3815   0.3537     H
H       0.8073   0.8815   0.8537     H
H       0.8099   0.2037   0.4673     H
H       0.8099   0.7037   0.9673     H
O       0.8106    0.044   0.9398     O
O       0.8106    0.544   0.4398     O
H       0.8128     0.14   0.3675     H
H       0.8128     0.64   0.8675     H
C       0.8159   0.2912   0.1189     C
C       0.8159   0.7912   0.6189     C
C       0.8179   0.3011   0.2227     C
C       0.8179   0.8011   0.7227     C
C       0.8246    0.439   0.9249     C
C       0.8246    0.939   0.4249     C
O       0.8254   0.0733   0.8478     O
O       0.8254   0.5733   0.3478     O
C       0.8364   0.0429   0.8931     C
C       0.8364   0.5429   0.3931     C
C        0.838   0.2299   0.5881     C
C        0.838   0.7299   0.0881     C
H       0.8405   0.1464   0.4923     H
H       0.8405   0.6464   0.9923     H
C       0.8417   0.2291    0.694     C
C       0.8417   0.7291    0.194     C
H       0.8495   0.2457   0.5522     H
H       0.8495   0.7457   0.0522     H
H       0.8575   0.2427    0.729     H
H       0.8575   0.7427    0.229     H
C       0.8593   0.2498   0.1187     C
C       0.8593   0.7498   0.6187     C
C       0.8607   0.2586   0.2244     C
C       0.8607   0.7586   0.7244     C
C       0.8636   0.2475   0.6393     C
C       0.8636   0.7475   0.1393     C
C       0.8673    0.481    0.922     C
C       0.8673    0.981    0.422     C
H       0.8729   0.2345   0.0834     H
H       0.8729   0.7345   0.5834     H
H       0.8742   0.4975   0.0106     H
H       0.8742   0.9975   0.5106     H
H       0.8758   0.2475   0.2606     H
H       0.8758   0.7475   0.7606     H
H       0.8771   0.4845   0.8334     H
H       0.8771   0.9845   0.3334     H
C       0.8827    0.231    0.172     C
C       0.8827    0.731    0.672     C
C       0.8864   0.4975   0.3893     C
C       0.8864   0.9975   0.8893     C
C       0.8893   0.0086   0.4744     C
C       0.8893   0.5086   0.9744     C
C       0.8907   0.4998   0.8687     C
C       0.8907   0.9998   0.3687     C
H       0.8925   0.4927    0.479     H
H       0.8925   0.9927    0.979     H
H       0.9005   0.4957   0.3022     H
H       0.9005   0.9957   0.8022     H
C       0.9083   0.4791    0.444     C
C       0.9083   0.9791    0.944     C
H       0.9095   0.3964   0.2423     H
H       0.9095   0.8964   0.7423     H
C        0.912   0.4799   0.3381     C
C        0.912   0.9799   0.8381     C
C       0.9136   0.2929   0.6431     C
C       0.9136   0.7929   0.1431     C
O       0.9246   0.3233   0.5978     O
O       0.9246   0.8233   0.0978     O
C       0.9254    0.189   0.1749     C
C       0.9254    0.689   0.6749     C
C       0.9321   0.0511   0.4727     C
C       0.9321   0.5511   0.9727     C
C       0.9341   0.0412   0.3689     C
C       0.9341   0.5412   0.8689     C
H       0.9372     0.39   0.1175     H
H       0.9372     0.89   0.6175     H
O       0.9394    0.294   0.6898     O
O       0.9394    0.794   0.1898     O
H       0.9401   0.4537   0.2173     H
H       0.9401   0.9537   0.7173     H
H       0.9427   0.1315   0.6037     H
H       0.9427   0.6315   0.1037     H
O       0.9449   0.1677   0.1264     O
O       0.9449   0.6677   0.6264     O
O       0.9457   0.0327   0.2641     O
O       0.9457   0.5327   0.7641     O
C       0.9463    0.415    0.235     C
C       0.9463    0.915    0.735     C
O       0.9469   0.1721   0.2241     O
O       0.9469   0.6721   0.7241     O
O       0.9509   0.0763   0.5233     O
O       0.9509   0.4408    0.549     O
O       0.9509   0.5763   0.0233     O
O       0.9509   0.9408    0.049     O
C       0.9523   0.4412   0.3407     C
C       0.9523   0.9412   0.8407     C
C       0.9534   0.4406    0.444     C
C       0.9534   0.9406    0.944     C
C       0.9548   0.0667    0.419     C
C       0.9548   0.5667    0.919     C
O       0.9578   0.4227   0.6856     O
O       0.9578   0.9227   0.1856     O
C       0.9621   0.0577   0.3093     C
C       0.9621   0.5577   0.8093     C
Co     0.97126  0.35398  0.74645    Co
Co     0.97126  0.85398  0.24645    Co
H       0.9726   0.3337    0.198     H
H       0.9726   0.8337    0.698     H
C       0.9745   0.4258   0.3957     C
C       0.9745   0.9258   0.8957     C
H       0.9746   0.3987   0.0182     H
H       0.9746   0.8987   0.5182     H
H       0.9759   0.1219   0.7061     H
H       0.9759   0.6219   0.2061     H
C       0.9763   0.3969   0.1302     C
C       0.9763   0.8969   0.6302     C
C        0.977   0.4194    0.504     C
C        0.977   0.9194    0.004     C
O       0.9778   0.4202   0.2873     O
O       0.9778   0.9202   0.7873     O
H       0.9788   0.1483   0.4986     H
H       0.9788   0.6483   0.9986     H
C       0.9817   0.1378   0.5901     C
C       0.9817   0.6378   0.0901     C
H        0.984   0.4392   0.1278     H
H        0.984   0.9392   0.6278     H
C       0.9842    0.375   0.1946     C
C       0.9842    0.875   0.6946     C
H       0.9843   0.0944   0.4169     H
H       0.9843   0.5944   0.9169     H
O       0.9865    0.117   0.0067     O
O       0.9865    0.617   0.5067     O
C       0.9873   0.1165   0.5261     C
C       0.9873   0.6165   0.0261     C
Co     0.98852  0.38429  0.61014    Co
Co     0.98852  0.88429  0.11014    Co
H       0.9899     0.18   0.5923     H
H       0.9899     0.68   0.0923     H
H       0.9924   0.0972   0.8964     H
H       0.9924   0.5972   0.3964     H
O       0.9998   0.0968   0.3118     O
O       0.9998   0.5968   0.8118     O
