data_I
_chemical_name_common  '/home/zhangsd/repos/MofS-CGCNN/ML/data/TSD/clean_cifs/XUMSOP_clean'
_cell_length_a 17.76400
_cell_length_b 17.76400
_cell_length_c 15.35500
_cell_angle_alpha 90.00000
_cell_angle_beta  90.00000
_cell_angle_gamma 90.00000
_space_group_name_H-M_alt      'P 1'


loop_
_space_group_symop_operation_xyz
  'x, y, z' 

loop_
_atom_site_label
_atom_site_fract_x
_atom_site_fract_y
_atom_site_fract_z
_atom_site_type_symbol
C       0.0002   0.1723   0.3625     C
H       0.0013   0.2877   0.2435     H
C        0.002   0.7983   0.5792     C
O       0.0023   0.4113   0.7565     O
C       0.0024   0.2783   0.7299     C
C       0.0032   0.6217   0.8283     C
O        0.005   0.1237   0.7697     O
C        0.005   0.3588   0.6991     C
C        0.006   0.2228    0.662     C
O       0.0066    0.864   0.7937     O
H       0.0074   0.2738   0.4283     H
O       0.0083     0.64   0.4509     O
O       0.0087   0.9309   0.6166     O
O       0.0092     0.09   0.6345     O
O       0.0099   0.6003   0.9066     O
C       0.0102   0.8812   0.5587     C
C       0.0104   0.1407   0.6907     C
Ho     0.01081  0.98919     0.75    Ho
Ho     0.01092   0.4716  0.88841    Ho
O       0.0124     0.57   0.7717     O
C        0.014   0.2536   0.3695     C
O       0.0149    0.376   0.6212     O
H       0.0159   0.7882   0.6399     H
C       0.0161   0.6999   0.8023     C
O       0.0168   0.1425   0.4352     O
O       0.0252   0.9017   0.4807     O
C       0.0262    0.671   0.5209     C
Ho      0.0284  0.51092  0.63841    Ho
Ho      0.0316   0.0316      0.5    Ho
O       0.0375   0.6344   0.5929     O
H       0.0391    0.771   0.4594     H
C       0.0491   0.7526   0.5184     C
O       0.0691   0.9913   0.8834     O
O         0.07   0.4876   0.0217     O
C       0.0832   0.2169    0.064     C
O       0.0887   0.5023   0.5065     O
O         0.09   0.0092   0.3655     O
H       0.0911   0.2335   0.0055     H
O       0.0983   0.9748   0.0193     O
H       0.1001   0.2552   0.1039     H
O       0.1003   0.4901   0.1566     O
H       0.1111   0.1715   0.0743     H
C       0.1188   0.9898   0.9413     C
C       0.1217   0.4968   0.0783     C
O       0.1237    0.005   0.2303     O
O        0.124   0.5149   0.3712     O
C       0.1325   0.7674    0.538     C
O       0.1344   0.4625   0.8429     O
O        0.136   0.9934   0.7063     O
O         0.14   0.4917   0.7009     O
C       0.1407   0.0104   0.3093     C
C       0.1412    0.505   0.4491     C
H       0.1415   0.7622   0.5991     H
O       0.1425   0.0168   0.5648     O
H       0.1455   0.8174   0.5195     H
H       0.1629   0.7316   0.5066     H
C        0.171   0.4738   0.7709     C
H       0.1715   0.1111   0.9257     H
C       0.1723   0.0002   0.6375     C
H       0.1826   0.8545   0.9805     H
C       0.1999   0.4839   0.0523     C
C       0.2017    0.998   0.9208     C
H       0.2118   0.9841   0.8601     H
H       0.2123   0.5013   0.9935     H
C       0.2169   0.0832    0.936     C
C       0.2217   0.5024   0.4799     C
C       0.2228    0.006    0.338     C
H       0.2262   0.5074   0.1783     H
H        0.229   0.9609   0.0406     H
H       0.2316   0.3371   0.7566     H
C       0.2326   0.8675    0.962     C
H       0.2335   0.0911   0.9945     H
H       0.2378   0.8585   0.9009     H
H       0.2448   0.6001   0.8539     H
C       0.2464    0.514   0.1195     C
C       0.2474   0.9509   0.9816     C
C       0.2526   0.4509   0.7684     C
C       0.2536    0.014   0.6305     C
H       0.2552   0.1001   0.8961     H
H       0.2622   0.3585   0.8491     H
H       0.2665   0.5911   0.7555     H
C       0.2674   0.3675    0.788     C
H       0.2684   0.8371   0.9934     H
H        0.271   0.4609   0.7094     H
H       0.2738   0.0074   0.5717     H
C       0.2772    0.506    0.412     C
C       0.2783   0.0024   0.2701     C
C       0.2831   0.5832    0.814     C
H       0.2877   0.0013   0.7565     H
H       0.2882   0.4841   0.8899     H
C       0.2983    0.498   0.8292     C
C       0.3001   0.9839   0.6977     C
H       0.3174   0.3545   0.7695     H
C       0.3277   0.5002   0.1125     C
H       0.3285   0.6111   0.8243     H
C        0.329   0.9738   0.9791     C
H       0.3371   0.2316   0.2434     H
H       0.3545   0.3174   0.2305     H
O       0.3575   0.5168   0.1852     O
H       0.3585   0.2622   0.1509     H
C       0.3588    0.005   0.3009     C
C       0.3593   0.5104   0.4407     C
O         0.36   0.9917   0.0491     O
O        0.364   0.4934   0.0437     O
O       0.3656   0.9625   0.9071     O
C       0.3675   0.2674    0.212     C
O        0.376   0.0149   0.3788     O
O       0.3763    0.505   0.5197     O
C       0.3783   0.9968   0.6717     C
C       0.3812   0.4898   0.8087     C
H       0.3889   0.6715   0.6757     H
O       0.3997   0.9901   0.5934     O
H       0.3999   0.7552   0.6461     H
O       0.4017   0.4748   0.7307     O
H       0.4089   0.7335   0.7445     H
O         0.41   0.5092   0.3845     O
O       0.4113   0.0023   0.2435     O
C       0.4168   0.7169    0.686     C
O         0.43   0.9876   0.7283     O
O       0.4309   0.4913   0.8666     O
C       0.4509   0.2526   0.2316     C
H       0.4609    0.271   0.2906     H
O       0.4625   0.1344   0.1571     O
Ho      0.4684   0.5316     0.25    Ho
Ho      0.4716  0.01092  0.11159    Ho
C       0.4738    0.171   0.2291     C
O       0.4748   0.4017   0.2693     O
O       0.4832   0.6425   0.3148     O
C       0.4839   0.1999   0.9477     C
H       0.4841   0.2882   0.1101     H
O       0.4851    0.876   0.1288     O
C        0.486   0.7536   0.3805     C
O       0.4876     0.07   0.9783     O
Ho     0.48908   0.9716  0.86159    Ho
Ho     0.48919  0.48919      0.0    Ho
C       0.4896   0.6407   0.0593     C
C       0.4898   0.3812   0.1913     C
O       0.4901   0.1003   0.8434     O
O       0.4908     0.59   0.1155     O
O       0.4913   0.4309   0.1334     O
O       0.4917     0.14   0.2991     O
H       0.4926   0.7738   0.3217     H
O       0.4934    0.364   0.9563     O
C        0.494   0.7228    0.088     C
O        0.495   0.6237   0.9803     O
C        0.495   0.8588   0.0509     C
C       0.4968   0.1217   0.9217     C
C       0.4976   0.7783   0.0201     C
O       0.4977   0.9113   0.9935     O
C        0.498   0.2983   0.1708     C
H       0.4987   0.7877   0.5065     H
C       0.4998   0.6723   0.3875     C
C       0.5002   0.3277   0.8875     C
H       0.5013   0.2123   0.0065     H
C        0.502   0.7017   0.6708     C
O       0.5023   0.0887   0.4935     O
C       0.5024   0.2217   0.5201     C
C       0.5032   0.8783   0.4217     C
C        0.505   0.1412   0.5509     C
O        0.505   0.3763   0.4803     O
C        0.506   0.2772    0.588     C
O       0.5066    0.636   0.4563     O
H       0.5074   0.2262   0.8217     H
O       0.5083     0.86   0.7991     O
O       0.5087   0.5691   0.6334     O
O       0.5092     0.41   0.6155     O
O       0.5099   0.8997   0.3434     O
C       0.5102   0.6188   0.6913     C
C       0.5104   0.3593   0.5593     C
Ho     0.51081  0.51081      0.5    Ho
Ho     0.51092   0.0284  0.36159    Ho
O       0.5124     0.93   0.4783     O
C        0.514   0.2464   0.8805     C
O       0.5149    0.124   0.6288     O
H       0.5159   0.7118   0.6101     H
C       0.5161   0.8001   0.4477     C
O       0.5168   0.3575   0.8148     O
O       0.5252   0.5983   0.7693     O
C       0.5262    0.829   0.7291     C
Ho      0.5284  0.98908  0.61159    Ho
Ho      0.5316   0.4684     0.75    Ho
O       0.5375   0.8656   0.6571     O
H       0.5391    0.729   0.7906     H
C       0.5491   0.7474   0.7316     C
O       0.5691   0.5087   0.3666     O
O         0.57   0.0124   0.2283     O
C       0.5832   0.2831    0.186     C
O       0.5887   0.9977   0.7435     O
O         0.59   0.4908   0.8845     O
H       0.5911   0.2665   0.2445     H
O       0.5983   0.5252   0.2307     O
H       0.6001   0.2448   0.1461     H
O       0.6003   0.0099   0.0934     O
H       0.6111   0.3285   0.1757     H
C       0.6188   0.5102   0.3087     C
C       0.6217   0.0032   0.1717     C
O       0.6237    0.495   0.0197     O
O        0.624   0.9851   0.8788     O
C       0.6325   0.7326    0.712     C
O       0.6344   0.0375   0.4071     O
O        0.636   0.5066   0.5437     O
O         0.64   0.0083   0.5491     O
C       0.6407   0.4896   0.9407     C
C       0.6412    0.995   0.8009     C
H       0.6415   0.7378   0.6509     H
O       0.6425   0.4832   0.6852     O
H       0.6455   0.6826   0.7305     H
H       0.6629   0.7684   0.7434     H
C        0.671   0.0262   0.4791     C
H       0.6715   0.3889   0.3243     H
C       0.6723   0.4998   0.6125     C
H       0.6826   0.6455   0.2695     H
C       0.6999   0.0161   0.1977     C
C       0.7017    0.502   0.3292     C
H       0.7118   0.5159   0.3899     H
H       0.7123   0.9987   0.2565     H
C       0.7169   0.4168    0.314     C
C       0.7217   0.9976   0.7701     C
C       0.7228    0.494    0.912     C
H       0.7262   0.9926   0.0717     H
H        0.729   0.5391   0.2094     H
H       0.7316   0.1629   0.4934     H
C       0.7326   0.6325    0.288     C
H       0.7335   0.4089   0.2555     H
H       0.7378   0.6415   0.3491     H
H       0.7448   0.8999   0.3961     H
C       0.7464    0.986   0.1305     C
C       0.7474   0.5491   0.2684     C
C       0.7526   0.0491   0.4816     C
C       0.7536    0.486   0.6195     C
H       0.7552   0.3999   0.3539     H
H       0.7622   0.1415   0.4009     H
H       0.7665   0.9089   0.4945     H
C       0.7674   0.1325    0.462     C
H       0.7684   0.6629   0.2566     H
H        0.771   0.0391   0.5406     H
H       0.7738   0.4926   0.6783     H
C       0.7772    0.994    0.838     C
C       0.7783   0.4976   0.9799     C
C       0.7831   0.9168    0.436     C
H       0.7877   0.4987   0.4935     H
H       0.7882   0.0159   0.3601     H
C       0.7983    0.002   0.4208     C
C       0.8001   0.5161   0.5523     C
H       0.8174   0.1455   0.4805     H
C       0.8277   0.9998   0.1375     C
H       0.8285   0.8889   0.4257     H
C        0.829   0.5262   0.2709     C
H       0.8371   0.2684   0.0066     H
H       0.8545   0.1826   0.0195     H
O       0.8575   0.9832   0.0648     O
H       0.8585   0.2378   0.0991     H
C       0.8588    0.495   0.9491     C
C       0.8593   0.9896   0.8093     C
O         0.86   0.5083   0.2009     O
O        0.864   0.0066   0.2063     O
O       0.8656   0.5375   0.3429     O
C       0.8675   0.2326    0.038     C
O        0.876   0.4851   0.8712     O
O       0.8763    0.995   0.7303     O
C       0.8783   0.5032   0.5783     C
C       0.8812   0.0102   0.4413     C
H       0.8889   0.8285   0.5743     H
O       0.8997   0.5099   0.6566     O
H       0.8999   0.7448   0.6039     H
O       0.9017   0.0252   0.5193     O
H       0.9089   0.7665   0.5055     H
O         0.91   0.9908   0.8655     O
O       0.9113   0.4977   0.0065     O
C       0.9168   0.7831    0.564     C
O         0.93   0.5124   0.5217     O
O       0.9309   0.0087   0.3834     O
C       0.9509   0.2474   0.0184     C
H       0.9609    0.229   0.9594     H
O       0.9625   0.3656   0.0929     O
Ho      0.9684   0.9684      0.0    Ho
Ho      0.9716  0.48908  0.13841    Ho
C       0.9738    0.329   0.0209     C
O       0.9748   0.0983   0.9807     O
O       0.9832   0.8575   0.9352     O
C       0.9839   0.3001   0.3023     C
H       0.9841   0.2118   0.1399     H
O       0.9851    0.624   0.1212     O
C        0.986   0.7464   0.8695     C
O       0.9876     0.43   0.2717     O
Ho     0.98908   0.5284  0.38841    Ho
Ho     0.98919  0.01081     0.25    Ho
C       0.9896   0.8593   0.1907     C
C       0.9898   0.1188   0.0587     C
O       0.9901   0.3997   0.4066     O
O       0.9908     0.91   0.1345     O
O       0.9913   0.0691   0.1166     O
O       0.9917     0.36   0.9509     O
H       0.9926   0.7262   0.9283     H
O       0.9934    0.136   0.2937     O
C        0.994   0.7772    0.162     C
C        0.995   0.6412   0.1991     C
O        0.995   0.8763   0.2697     O
C       0.9968   0.3783   0.3283     C
C       0.9976   0.7217   0.2299     C
O       0.9977   0.5887   0.2565     O
C        0.998   0.2017   0.0792     C
H       0.9987   0.7123   0.7435     H
C       0.9998   0.8277   0.8625     C
