data_I
_chemical_name_common  '/home/zhangsd/repos/MofS-CGCNN/ML/data/TSD/clean_cifs/XUMVOS_clean'
_cell_length_a  6.41900
_cell_length_b  7.93610
_cell_length_c  8.91100
_cell_angle_alpha 103.75700
_cell_angle_beta  104.13700
_cell_angle_gamma 106.94500
_space_group_name_H-M_alt      'P 1'


loop_
_space_group_symop_operation_xyz
  'x, y, z' 

loop_
_atom_site_label
_atom_site_fract_x
_atom_site_fract_y
_atom_site_fract_z
_atom_site_type_symbol
C       0.1085    0.572   0.9377     C
Ba     0.15118  0.27066   0.4275    Ba
C        0.158   0.4964    0.082     C
C       0.1631   0.4895   0.7873     C
O       0.1647   0.5782  0.68498     O
H       0.1797   0.7115   0.9773     H
O        0.198   0.3399  0.76488     O
H       0.2078   0.3883   0.0529     H
O       0.2177   0.9589  0.50826     O
H        0.261    0.908    0.435     H
C       0.3188   0.6393   0.2469     C
H        0.344    0.015    0.582     H
O       0.3721   0.8102  0.26313     O
O        0.383   0.5793  0.36247     O
O        0.617   0.4207  0.63753     O
O       0.6279   0.1898  0.73687     O
H        0.656    0.985    0.418     H
C       0.6812   0.3607   0.7531     C
H        0.739    0.092    0.565     H
O       0.7823   0.0411  0.49174     O
H       0.7922   0.6117   0.9471     H
O        0.802   0.6601  0.23512     O
H       0.8203   0.2885   0.0227     H
O       0.8353   0.4218  0.31502     O
C       0.8369   0.5105   0.2127     C
C        0.842   0.5036    0.918     C
Ba     0.84882  0.72934   0.5725    Ba
C       0.8915    0.428   0.0623     C
