data_I
_chemical_name_common  '/home/zhangsd/repos/MofS-CGCNN/ML/data/TSD/clean_cifs/XUNSEG_clean'
_cell_length_a  5.38810
_cell_length_b 14.11750
_cell_length_c 11.40980
_cell_angle_alpha 90.00000
_cell_angle_beta  101.18700
_cell_angle_gamma 90.00000
_space_group_name_H-M_alt      'P 1'


loop_
_space_group_symop_operation_xyz
  'x, y, z' 

loop_
_atom_site_label
_atom_site_fract_x
_atom_site_fract_y
_atom_site_fract_z
_atom_site_type_symbol
H       0.0005   0.6428   0.2506     H
H       0.0079   0.2406   0.6069     H
C       0.0272   0.2703   0.2918     C
C       0.0502   0.3391   0.2083     C
O       0.0596   0.8953   0.5864     O
H       0.0622   0.6084   0.7997     H
H       0.0992   0.7243   0.6611     H
C       0.1175   0.7629    0.345     C
C       0.1235   0.6918   0.2613     C
C       0.1536   0.1133   0.3902     C
O       0.1584   0.5608   0.0728     O
C       0.1897   0.1934   0.3061     C
Li      0.2052   0.4366   0.0035    Li
N       0.2221   0.3358   0.1383     N
N       0.2779   0.8358   0.3617     N
Li      0.2948   0.9366   0.4965    Li
C       0.3103   0.6934   0.1939     C
O       0.3416   0.0608   0.4272     O
C       0.3464   0.6133   0.1098     C
C       0.3765   0.1918   0.2387     C
C       0.3825   0.2629    0.155     C
H       0.4008   0.2243   0.8389     H
H       0.4378   0.1084   0.7003     H
O       0.4404   0.3953   0.9136     O
C       0.4498   0.8391   0.2917     C
C       0.4728   0.7703   0.2082     C
H       0.4921   0.7406   0.8931     H
H       0.4995   0.1428   0.2494     H
H       0.5005   0.8572   0.7506     H
H       0.5079   0.2594   0.1069     H
C       0.5272   0.2297   0.7918     C
C       0.5502   0.1609   0.7083     C
O       0.5596   0.6047   0.0864     O
H       0.5622   0.8916   0.2997     H
H       0.5992   0.7757   0.1611     H
C       0.6175   0.7371    0.845     C
C       0.6235   0.8082   0.7613     C
C       0.6536   0.3867   0.8902     C
O       0.6584   0.9392   0.5728     O
C       0.6897   0.3066   0.8061     C
Li      0.7052   0.0634   0.5035    Li
N       0.7221   0.1642   0.6383     N
N       0.7779   0.6642   0.8617     N
Li      0.7948   0.5634   0.9965    Li
C       0.8103   0.8066   0.6939     C
O       0.8416   0.4392   0.9272     O
C       0.8464   0.8867   0.6098     C
C       0.8765   0.3082   0.7387     C
C       0.8825   0.2371    0.655     C
H       0.9008   0.2757   0.3389     H
H       0.9378   0.3916   0.2003     H
O       0.9404   0.1047   0.4136     O
C       0.9498   0.6609   0.7917     C
C       0.9728   0.7297   0.7082     C
H       0.9921   0.7594   0.3931     H
H       0.9995   0.3572   0.7494     H
