data_I
_chemical_name_common  '/home/zhangsd/repos/MofS-CGCNN/ML/data/TSD/clean_cifs/XUNSUW_clean'
_cell_length_a 10.24020
_cell_length_b  9.50230
_cell_length_c 15.29120
_cell_angle_alpha 90.00000
_cell_angle_beta  98.32800
_cell_angle_gamma 90.00000
_space_group_name_H-M_alt      'P 1'


loop_
_space_group_symop_operation_xyz
  'x, y, z' 

loop_
_atom_site_label
_atom_site_fract_x
_atom_site_fract_y
_atom_site_fract_z
_atom_site_type_symbol
C        0.006    0.352   0.7069     C
C       0.0124   0.5634   0.2224     C
H       0.0218   0.1602   0.8599     H
O       0.0348   0.1657   0.5698     O
O       0.0358   0.3119   0.0553     O
C       0.0401   0.9596   0.9019     C
H        0.049   0.0662   0.1177     H
H       0.0547   0.5024   0.7984     H
C        0.072   0.8421   0.4006     C
C       0.0831   0.0943    0.889     C
C       0.0845   0.7121   0.9586     C
H       0.0848   0.3589   0.6812     H
C        0.092   0.7436   0.3263     C
N       0.1199   0.5692   0.1816     N
H       0.1207   0.5718   0.5251     H
C       0.1293   0.8613   0.9442     C
Li      0.1491    0.468   0.0649    Li
Li      0.1614   0.0387   0.5353    Li
O        0.165    0.927   0.4266     O
O       0.1732   0.6226   0.9843     O
H       0.1789   0.3419   0.4982     H
C       0.2039   0.7482   0.2845     C
N       0.2072   0.1366   0.9156     N
C        0.209   0.5428    0.544     C
H       0.2094   0.1671   0.3139     H
C       0.2134   0.6613   0.2137     C
H       0.2262   0.3112   0.1951     H
C       0.2424    0.405   0.5278     C
C       0.2576    0.905   0.9722     C
H       0.2738   0.8112   0.3049     H
C       0.2866   0.1613   0.2863     C
H       0.2906   0.6671   0.1861     H
C        0.291   0.0428    0.956     C
N       0.2928   0.6366   0.5844     N
C       0.2961   0.2482   0.2155     C
H       0.3211   0.8419   0.0018     H
O       0.3268   0.1226   0.5157     O
O        0.335    0.427   0.0734     O
Li      0.3386   0.5387   0.9647    Li
Li      0.3509    0.968   0.4351    Li
C       0.3707   0.3613   0.5558     C
H       0.3793   0.0718   0.9749     H
N       0.3801   0.0692   0.3184     N
C        0.408   0.2436   0.1737     C
H       0.4152   0.8589   0.8188     H
C       0.4155   0.2121   0.5414     C
C       0.4169   0.5943    0.611     C
C        0.428   0.3421   0.0994     C
H       0.4453   0.0024   0.7016     H
H        0.451   0.5662   0.3823     H
C       0.4599   0.4596   0.5981     C
O       0.4642   0.8119   0.4447     O
O       0.4652   0.6657   0.9302     O
H       0.4782   0.6602   0.6401     H
C       0.4876   0.0634   0.2776     C
C        0.494    0.852   0.7931     C
C        0.506    0.148   0.2069     C
C       0.5124   0.9366   0.7224     C
H       0.5218   0.3398   0.3599     H
O       0.5348   0.3343   0.0698     O
O       0.5358   0.1881   0.5553     O
C       0.5401   0.5404   0.4019     C
H        0.549   0.4338   0.6177     H
H       0.5547   0.9976   0.2984     H
C        0.572   0.6579   0.9006     C
C       0.5831   0.4057    0.389     C
C       0.5845   0.7879   0.4586     C
H       0.5848   0.1411   0.1812     H
C        0.592   0.7564   0.8263     C
N       0.6199   0.9308   0.6816     N
H       0.6207   0.9282   0.0251     H
C       0.6293   0.6387   0.4442     C
Li      0.6491    0.032   0.5649    Li
Li      0.6614   0.4613   0.0353    Li
O        0.665    0.573   0.9266     O
O       0.6732   0.8774   0.4843     O
H       0.6789   0.1581   0.9982     H
C       0.7039   0.7518   0.7845     C
N       0.7072   0.3634   0.4156     N
C        0.709   0.9572    0.044     C
H       0.7094   0.3329   0.8139     H
C       0.7134   0.8387   0.7137     C
H       0.7262   0.1888   0.6951     H
C       0.7424    0.095   0.0278     C
C       0.7576    0.595   0.4722     C
H       0.7738   0.6888   0.8049     H
C       0.7866   0.3387   0.7863     C
H       0.7906   0.8329   0.6861     H
C        0.791   0.4572    0.456     C
N       0.7928   0.8634   0.0844     N
C       0.7961   0.2518   0.7155     C
H       0.8211   0.6581   0.5018     H
O       0.8268   0.3774   0.0157     O
O        0.835    0.073   0.5734     O
Li      0.8386   0.9613   0.4647    Li
Li      0.8509    0.532   0.9351    Li
C       0.8707   0.1387   0.0558     C
H       0.8793   0.4282   0.4749     H
N       0.8801   0.4308   0.8184     N
C        0.908   0.2564   0.6737     C
H       0.9152   0.6411   0.3188     H
C       0.9155   0.2879   0.0414     C
C       0.9169   0.9057    0.111     C
C        0.928   0.1579   0.5994     C
H       0.9453   0.4976   0.2016     H
H        0.951   0.9338   0.8823     H
C       0.9599   0.0404   0.0981     C
O       0.9642   0.6881   0.9447     O
O       0.9652   0.8343   0.4302     O
H       0.9782   0.8398   0.1401     H
C       0.9876   0.4366   0.7776     C
C        0.994    0.648   0.2931     C
