data_I
_chemical_name_common  '/home/zhangsd/repos/MofS-CGCNN/ML/data/TSD/clean_cifs/XUNTIL_clean'
_cell_length_a  5.20380
_cell_length_b 14.51600
_cell_length_c 10.29500
_cell_angle_alpha 90.00000
_cell_angle_beta  96.14000
_cell_angle_gamma 90.00000
_space_group_name_H-M_alt      'P 1'


loop_
_space_group_symop_operation_xyz
  'x, y, z' 

loop_
_atom_site_label
_atom_site_fract_x
_atom_site_fract_y
_atom_site_fract_z
_atom_site_type_symbol
O        0.004   0.1153   0.5839     O
O        0.004   0.3847   0.0839     O
H       0.0799   0.2186   0.1518     H
H       0.0799   0.2814   0.6518     H
H       0.1663   0.7377   0.5743     H
H       0.1663   0.7623   0.0743     H
C        0.225   0.1113   0.6244     C
C        0.225   0.3887   0.1244     C
C        0.231   0.2299   0.2101     C
C        0.231   0.2701   0.7101     C
H       0.2342   0.1025   0.2994     H
H       0.2342   0.3975   0.7994     H
Li       0.315   0.5657    0.002    Li
Li       0.315   0.9343    0.502    Li
C        0.321   0.7476   0.6305     C
C        0.321   0.7524   0.1305     C
C        0.327   0.1585   0.2944     C
C        0.327   0.3415   0.7944     C
H       0.3288   0.6193   0.7164     H
H       0.3288   0.8807   0.2164     H
C        0.341    0.188   0.7086     C
C        0.341    0.312   0.2086     C
O        0.387   0.0463   0.5941     O
O        0.387   0.4537   0.0941     O
C        0.421   0.6756   0.7132     C
C        0.421   0.8244   0.2132     C
N        0.436    0.672   0.1291     N
N        0.436    0.828   0.6291     N
N        0.564    0.172   0.3709     N
N        0.564    0.328   0.8709     N
C        0.579   0.1756   0.7868     C
C        0.579   0.3244   0.2868     C
O        0.613   0.5463   0.9059     O
O        0.613   0.9537   0.4059     O
C        0.659    0.688   0.7914     C
C        0.659    0.812   0.2914     C
H       0.6712   0.1193   0.7836     H
H       0.6712   0.3807   0.2836     H
C        0.673   0.6585   0.2056     C
C        0.673   0.8415   0.7056     C
C        0.679   0.2476   0.8695     C
C        0.679   0.2524   0.3695     C
Li       0.685   0.0657    0.498    Li
Li       0.685   0.4343    0.998    Li
H       0.7658   0.6025   0.2006     H
H       0.7658   0.8975   0.7006     H
C        0.769   0.7299   0.2899     C
C        0.769   0.7701   0.7899     C
C        0.775   0.6113   0.8756     C
C        0.775   0.8887   0.3756     C
H       0.8337   0.2377   0.9257     H
H       0.8337   0.2623   0.4257     H
H       0.9201   0.7186   0.3482     H
H       0.9201   0.7814   0.8482     H
O        0.996   0.6153   0.9161     O
O        0.996   0.8847   0.4161     O
