data_I
_chemical_name_common  '/home/zhangsd/repos/MofS-CGCNN/ML/data/TSD/clean_cifs/XUNTAD_clean'
_cell_length_a 10.41750
_cell_length_b  9.59220
_cell_length_c 15.28770
_cell_angle_alpha 90.00000
_cell_angle_beta  97.47900
_cell_angle_gamma 90.00000
_space_group_name_H-M_alt      'P 1'


loop_
_space_group_symop_operation_xyz
  'x, y, z' 

loop_
_atom_site_label
_atom_site_fract_x
_atom_site_fract_y
_atom_site_fract_z
_atom_site_type_symbol
C      0.00716  0.08102  0.21448     C
C      0.01019  0.83435  0.71418     C
H       0.0245   0.6543   0.8693     H
O      0.03044  0.81767  0.05522     O
O      0.03378  0.65561  0.57241     O
C      0.04313   0.4533  0.90728     C
H       0.0447   0.5715   0.1105     H
H       0.0646   0.9714   0.8125     H
C      0.07369  0.34473  0.40016     C
C      0.08533  0.58803  0.89575     C
C      0.08768  0.20573   0.9585     C
H       0.0919   0.8308    0.693     H
C      0.09195  0.24445  0.32564     C
N      0.11893  0.06973  0.18221     N
H       0.1235   0.0639   0.5231     H
C      0.13106  0.35464   0.9453     C
Li     0.14899   0.9677  0.06624    Li
Li     0.16097   0.5332   0.5361    Li
O      0.16746  0.42285  0.42731     O
O      0.17441  0.11756  0.98319     O
H       0.1801   0.8333   0.5011     H
H       0.2016   0.6382   0.3002     H
N      0.20682  0.62977  0.91973     N
C      0.20877    0.233  0.29262     C
C      0.20998  0.03523  0.54198     C
C      0.21732   0.1451  0.22169     C
H       0.2179   0.7845   0.1819     H
C       0.2428  0.89708  0.52816     C
C       0.2572  0.39708  0.97184     C
H       0.2821   0.2845   0.3181     H
C      0.28268   0.6451  0.27831     C
C      0.29002  0.53523  0.95802     C
C      0.29123    0.733  0.20738     C
N      0.29318  0.12977  0.58027     N
H       0.2984   0.1382   0.1998     H
H       0.3199   0.3333   0.9989     H
O      0.32559  0.61756  0.51681     O
O      0.33254  0.92285  0.07269     O
Li     0.33903   0.0332   0.9639    Li
Li     0.35101   0.4677  0.43376    Li
C      0.36894  0.85464   0.5547     C
H       0.3765   0.5639   0.9769     H
N      0.38107  0.56973  0.31779     N
C      0.40805  0.74445  0.17436     C
H       0.4081   0.3308    0.807     H
C      0.41232  0.70573   0.5415     C
C      0.41467  0.08803  0.60425     C
C      0.42631  0.84473  0.09984     C
H       0.4354   0.4714   0.6875     H
H       0.4553   0.0715   0.3895     H
C      0.45687   0.9533  0.59272     C
O      0.46622  0.15561  0.92759     O
O      0.46956  0.31767  0.44478     O
H       0.4755   0.1543   0.6307     H
C      0.48981  0.33435  0.78582     C
C      0.49284  0.58102  0.28552     C
C      0.50716  0.41898  0.71448     C
C      0.51019  0.66565  0.21418     C
H       0.5245   0.8457   0.3693     H
O      0.53044  0.68233  0.55522     O
O      0.53378  0.84439  0.07241     O
C      0.54313   0.0467  0.40728     C
H       0.5447   0.9285   0.6105     H
H       0.5646   0.5286   0.3125     H
C      0.57369  0.15527  0.90016     C
C      0.58533  0.91197  0.39575     C
C      0.58768  0.29427   0.4585     C
H       0.5919   0.6692    0.193     H
C      0.59195  0.25555  0.82564     C
N      0.61893  0.43027  0.68221     N
H       0.6235   0.4361   0.0231     H
C      0.63106  0.14536   0.4453     C
Li     0.64899   0.5323  0.56624    Li
Li     0.66097   0.9668   0.0361    Li
O      0.66746  0.07715  0.92731     O
O      0.67441  0.38244  0.48319     O
H       0.6801   0.6667   0.0011     H
H       0.7016   0.8618   0.8002     H
N      0.70682  0.87023  0.41973     N
C      0.70877    0.267  0.79262     C
C      0.70998  0.46477  0.04198     C
C      0.71732   0.3549  0.72169     C
H       0.7179   0.7155   0.6819     H
C       0.7428  0.60292  0.02816     C
C       0.7572  0.10292  0.47184     C
H       0.7821   0.2155   0.8181     H
C      0.78268   0.8549  0.77831     C
C      0.79002  0.96477  0.45802     C
C      0.79123    0.767  0.70738     C
N      0.79318  0.37023  0.08027     N
H       0.7984   0.3618   0.6998     H
H       0.8199   0.1667   0.4989     H
O      0.82559  0.88244  0.01681     O
O      0.83254  0.57715  0.57269     O
Li     0.83903   0.4668   0.4639    Li
Li     0.85101   0.0323  0.93376    Li
C      0.86894  0.64536   0.0547     C
H       0.8765   0.9361   0.4769     H
N      0.88107  0.93027  0.81779     N
C      0.90805  0.75555  0.67436     C
H       0.9081   0.1692    0.307     H
C      0.91232  0.79427   0.0415     C
C      0.91467  0.41197  0.10425     C
C      0.92631  0.65527  0.59984     C
H       0.9354   0.0286   0.1875     H
H       0.9553   0.4285   0.8895     H
C      0.95687   0.5467  0.09272     C
O      0.96622  0.34439  0.42759     O
O      0.96956  0.18233  0.94478     O
H       0.9755   0.3457   0.1307     H
C      0.98981  0.16565  0.28582     C
C      0.99284  0.91898  0.78552     C
