data_I
_chemical_name_common  '/home/zhangsd/repos/MofS-CGCNN/ML/data/TSD/clean_cifs/XUWSUD_clean'
_cell_length_a 10.03900
_cell_length_b 17.38850
_cell_length_c 16.73560
_cell_angle_alpha 90.00000
_cell_angle_beta  90.00000
_cell_angle_gamma 90.00000
_space_group_name_H-M_alt      'P 1'


loop_
_space_group_symop_operation_xyz
  'x, y, z' 

loop_
_atom_site_label
_atom_site_fract_x
_atom_site_fract_y
_atom_site_fract_z
_atom_site_type_symbol
Ga         0.0   0.1571     0.75    Ga
Mn         0.0   0.4592     0.75    Mn
Mn         0.0   0.5408     0.25    Mn
Ga         0.0   0.8429     0.25    Ga
O       0.0163   0.2234   0.6657     O
O       0.0163   0.7766   0.3343     O
P       0.0201   0.1994   0.5758     P
P       0.0201   0.8006   0.4242     P
O       0.0655   0.1131   0.5748     O
O       0.0655   0.8869   0.4252     O
O       0.0659    0.436    0.868     O
O       0.0659    0.564    0.132     O
O       0.1188   0.2023   0.9598     O
O       0.1188   0.7977   0.0402     O
O       0.1209   0.2497   0.5344     O
O       0.1209   0.7503   0.4656     O
O       0.1375   0.0893   0.7593     O
O       0.1375   0.9107   0.2407     O
O        0.138   0.4585   0.2927     O
O        0.138   0.5415   0.7073     O
O       0.1569   0.3967   0.9989     O
O       0.1569   0.6033   0.0011     O
O       0.1729   0.3803   0.1676     O
O       0.1729   0.6197   0.8324     O
O       0.1864   0.3145   0.2982     O
O       0.1864   0.6855   0.7018     O
Mn      0.1887   0.2703   0.4167    Mn
Mn      0.1887   0.7297   0.5833    Mn
P       0.1908   0.4104   0.9093     P
P       0.1908   0.5896   0.0907     P
O        0.203   0.0241   0.4082     O
O        0.203   0.9759   0.5918     O
P        0.211   0.3902   0.2577     P
P        0.211   0.6098   0.7423     P
Ga      0.2353   0.0785   0.5833    Ga
Ga      0.2353   0.9215   0.4167    Ga
O       0.2439     0.16   0.3732     O
O       0.2439     0.84   0.6268     O
O       0.2561     0.34   0.8732     O
O       0.2561     0.66   0.1268     O
Ga      0.2647   0.4215   0.0833    Ga
Ga      0.2647   0.5785   0.9167    Ga
P        0.289   0.1098   0.7577     P
P        0.289   0.8902   0.2423     P
O        0.297   0.4759   0.9082     O
O        0.297   0.5241   0.0918     O
P       0.3092   0.0896   0.4093     P
P       0.3092   0.9104   0.5907     P
Mn      0.3113   0.2297   0.9167    Mn
Mn      0.3113   0.7703   0.0833    Mn
O       0.3136   0.1855   0.7982     O
O       0.3136   0.8145   0.2018     O
O       0.3271   0.1197   0.6676     O
O       0.3271   0.8803   0.3324     O
O       0.3431   0.1033   0.4989     O
O       0.3431   0.8967   0.5011     O
O        0.362   0.0415   0.7927     O
O        0.362   0.9585   0.2073     O
O       0.3625   0.4107   0.2593     O
O       0.3625   0.5893   0.7407     O
O       0.3791   0.2503   0.0344     O
O       0.3791   0.7497   0.9656     O
O       0.3812   0.2977   0.4598     O
O       0.3812   0.7023   0.5402     O
O       0.4341    0.064    0.368     O
O       0.4341    0.936    0.632     O
O       0.4345   0.3869   0.0748     O
O       0.4345   0.6131   0.9252     O
P       0.4799   0.3006   0.0758     P
P       0.4799   0.6994   0.9242     P
O       0.4837   0.2766   0.1657     O
O       0.4837   0.7234   0.8343     O
Mn         0.5   0.0408     0.25    Mn
Ga         0.5   0.3429     0.25    Ga
Ga         0.5   0.6571     0.75    Ga
Mn         0.5   0.9592     0.75    Mn
O       0.5163   0.2766   0.3343     O
O       0.5163   0.7234   0.6657     O
P       0.5201   0.3006   0.4242     P
P       0.5201   0.6994   0.5758     P
O       0.5655   0.3869   0.4252     O
O       0.5655   0.6131   0.5748     O
O       0.5659    0.064    0.132     O
O       0.5659    0.936    0.868     O
O       0.6188   0.2977   0.0402     O
O       0.6188   0.7023   0.9598     O
O       0.6209   0.2503   0.4656     O
O       0.6209   0.7497   0.5344     O
O       0.6375   0.4107   0.2407     O
O       0.6375   0.5893   0.7593     O
O        0.638   0.0415   0.7073     O
O        0.638   0.9585   0.2927     O
O       0.6569   0.1033   0.0011     O
O       0.6569   0.8967   0.9989     O
O       0.6729   0.1197   0.8324     O
O       0.6729   0.8803   0.1676     O
O       0.6864   0.1855   0.7018     O
O       0.6864   0.8145   0.2982     O
Mn      0.6887   0.2297   0.5833    Mn
Mn      0.6887   0.7703   0.4167    Mn
P       0.6908   0.0896   0.0907     P
P       0.6908   0.9104   0.9093     P
O        0.703   0.4759   0.5918     O
O        0.703   0.5241   0.4082     O
P        0.711   0.1098   0.7423     P
P        0.711   0.8902   0.2577     P
Ga      0.7353   0.4215   0.4167    Ga
Ga      0.7353   0.5785   0.5833    Ga
O       0.7439     0.34   0.6268     O
O       0.7439     0.66   0.3732     O
O       0.7561     0.16   0.1268     O
O       0.7561     0.84   0.8732     O
Ga      0.7647   0.0785   0.9167    Ga
Ga      0.7647   0.9215   0.0833    Ga
P        0.789   0.3902   0.2423     P
P        0.789   0.6098   0.7577     P
O        0.797   0.0241   0.0918     O
O        0.797   0.9759   0.9082     O
P       0.8092   0.4104   0.5907     P
P       0.8092   0.5896   0.4093     P
Mn      0.8113   0.2703   0.0833    Mn
Mn      0.8113   0.7297   0.9167    Mn
O       0.8136   0.3145   0.2018     O
O       0.8136   0.6855   0.7982     O
O       0.8271   0.3803   0.3324     O
O       0.8271   0.6197   0.6676     O
O       0.8431   0.3967   0.5011     O
O       0.8431   0.6033   0.4989     O
O        0.862   0.4585   0.2073     O
O        0.862   0.5415   0.7927     O
O       0.8625   0.0893   0.7407     O
O       0.8625   0.9107   0.2593     O
O       0.8791   0.2497   0.9656     O
O       0.8791   0.7503   0.0344     O
O       0.8812   0.2023   0.5402     O
O       0.8812   0.7977   0.4598     O
O       0.9341    0.436    0.632     O
O       0.9341    0.564    0.368     O
O       0.9345   0.1131   0.9252     O
O       0.9345   0.8869   0.0748     O
P       0.9799   0.1994   0.9242     P
P       0.9799   0.8006   0.0758     P
O       0.9837   0.2234   0.8343     O
O       0.9837   0.7766   0.1657     O
