data_I
_chemical_name_common  '/home/zhangsd/repos/MofS-CGCNN/ML/data/TSD/clean_cifs/XUWTAK_clean'
_cell_length_a 10.03900
_cell_length_b 17.40100
_cell_length_c 16.50300
_cell_angle_alpha 90.00000
_cell_angle_beta  90.00000
_cell_angle_gamma 90.00000
_space_group_name_H-M_alt      'P 1'


loop_
_space_group_symop_operation_xyz
  'x, y, z' 

loop_
_atom_site_label
_atom_site_fract_x
_atom_site_fract_y
_atom_site_fract_z
_atom_site_type_symbol
Ga         0.0   0.1598     0.75    Ga
Mn         0.0   0.4649     0.75    Mn
Mn         0.0   0.5351     0.25    Mn
Ga         0.0   0.8402     0.25    Ga
O       0.0198   0.2256   0.6636     O
O       0.0198   0.7744   0.3364     O
P       0.0214   0.2002   0.5735     P
P       0.0214   0.7998   0.4265     P
O       0.0636   0.4321   0.8627     O
O       0.0636   0.5679   0.1373     O
O       0.0705   0.1149   0.5728     O
O       0.0705   0.8851   0.4272     O
O       0.1181   0.2527   0.5321     O
O       0.1181   0.7473   0.4679     O
O       0.1195   0.2011   0.9602     O
O       0.1195   0.7989   0.0398     O
O       0.1358   0.0942   0.7604     O
O       0.1358   0.9058   0.2396     O
O       0.1398   0.4574   0.2943     O
O       0.1398   0.5426   0.7057     O
O       0.1527   0.3974   0.9972     O
O       0.1527   0.6026   0.0028     O
O       0.1708   0.3775   0.1696     O
O       0.1708   0.6225   0.8304     O
O       0.1798   0.3155   0.3023     O
O       0.1798   0.6845   0.6977     O
P       0.1886   0.4107   0.9067     P
P       0.1886   0.5893   0.0933     P
Mn      0.1966   0.2673   0.4165    Mn
Mn      0.1966   0.7327   0.5835    Mn
O       0.2071   0.0213   0.4048     O
O       0.2071   0.9787   0.5952     O
P       0.2101    0.389     0.26     P
P       0.2101    0.611     0.74     P
Ga      0.2393   0.0799   0.5833    Ga
Ga      0.2393   0.9201   0.4167    Ga
O       0.2437   0.1591   0.3709     O
O       0.2437   0.8409   0.6291     O
O       0.2563   0.3409   0.8709     O
O       0.2563   0.6591   0.1291     O
Ga      0.2607   0.4201   0.0833    Ga
Ga      0.2607   0.5799   0.9167    Ga
P       0.2899    0.111     0.76     P
P       0.2899    0.889     0.24     P
O       0.2929   0.4787   0.9048     O
O       0.2929   0.5213   0.0952     O
Mn      0.3034   0.2327   0.9165    Mn
Mn      0.3034   0.7673   0.0835    Mn
P       0.3114   0.0893   0.4067     P
P       0.3114   0.9107   0.5933     P
O       0.3202   0.1845   0.8023     O
O       0.3202   0.8155   0.1977     O
O       0.3292   0.1225   0.6696     O
O       0.3292   0.8775   0.3304     O
O       0.3473   0.1026   0.4972     O
O       0.3473   0.8974   0.5028     O
O       0.3602   0.0426   0.7943     O
O       0.3602   0.9574   0.2057     O
O       0.3642   0.4058   0.2604     O
O       0.3642   0.5942   0.7396     O
O       0.3805   0.2989   0.4602     O
O       0.3805   0.7011   0.5398     O
O       0.3819   0.2473   0.0321     O
O       0.3819   0.7527   0.9679     O
O       0.4295   0.3851   0.0728     O
O       0.4295   0.6149   0.9272     O
O       0.4364   0.0679   0.3627     O
O       0.4364   0.9321   0.6373     O
P       0.4786   0.2998   0.0735     P
P       0.4786   0.7002   0.9265     P
O       0.4802   0.2744   0.1636     O
O       0.4802   0.7256   0.8364     O
Mn         0.5   0.0351     0.25    Mn
Ga         0.5   0.3402     0.25    Ga
Ga         0.5   0.6598     0.75    Ga
Mn         0.5   0.9649     0.75    Mn
O       0.5198   0.2744   0.3364     O
O       0.5198   0.7256   0.6636     O
P       0.5214   0.2998   0.4265     P
P       0.5214   0.7002   0.5735     P
O       0.5636   0.0679   0.1373     O
O       0.5636   0.9321   0.8627     O
O       0.5705   0.3851   0.4272     O
O       0.5705   0.6149   0.5728     O
O       0.6181   0.2473   0.4679     O
O       0.6181   0.7527   0.5321     O
O       0.6195   0.2989   0.0398     O
O       0.6195   0.7011   0.9602     O
O       0.6358   0.4058   0.2396     O
O       0.6358   0.5942   0.7604     O
O       0.6398   0.0426   0.7057     O
O       0.6398   0.9574   0.2943     O
O       0.6527   0.1026   0.0028     O
O       0.6527   0.8974   0.9972     O
O       0.6708   0.1225   0.8304     O
O       0.6708   0.8775   0.1696     O
O       0.6798   0.1845   0.6977     O
O       0.6798   0.8155   0.3023     O
P       0.6886   0.0893   0.0933     P
P       0.6886   0.9107   0.9067     P
Mn      0.6966   0.2327   0.5835    Mn
Mn      0.6966   0.7673   0.4165    Mn
O       0.7071   0.4787   0.5952     O
O       0.7071   0.5213   0.4048     O
P       0.7101    0.111     0.74     P
P       0.7101    0.889     0.26     P
Ga      0.7393   0.4201   0.4167    Ga
Ga      0.7393   0.5799   0.5833    Ga
O       0.7437   0.3409   0.6291     O
O       0.7437   0.6591   0.3709     O
O       0.7563   0.1591   0.1291     O
O       0.7563   0.8409   0.8709     O
Ga      0.7607   0.0799   0.9167    Ga
Ga      0.7607   0.9201   0.0833    Ga
P       0.7899    0.389     0.24     P
P       0.7899    0.611     0.76     P
O       0.7929   0.0213   0.0952     O
O       0.7929   0.9787   0.9048     O
Mn      0.8034   0.2673   0.0835    Mn
Mn      0.8034   0.7327   0.9165    Mn
P       0.8114   0.4107   0.5933     P
P       0.8114   0.5893   0.4067     P
O       0.8202   0.3155   0.1977     O
O       0.8202   0.6845   0.8023     O
O       0.8292   0.3775   0.3304     O
O       0.8292   0.6225   0.6696     O
O       0.8473   0.3974   0.5028     O
O       0.8473   0.6026   0.4972     O
O       0.8602   0.4574   0.2057     O
O       0.8602   0.5426   0.7943     O
O       0.8642   0.0942   0.7396     O
O       0.8642   0.9058   0.2604     O
O       0.8805   0.2011   0.5398     O
O       0.8805   0.7989   0.4602     O
O       0.8819   0.2527   0.9679     O
O       0.8819   0.7473   0.0321     O
O       0.9295   0.1149   0.9272     O
O       0.9295   0.8851   0.0728     O
O       0.9364   0.4321   0.6373     O
O       0.9364   0.5679   0.3627     O
P       0.9786   0.2002   0.9265     P
P       0.9786   0.7998   0.0735     P
O       0.9802   0.2256   0.8364     O
O       0.9802   0.7744   0.1636     O
