data_I
_chemical_name_common  '/home/zhangsd/repos/MofS-CGCNN/ML/data/TSD/clean_cifs/YAJXUF_clean'
_cell_length_a 17.43010
_cell_length_b 26.27000
_cell_length_c 15.45960
_cell_angle_alpha 90.00000
_cell_angle_beta  113.49800
_cell_angle_gamma 90.00000
_space_group_name_H-M_alt      'P 1'


loop_
_space_group_symop_operation_xyz
  'x, y, z' 

loop_
_atom_site_label
_atom_site_fract_x
_atom_site_fract_y
_atom_site_fract_z
_atom_site_type_symbol
C       0.0071  0.12077   0.4069     C
C       0.0071  0.87923   0.9069     C
C       0.0103   0.1761   0.0819     C
C       0.0103   0.8239   0.5819     C
C       0.0283  0.07449   0.8816     C
C       0.0283  0.92551   0.3816     C
H       0.0295   0.0706   0.6428     H
H       0.0295   0.9294   0.1428     H
H       0.0309   0.1523   0.8836     H
H       0.0309   0.8477   0.3836     H
C       0.0337    0.034   0.1333     C
C       0.0337    0.966   0.6333     C
O       0.0451  0.20675   0.4359     O
O       0.0451  0.79325   0.9359     O
C       0.0492  0.02066   0.4002     C
C       0.0492  0.97934   0.9002     C
C       0.0561   0.0847   0.1301     C
C       0.0561   0.9153   0.6301     C
C       0.0643  0.12336   0.8957     C
C       0.0643  0.87664   0.3957     C
H       0.0644   0.2905   0.3553     H
H       0.0644   0.7095   0.8553     H
H       0.0747   0.3294   0.4944     H
H       0.0747   0.6706   0.9944     H
H       0.0749   0.0092    0.158     H
H       0.0749   0.9908    0.658     H
C       0.0797  0.03277   0.9043     C
C       0.0797  0.96723   0.4043     C
O       0.0853  0.18586    0.095     O
O       0.0853  0.81414    0.595     O
C       0.0888  0.10457   0.4392     C
C       0.0888  0.89543   0.9392     C
C       0.0985   0.3188   0.3778     C
C       0.0985   0.6812   0.8778     C
O       0.1035  0.27158   0.2144     O
O       0.1035  0.72842   0.7144     O
C       0.1054   0.3415   0.4614     C
C       0.1054   0.6585   0.9614     C
N       0.1101  0.05615   0.4365     N
N       0.1101  0.94385   0.9365     N
H        0.112   0.0942   0.1523     H
H        0.112   0.9058   0.6523     H
H       0.1178   0.3583   0.6412     H
H       0.1178   0.6417   0.1412     H
H       0.1311   0.1286   0.4641     H
H       0.1311   0.8714   0.9641     H
C       0.1415   0.3135    0.241     C
C       0.1415   0.6865    0.741     C
C       0.1421  0.33803   0.3281     C
C       0.1421  0.66197   0.8281     C
C       0.1481   0.3885   0.6522     C
C       0.1481   0.6115   0.1522     C
C       0.1492  0.12742   0.9274     C
C       0.1492  0.87258   0.4274     C
U      0.14958  0.26209  0.08417     U
U      0.14958  0.73791  0.58417     U
O       0.1515  0.21646   0.9542     O
O       0.1515  0.78354   0.4542     O
H       0.1522   0.4015   0.7822     H
H       0.1522   0.5985   0.2822     H
C       0.1587   0.3822   0.4946     C
C       0.1587   0.6178   0.9946     C
N       0.1636  0.03793   0.9359     N
N       0.1636  0.96207   0.4359     N
C       0.1679   0.4147   0.7358     C
C       0.1679   0.5853   0.2358     C
C       0.1741   0.4078   0.5854     C
C       0.1741   0.5922   0.0854     C
O       0.1777  0.33434   0.1948     O
O       0.1777  0.66566   0.6948     O
C       0.1923  0.17838   0.9474     C
C       0.1923  0.82162   0.4474     C
O       0.1928  0.48262    0.891     O
O       0.1928  0.51738    0.391     O
C       0.1929  0.38013    0.365     C
C       0.1929  0.61987    0.865     C
C       0.1972  0.08374   0.9466     C
C       0.1972  0.91626   0.4466     C
N       0.2011  0.40204   0.4463     N
N       0.2011  0.59796   0.9463     N
O       0.2076  0.02005    0.639     O
O       0.2076  0.97995    0.139     O
C       0.2097   0.4593    0.751     C
C       0.2097   0.5407    0.251     C
N       0.2156  0.45228   0.5992     N
N       0.2156  0.54772   0.0992     N
H       0.2225   0.3936   0.3318     H
H       0.2225   0.6064   0.8318     H
C       0.2324   0.4896     0.84     C
C       0.2324   0.5104     0.34     C
O       0.2325  0.32075    0.043     O
O       0.2325  0.67925    0.543     O
C       0.2327  0.47731   0.6804     C
C       0.2327  0.52269   0.1804     C
Zn     0.23401  0.03001  0.49936    Zn
Zn     0.23401  0.96999  0.99936    Zn
H       0.2388   0.0081   0.8103     H
H       0.2388   0.9919   0.3103     H
H        0.245   0.4133   0.0323     H
H        0.245   0.5867   0.5323     H
H        0.255   0.0867   0.9677     H
H        0.255   0.9133   0.4677     H
H       0.2612   0.4919   0.1897     H
H       0.2612   0.5081   0.6897     H
Zn     0.26599  0.46999  0.50064    Zn
Zn     0.26599  0.53001  0.00064    Zn
C       0.2673  0.02269   0.3196     C
C       0.2673  0.97731   0.8196     C
O       0.2675  0.17925    0.957     O
O       0.2675  0.82075    0.457     O
C       0.2676   0.0104     0.16     C
C       0.2676   0.9896     0.66     C
H       0.2775   0.1064   0.6682     H
H       0.2775   0.8936   0.1682     H
N       0.2844  0.04772   0.4008     N
N       0.2844  0.95228   0.9008     N
C       0.2903   0.0407    0.249     C
C       0.2903   0.9593    0.749     C
O       0.2924  0.47995    0.361     O
O       0.2924  0.52005    0.861     O
N       0.2989  0.09796   0.5537     N
N       0.2989  0.90204   0.0537     N
C       0.3028  0.41626   0.0534     C
C       0.3028  0.58374   0.5534     C
C       0.3071  0.11987    0.635     C
C       0.3071  0.88013    0.135     C
O       0.3072  0.01738    0.109     O
O       0.3072  0.98262    0.609     O
C       0.3077  0.32162   0.0526     C
C       0.3077  0.67838   0.5526     C
O       0.3223  0.16566   0.8052     O
O       0.3223  0.83434   0.3052     O
C       0.3259   0.0922   0.4146     C
C       0.3259   0.9078   0.9146     C
C       0.3321   0.0853   0.2642     C
C       0.3321   0.9147   0.7642     C
N       0.3364  0.46207   0.0641     N
N       0.3364  0.53793   0.5641     N
C       0.3413   0.1178   0.5054     C
C       0.3413   0.8822   0.0054     C
H       0.3478   0.0985   0.2178     H
H       0.3478   0.9015   0.7178     H
O       0.3485  0.28354   0.0458     O
O       0.3485  0.71646   0.5458     O
U      0.35042  0.23791  0.91583     U
U      0.35042  0.76209  0.41583     U
C       0.3508  0.37258   0.0726     C
C       0.3508  0.62742   0.5726     C
C       0.3519   0.1115   0.3478     C
C       0.3519   0.8885   0.8478     C
C       0.3579  0.16197   0.6719     C
C       0.3579  0.83803   0.1719     C
C       0.3585   0.1865    0.759     C
C       0.3585   0.8135    0.259     C
H       0.3689   0.3714   0.5359     H
H       0.3689   0.6286   0.0359     H
H       0.3822   0.1417   0.3588     H
H       0.3822   0.8583   0.8588     H
H        0.388   0.4058   0.8477     H
H        0.388   0.5942   0.3477     H
N       0.3899  0.44385   0.5635     N
N       0.3899  0.55615   0.0635     N
C       0.3946   0.1585   0.5386     C
C       0.3946   0.8415   0.0386     C
O       0.3965  0.22842   0.7856     O
O       0.3965  0.77158   0.2856     O
C       0.4015   0.1812   0.6222     C
C       0.4015   0.8188   0.1222     C
C       0.4112  0.39543   0.5608     C
C       0.4112  0.60457   0.0608     C
O       0.4147  0.31414    0.905     O
O       0.4147  0.68586    0.405     O
C       0.4203  0.46723   0.0957     C
C       0.4203  0.53277   0.5957     C
H       0.4251   0.4908    0.842     H
H       0.4251   0.5092    0.342     H
H       0.4253   0.1706   0.5056     H
H       0.4253   0.8294   0.0056     H
H       0.4356   0.2095   0.6447     H
H       0.4356   0.7905   0.1447     H
C       0.4357  0.37664   0.1043     C
C       0.4357  0.62336   0.6043     C
C       0.4439   0.4153   0.8699     C
C       0.4439   0.5847   0.3699     C
C       0.4508  0.47934   0.5998     C
C       0.4508  0.52066   0.0998     C
O       0.4549  0.29325   0.5641     O
O       0.4549  0.70675   0.0641     O
C       0.4663    0.466   0.8667     C
C       0.4663    0.534   0.3667     C
H       0.4691   0.3477   0.1164     H
H       0.4691   0.6523   0.6164     H
H       0.4705   0.4294   0.3572     H
H       0.4705   0.5706   0.8572     H
C       0.4717  0.42551   0.1184     C
C       0.4717  0.57449   0.6184     C
C       0.4897   0.3239   0.9181     C
C       0.4897   0.6761   0.4181     C
C       0.4929  0.37923   0.5931     C
C       0.4929  0.62077   0.0931     C
C       0.5071  0.37923   0.9069     C
C       0.5071  0.62077   0.4069     C
C       0.5103   0.3239   0.5819     C
C       0.5103   0.6761   0.0819     C
C       0.5283  0.42551   0.3816     C
C       0.5283  0.57449   0.8816     C
H       0.5295   0.4294   0.1428     H
H       0.5295   0.5706   0.6428     H
H       0.5309   0.3477   0.3836     H
H       0.5309   0.6523   0.8836     H
C       0.5337    0.466   0.6333     C
C       0.5337    0.534   0.1333     C
O       0.5451  0.29325   0.9359     O
O       0.5451  0.70675   0.4359     O
C       0.5492  0.47934   0.9002     C
C       0.5492  0.52066   0.4002     C
C       0.5561   0.4153   0.6301     C
C       0.5561   0.5847   0.1301     C
C       0.5643  0.37664   0.3957     C
C       0.5643  0.62336   0.8957     C
H       0.5644   0.2095   0.8553     H
H       0.5644   0.7905   0.3553     H
H       0.5747   0.1706   0.9944     H
H       0.5747   0.8294   0.4944     H
H       0.5749   0.4908    0.658     H
H       0.5749   0.5092    0.158     H
C       0.5797  0.46723   0.4043     C
C       0.5797  0.53277   0.9043     C
O       0.5853  0.31414    0.595     O
O       0.5853  0.68586    0.095     O
C       0.5888  0.39543   0.9392     C
C       0.5888  0.60457   0.4392     C
C       0.5985   0.1812   0.8778     C
C       0.5985   0.8188   0.3778     C
O       0.6035  0.22842   0.7144     O
O       0.6035  0.77158   0.2144     O
C       0.6054   0.1585   0.9614     C
C       0.6054   0.8415   0.4614     C
N       0.6101  0.44385   0.9365     N
N       0.6101  0.55615   0.4365     N
H        0.612   0.4058   0.6523     H
H        0.612   0.5942   0.1523     H
H       0.6178   0.1417   0.1412     H
H       0.6178   0.8583   0.6412     H
H       0.6311   0.3714   0.9641     H
H       0.6311   0.6286   0.4641     H
C       0.6415   0.1865    0.741     C
C       0.6415   0.8135    0.241     C
C       0.6421  0.16197   0.8281     C
C       0.6421  0.83803   0.3281     C
C       0.6481   0.1115   0.1522     C
C       0.6481   0.8885   0.6522     C
C       0.6492  0.37258   0.4274     C
C       0.6492  0.62742   0.9274     C
U      0.64958  0.23791  0.58417     U
U      0.64958  0.76209  0.08417     U
O       0.6515  0.28354   0.4542     O
O       0.6515  0.71646   0.9542     O
H       0.6522   0.0985   0.2822     H
H       0.6522   0.9015   0.7822     H
C       0.6587   0.1178   0.9946     C
C       0.6587   0.8822   0.4946     C
N       0.6636  0.46207   0.4359     N
N       0.6636  0.53793   0.9359     N
C       0.6679   0.0853   0.2358     C
C       0.6679   0.9147   0.7358     C
C       0.6741   0.0922   0.0854     C
C       0.6741   0.9078   0.5854     C
O       0.6777  0.16566   0.6948     O
O       0.6777  0.83434   0.1948     O
C       0.6923  0.32162   0.4474     C
C       0.6923  0.67838   0.9474     C
O       0.6928  0.01738    0.391     O
O       0.6928  0.98262    0.891     O
C       0.6929  0.11987    0.865     C
C       0.6929  0.88013    0.365     C
C       0.6972  0.41626   0.4466     C
C       0.6972  0.58374   0.9466     C
N       0.7011  0.09796   0.9463     N
N       0.7011  0.90204   0.4463     N
O       0.7076  0.47995    0.139     O
O       0.7076  0.52005    0.639     O
C       0.7097   0.0407    0.251     C
C       0.7097   0.9593    0.751     C
N       0.7156  0.04772   0.0992     N
N       0.7156  0.95228   0.5992     N
H       0.7225   0.1064   0.8318     H
H       0.7225   0.8936   0.3318     H
C       0.7324   0.0104     0.34     C
C       0.7324   0.9896     0.84     C
O       0.7325  0.17925    0.543     O
O       0.7325  0.82075    0.043     O
C       0.7327  0.02269   0.1804     C
C       0.7327  0.97731   0.6804     C
Zn     0.73401  0.46999  0.99936    Zn
Zn     0.73401  0.53001  0.49936    Zn
H       0.7388   0.4919   0.3103     H
H       0.7388   0.5081   0.8103     H
H        0.745   0.0867   0.5323     H
H        0.745   0.9133   0.0323     H
H        0.755   0.4133   0.4677     H
H        0.755   0.5867   0.9677     H
H       0.7612   0.0081   0.6897     H
H       0.7612   0.9919   0.1897     H
Zn     0.76599  0.03001  0.00064    Zn
Zn     0.76599  0.96999  0.50064    Zn
C       0.7673  0.47731   0.8196     C
C       0.7673  0.52269   0.3196     C
O       0.7675  0.32075    0.457     O
O       0.7675  0.67925    0.957     O
C       0.7676   0.4896     0.66     C
C       0.7676   0.5104     0.16     C
H       0.7775   0.3936   0.1682     H
H       0.7775   0.6064   0.6682     H
N       0.7844  0.45228   0.9008     N
N       0.7844  0.54772   0.4008     N
C       0.7903   0.4593    0.749     C
C       0.7903   0.5407    0.249     C
O       0.7924  0.02005    0.861     O
O       0.7924  0.97995    0.361     O
N       0.7989  0.40204   0.0537     N
N       0.7989  0.59796   0.5537     N
C       0.8028  0.08374   0.5534     C
C       0.8028  0.91626   0.0534     C
C       0.8071  0.38013    0.135     C
C       0.8071  0.61987    0.635     C
O       0.8072  0.48262    0.609     O
O       0.8072  0.51738    0.109     O
C       0.8077  0.17838   0.5526     C
C       0.8077  0.82162   0.0526     C
O       0.8223  0.33434   0.3052     O
O       0.8223  0.66566   0.8052     O
C       0.8259   0.4078   0.9146     C
C       0.8259   0.5922   0.4146     C
C       0.8321   0.4147   0.7642     C
C       0.8321   0.5853   0.2642     C
N       0.8364  0.03793   0.5641     N
N       0.8364  0.96207   0.0641     N
C       0.8413   0.3822   0.0054     C
C       0.8413   0.6178   0.5054     C
H       0.8478   0.4015   0.7178     H
H       0.8478   0.5985   0.2178     H
O       0.8485  0.21646   0.5458     O
O       0.8485  0.78354   0.0458     O
U      0.85042  0.26209  0.41583     U
U      0.85042  0.73791  0.91583     U
C       0.8508  0.12742   0.5726     C
C       0.8508  0.87258   0.0726     C
C       0.8519   0.3885   0.8478     C
C       0.8519   0.6115   0.3478     C
C       0.8579  0.33803   0.1719     C
C       0.8579  0.66197   0.6719     C
C       0.8585   0.3135    0.259     C
C       0.8585   0.6865    0.759     C
H       0.8689   0.1286   0.0359     H
H       0.8689   0.8714   0.5359     H
H       0.8822   0.3583   0.8588     H
H       0.8822   0.6417   0.3588     H
H        0.888   0.0942   0.3477     H
H        0.888   0.9058   0.8477     H
N       0.8899  0.05615   0.0635     N
N       0.8899  0.94385   0.5635     N
C       0.8946   0.3415   0.0386     C
C       0.8946   0.6585   0.5386     C
O       0.8965  0.27158   0.2856     O
O       0.8965  0.72842   0.7856     O
C       0.9015   0.3188   0.1222     C
C       0.9015   0.6812   0.6222     C
C       0.9112  0.10457   0.0608     C
C       0.9112  0.89543   0.5608     C
O       0.9147  0.18586    0.405     O
O       0.9147  0.81414    0.905     O
C       0.9203  0.03277   0.5957     C
C       0.9203  0.96723   0.0957     C
H       0.9251   0.0092    0.342     H
H       0.9251   0.9908    0.842     H
H       0.9253   0.3294   0.0056     H
H       0.9253   0.6706   0.5056     H
H       0.9356   0.2905   0.1447     H
H       0.9356   0.7095   0.6447     H
C       0.9357  0.12336   0.6043     C
C       0.9357  0.87664   0.1043     C
C       0.9439   0.0847   0.3699     C
C       0.9439   0.9153   0.8699     C
C       0.9508  0.02066   0.0998     C
C       0.9508  0.97934   0.5998     C
O       0.9549  0.20675   0.0641     O
O       0.9549  0.79325   0.5641     O
C       0.9663    0.034   0.3667     C
C       0.9663    0.966   0.8667     C
H       0.9691   0.1523   0.6164     H
H       0.9691   0.8477   0.1164     H
H       0.9705   0.0706   0.8572     H
H       0.9705   0.9294   0.3572     H
C       0.9717  0.07449   0.6184     C
C       0.9717  0.92551   0.1184     C
C       0.9897   0.1761   0.4181     C
C       0.9897   0.8239   0.9181     C
C       0.9929  0.12077   0.0931     C
C       0.9929  0.87923   0.5931     C
