data_I
_chemical_name_common  '/home/zhangsd/repos/MofS-CGCNN/ML/data/TSD/clean_cifs/YARDEC_clean'
_cell_length_a 11.54800
_cell_length_b 11.79730
_cell_length_c 14.06170
_cell_angle_alpha 112.92400
_cell_angle_beta  90.00000
_cell_angle_gamma 119.30300
_space_group_name_H-M_alt      'P 1'


loop_
_space_group_symop_operation_xyz
  'x, y, z' 

loop_
_atom_site_label
_atom_site_fract_x
_atom_site_fract_y
_atom_site_fract_z
_atom_site_type_symbol
Zn     0.01175      0.0     0.75    Zn
C       0.0138   0.8324  0.35552     C
C      0.02846  0.39446  0.44018     C
O      0.04745   0.8433  0.68611     O
H        0.055   0.8386   0.0346     H
C      0.05701  0.27842  0.37899     C
H       0.0586   0.2558   0.6958     H
N      0.06142  0.96592  0.35749     N
H       0.0774   0.7764   0.4564     H
C      0.08822  0.84924   0.4395     C
N       0.0955  0.03408  0.14251     N
C       0.0964   0.6221  0.58923     C
C      0.10275  0.93826  0.05625     C
C      0.12419  0.51742  0.52966     C
O      0.12892  0.30328  0.89464     O
H       0.1613    0.704   0.6493     H
C      0.16449  0.06174  0.44375     C
H       0.1686    0.833   0.8785     H
O      0.17436  0.30328  0.39464     O
C       0.1814   0.1676  0.14448     C
N      0.18293  0.99504  0.49471     N
N      0.18789  0.00496  0.00529     N
H       0.1972   0.2558   0.1958     H
O      0.20415   0.1567  0.81389     O
H       0.2078   0.5296   0.5498     H
H       0.2164   0.1614   0.4654     H
C      0.22141  0.27842  0.87899     C
C       0.2341  0.93696   0.9148     C
C      0.23898  0.15076   0.0605     C
H       0.2408   0.9764   0.8646     H
H       0.2644   0.0236   0.6354     H
C      0.29714  0.06304   0.5852     C
H        0.301   0.2236   0.0436     H
H       0.3019   0.7994    0.993     H
H       0.3218   0.5296   0.0498     H
H       0.3356    0.167   0.6215     H
H       0.3421   0.8548   0.5662     H
C        0.366  0.39446  0.94018     C
C      0.37266   0.9667  0.95525     C
C      0.38113  0.88006   0.9955     C
C      0.39323  0.51742  0.02966     C
C      0.40578  0.91376   0.5396     C
C      0.40596   0.0333  0.54475     C
H       0.4573    0.296   0.8507     H
C       0.4743   0.3779  0.91077     C
H       0.4873   0.1452   0.9338     H
C      0.49202  0.08624   0.9604     C
H       0.4975   0.7994    0.493     H
C      0.49893  0.88006   0.4955     C
C      0.50107  0.11994   0.5045     C
H       0.5025   0.2006    0.507     H
C      0.50798  0.91376   0.0396     C
H       0.5127   0.8548   0.0662     H
C       0.5257   0.6221  0.08923     C
H       0.5427    0.704   0.1493     H
C      0.59404   0.9667  0.45525     C
C      0.59422  0.08624   0.4604     C
C      0.60677  0.48258  0.97034     C
C      0.61887  0.11994   0.0045     C
C      0.62734   0.0333  0.04475     C
C        0.634  0.60554  0.05982     C
H       0.6579   0.1452   0.4338     H
H       0.6644    0.833   0.3785     H
H       0.6782   0.4704   0.9502     H
H       0.6981   0.2006    0.007     H
H        0.699   0.7764   0.9564     H
C      0.70286  0.93696   0.4148     C
H       0.7356   0.9764   0.3646     H
H       0.7592   0.0236   0.1354     H
C      0.76102  0.84924   0.9395     C
C       0.7659  0.06304   0.0852     C
C      0.77859  0.72158  0.12101     C
H       0.7836   0.8386   0.5346     H
H       0.7922   0.4704   0.4502     H
O      0.79585   0.8433  0.18611     O
H       0.8028   0.7442   0.8042     H
N      0.81211  0.99504  0.99471     N
N      0.81707  0.00496  0.50529     N
C       0.8186   0.8324  0.85552     C
O      0.82564  0.69672  0.60536     O
H       0.8314    0.167   0.1215     H
C      0.83551  0.93826  0.55625     C
H       0.8387    0.296   0.3507     H
O      0.87108  0.69672  0.10536     O
C      0.87581  0.48258  0.47034     C
C      0.89725  0.06174  0.94375     C
C       0.9036   0.3779  0.41077     C
N       0.9045  0.96592  0.85749     N
C      0.91178  0.15076   0.5605     C
H       0.9226   0.2236   0.5436     H
N      0.93858  0.03408  0.64251     N
H       0.9414   0.7442   0.3042     H
C      0.94299  0.72158  0.62101     C
H        0.945   0.1614   0.9654     H
O      0.95255   0.1567  0.31389     O
C      0.97154  0.60554  0.55982     C
C       0.9862   0.1676  0.64448     C
Zn     0.98825      0.0     0.25    Zn
