data_I
_chemical_name_common  '/home/zhangsd/repos/MofS-CGCNN/ML/data/TSD/clean_cifs/YARGAB_clean'
_cell_length_a 15.57800
_cell_length_b 15.57800
_cell_length_c 16.52100
_cell_angle_alpha 90.00000
_cell_angle_beta  90.00000
_cell_angle_gamma 120.00000
_space_group_name_H-M_alt      'P 1'


loop_
_space_group_symop_operation_xyz
  'x, y, z' 

loop_
_atom_site_label
_atom_site_fract_x
_atom_site_fract_y
_atom_site_fract_z
_atom_site_type_symbol
H       0.0133   0.4357    0.195     H
H       0.0133   0.5776    0.305     H
C       0.0274   0.4783  0.07547     C
C       0.0274   0.5491  0.42453     C
C       0.0583   0.4588   0.1507     C
C       0.0583   0.5995   0.3493     C
C       0.0679   0.5331  0.56469     C
C       0.0679   0.5348  0.93531     C
C       0.0965   0.5141  0.00944     C
C       0.0965   0.5824  0.49056     C
C       0.1392   0.5665  0.63462     C
C       0.1392   0.5727  0.86538     C
O      0.14752  0.50769  0.82535     O
O      0.14752  0.63983  0.67465     O
C       0.1505   0.4726   0.1607     C
C       0.1505   0.6779   0.3393     C
H       0.1695   0.4589   0.2115     H
H       0.1695   0.7106   0.2885     H
O      0.18307  0.51865  0.64734     O
O      0.18307  0.66442  0.85266     O
C       0.1925   0.5255  0.02183     C
C       0.1925    0.667  0.47817     C
C       0.2197   0.5077   0.0948     C
C       0.2197    0.712   0.4052     C
H       0.2336   0.5184   0.3976     H
H       0.2336   0.7152   0.1024     H
H       0.2381   0.5461    0.978     H
H       0.2381    0.692    0.522     H
Zn     0.25908  0.51816     0.75    Zn
Zn     0.25908  0.74092     0.75    Zn
H       0.2848   0.5184   0.1024     H
H       0.2848   0.7664   0.3976     H
C        0.288   0.5077   0.4052     C
C        0.288   0.7803   0.0948     C
H       0.2894   0.4589   0.2885     H
H       0.2894   0.8305   0.2115     H
H        0.308   0.5461    0.522     H
H        0.308   0.7619    0.978     H
C       0.3221   0.4726   0.3393     C
C       0.3221   0.8495   0.1607     C
C        0.333   0.5255  0.47817     C
C        0.333   0.8075  0.02183     C
O      0.33333  0.66666     0.75     O
O      0.33558  0.51865  0.85266     O
O      0.33558  0.81693  0.64734     O
O      0.36017  0.50769  0.67465     O
O      0.36017  0.85248  0.82535     O
C       0.4005   0.4588   0.3493     C
C       0.4005   0.9417   0.1507     C
C       0.4176   0.5141  0.49056     C
C       0.4176   0.9035  0.00944     C
H       0.4224   0.4357    0.305     H
H       0.4224   0.9867    0.195     H
C       0.4273   0.5665  0.86538     C
C       0.4273   0.8608  0.63462     C
C       0.4335   0.5727  0.63462     C
C       0.4335   0.8608  0.86538     C
H       0.4357   0.0133    0.695     H
H       0.4357   0.4224    0.805     H
C       0.4509   0.4783  0.42453     C
C       0.4509   0.9726  0.07547     C
H       0.4539    0.692    0.978     H
H       0.4539   0.7619    0.522     H
C       0.4588   0.0583   0.6507     C
C       0.4588   0.4005   0.8493     C
H       0.4589   0.1695   0.7115     H
H       0.4589   0.2894   0.7885     H
C       0.4652   0.5331  0.93531     C
C       0.4652   0.9321  0.56469     C
C       0.4669   0.5348  0.56469     C
C       0.4669   0.9321  0.93531     C
C       0.4726   0.1505   0.6607     C
C       0.4726   0.3221   0.8393     C
C       0.4745    0.667  0.02183     C
C       0.4745   0.8075  0.47817     C
C       0.4783   0.0274  0.57547     C
C       0.4783   0.4509  0.92453     C
O      0.48135  0.66442  0.64734     O
O      0.48135  0.81693  0.85266     O
H       0.4816   0.7152   0.3976     H
H       0.4816   0.7664   0.1024     H
Zn     0.48184  0.74092     0.75    Zn
C       0.4859   0.5824  0.00944     C
C       0.4859   0.9035  0.49056     C
C       0.4923    0.712   0.0948     C
C       0.4923   0.7803   0.4052     C
O      0.49231  0.63983  0.82535     O
O      0.49231  0.85248  0.67465     O
O      0.50769  0.14752  0.32535     O
O      0.50769  0.36017  0.17465     O
C       0.5077   0.2197   0.5948     C
C       0.5077    0.288   0.9052     C
C       0.5141   0.0965  0.50944     C
C       0.5141   0.4176  0.99056     C
Zn     0.51816  0.25908     0.25    Zn
H       0.5184   0.2336   0.8976     H
H       0.5184   0.2848   0.6024     H
O      0.51865  0.18307  0.14734     O
O      0.51865  0.33558  0.35266     O
C       0.5217   0.5491  0.07547     C
C       0.5217   0.9726  0.42453     C
C       0.5255   0.1925  0.52183     C
C       0.5255    0.333  0.97817     C
C       0.5274   0.6779   0.1607     C
C       0.5274   0.8495   0.3393     C
C       0.5331   0.0679  0.06469     C
C       0.5331   0.4652  0.43531     C
C       0.5348   0.0679  0.43531     C
C       0.5348   0.4669  0.06469     C
H       0.5411   0.7106   0.2115     H
H       0.5411   0.8305   0.2885     H
C       0.5412   0.5995   0.1507     C
C       0.5412   0.9417   0.3493     C
H       0.5461   0.2381    0.478     H
H       0.5461    0.308    0.022     H
C       0.5491   0.0274  0.92453     C
C       0.5491   0.5217  0.57547     C
H       0.5643   0.5776    0.195     H
H       0.5643   0.9867    0.305     H
C       0.5665   0.1392  0.13462     C
C       0.5665   0.4273  0.36538     C
C       0.5727   0.1392  0.36538     C
C       0.5727   0.4335  0.13462     C
H       0.5776   0.0133    0.805     H
H       0.5776   0.5643    0.695     H
C       0.5824   0.0965  0.99056     C
C       0.5824   0.4859  0.50944     C
C       0.5995   0.0583   0.8493     C
C       0.5995   0.5412   0.6507     C
O      0.63983  0.14752  0.17465     O
O      0.63983  0.49231  0.32535     O
O      0.66442  0.18307  0.35266     O
O      0.66442  0.48135  0.14734     O
O      0.66667  0.33334     0.25     O
C        0.667   0.1925  0.97817     C
C        0.667   0.4745  0.52183     C
C       0.6779   0.1505   0.8393     C
C       0.6779   0.5274   0.6607     C
H        0.692   0.2381    0.022     H
H        0.692   0.4539    0.478     H
H       0.7106   0.1695   0.7885     H
H       0.7106   0.5411   0.7115     H
C        0.712   0.2197   0.9052     C
C        0.712   0.4923   0.5948     C
H       0.7152   0.2336   0.6024     H
H       0.7152   0.4816   0.8976     H
Zn     0.74092  0.25908     0.25    Zn
Zn     0.74092  0.48184     0.25    Zn
H       0.7619    0.308    0.478     H
H       0.7619   0.4539    0.022     H
H       0.7664   0.2848   0.8976     H
H       0.7664   0.4816   0.6024     H
C       0.7803    0.288   0.5948     C
C       0.7803   0.4923   0.9052     C
C       0.8075    0.333  0.52183     C
C       0.8075   0.4745  0.97817     C
O      0.81693  0.33558  0.14734     O
O      0.81693  0.48135  0.35266     O
H       0.8305   0.2894   0.7115     H
H       0.8305   0.5411   0.7885     H
C       0.8495   0.3221   0.6607     C
C       0.8495   0.5274   0.8393     C
O      0.85248  0.36017  0.32535     O
O      0.85248  0.49231  0.17465     O
C       0.8608   0.4273  0.13462     C
C       0.8608   0.4335  0.36538     C
C       0.9035   0.4176  0.50944     C
C       0.9035   0.4859  0.99056     C
C       0.9321   0.4652  0.06469     C
C       0.9321   0.4669  0.43531     C
C       0.9417   0.4005   0.6507     C
C       0.9417   0.5412   0.8493     C
C       0.9726   0.4509  0.57547     C
C       0.9726   0.5217  0.92453     C
H       0.9867   0.4224    0.695     H
H       0.9867   0.5643    0.805     H
