data_I
_chemical_name_common  '/home/zhangsd/repos/MofS-CGCNN/ML/data/TSD/clean_cifs/YASPEP_clean'
_cell_length_a  6.27700
_cell_length_b 17.70200
_cell_length_c 20.48600
_cell_angle_alpha 90.00000
_cell_angle_beta  97.56500
_cell_angle_gamma 90.00000
_space_group_name_H-M_alt      'P 1'


loop_
_space_group_symop_operation_xyz
  'x, y, z' 

loop_
_atom_site_label
_atom_site_fract_x
_atom_site_fract_y
_atom_site_fract_z
_atom_site_type_symbol
C        0.002   0.7868   0.2641     C
H        0.009   0.0231   0.1275     H
N        0.009   0.4931   0.1514     N
H       0.0174    0.791   0.5934     H
H       0.0175   0.3969   0.8629     H
N       0.0189   0.4751   0.3083     N
C       0.0221   0.2187   0.9212     C
H       0.0288   0.0753   0.9912     H
H       0.0313   0.2559   0.7093     H
H       0.0355   0.4162    0.457     H
C        0.043    0.558   0.6383     C
C       0.0444   0.5596   0.1225     C
C       0.0484   0.7917   0.1447     C
H       0.0641   0.7953   0.0472     H
C       0.0648   0.9682   0.0084     C
H       0.0671   0.2094   0.2966     H
C       0.0774   0.2289   0.8074     C
H       0.0815   0.3845   0.1493     H
C       0.0815   0.7889   0.7237     C
C       0.0856    0.439   0.4211     C
O       0.0878   0.0837   0.7448     O
H       0.0909   0.7535     0.76     H
C       0.1008   0.0064   0.5057     C
C       0.1016   0.1424   0.7126     C
C       0.1037    0.431   0.1302     C
H        0.119   0.0566   0.5247     H
C       0.1456   0.0023    0.129     C
C       0.1466    0.866   0.7499     C
C       0.1522   0.7703    0.607     C
H       0.1531   0.9601   0.9735     H
H       0.1569    0.793   0.2697     H
O       0.1569   0.8806   0.8093     O
H       0.1609   0.9711   0.5394     H
C       0.1672   0.5654   0.0728     C
H       0.1789   0.5797   0.6418     H
H        0.183    0.813   0.1573     H
H        0.187   0.6123   0.0541     H
O       0.1886   0.9135   0.7072     O
Zn      0.1896  0.51275  0.77638    Zn
O       0.1987   0.1429   0.6657     O
H       0.2004   0.8916   0.4313     H
C       0.2095   0.9699   0.0723     C
C       0.2174   0.5033   0.3138     C
C       0.2184   0.2496   0.9397     C
C         0.22   0.7609   0.6736     C
C        0.232   0.4351   0.0811     C
H       0.2335   0.7569   0.5159     H
H       0.2355   0.0247   0.2232     H
C       0.2372   0.0023   0.4502     C
C       0.2628   0.5023   0.0498     C
H       0.2645   0.5247   0.2768     H
H       0.2665   0.2569   0.9841     H
C        0.268   0.9351   0.4189     C
C         0.28   0.2609   0.8264     C
C       0.2816   0.7496   0.5603     C
C       0.2826   0.0033   0.1862     C
C       0.2905   0.4699   0.4277     C
H       0.2996   0.3916   0.0687     H
O       0.3013   0.6429   0.8343     O
Zn      0.3104  0.01275  0.72362    Zn
O       0.3114   0.4135   0.7928     O
H        0.313   0.1123   0.4459     H
H        0.317    0.313   0.3427     H
H       0.3211   0.0797   0.8582     H
C       0.3328   0.0654   0.4272     C
H       0.3391   0.4711   0.9606     H
H       0.3431    0.293   0.2303     H
O       0.3431   0.3806   0.6907     O
H       0.3469   0.4601   0.5265     H
C       0.3478   0.2703    0.893     C
C       0.3534    0.366   0.7501     C
C       0.3544   0.5023    0.371     C
H        0.381   0.5566   0.9753     H
C       0.3963    0.931   0.3698     C
C       0.3984   0.6424   0.7874     C
C       0.3992   0.5064   0.9943     C
H       0.4091   0.2535     0.74     H
O       0.4122   0.5837   0.7552     O
C       0.4144    0.939   0.0789     C
C       0.4185   0.2889   0.7763     C
H       0.4185   0.8845   0.3507     H
C       0.4226   0.7289   0.6926     C
H       0.4329   0.7094   0.2034     H
C       0.4352   0.4682   0.4916     C
H       0.4359   0.2953   0.4528     H
C       0.4516   0.2917   0.3553     C
C       0.4556   0.0596   0.3775     C
C        0.457    0.058   0.8617     C
H       0.4645   0.9162    0.043     H
H       0.4687   0.7559   0.7907     H
H       0.4712   0.5753   0.5088     H
C       0.4779   0.7187   0.5788     C
N       0.4811   0.9751   0.1917     N
H       0.4825   0.8969   0.6371     H
H       0.4826    0.291   0.9066     H
H        0.491   0.5231   0.3725     H
N        0.491   0.9931   0.3486     N
C        0.498   0.2868   0.2359     C
C        0.502   0.7132   0.7641     C
N        0.509   0.0069   0.6514     N
H        0.509   0.4769   0.6275     H
H       0.5174    0.709   0.0934     H
H       0.5175   0.1031   0.3629     H
N       0.5189   0.0249   0.8083     N
C       0.5221   0.2813   0.4212     C
H       0.5288   0.4247   0.4912     H
H       0.5313   0.2441   0.2093     H
H       0.5355   0.0838    0.957     H
C        0.543    0.942   0.1383     C
C       0.5444   0.9404   0.6225     C
C       0.5484   0.7083   0.6447     C
H       0.5641   0.7047   0.5472     H
C       0.5648   0.5318   0.5084     C
H       0.5671   0.2906   0.7966     H
C       0.5774   0.2711   0.3074     C
H       0.5815   0.1155   0.6493     H
C       0.5815   0.7111   0.2237     C
C       0.5856    0.061   0.9211     C
O       0.5878   0.4163   0.2448     O
H       0.5909   0.7465     0.26     H
C       0.6008   0.4936   0.0057     C
C       0.6016   0.3576   0.2126     C
C       0.6037    0.069   0.6302     C
H        0.619   0.4434   0.0247     H
C       0.6456   0.4977    0.629     C
C       0.6466    0.634   0.2499     C
C       0.6522   0.7297    0.107     C
H       0.6531   0.5399   0.4735     H
O       0.6569   0.6194   0.3093     O
H       0.6569    0.707   0.7697     H
H       0.6609   0.5289   0.0394     H
C       0.6672   0.9346   0.5728     C
H       0.6789   0.9203   0.1418     H
H        0.683    0.687   0.6573     H
H        0.687   0.8877   0.5541     H
O       0.6886   0.5865   0.2072     O
Zn      0.6896  0.98725  0.27638    Zn
O       0.6987   0.3571   0.1657     O
H       0.7004   0.6084   0.9313     H
C       0.7095   0.5301   0.5723     C
C       0.7174   0.9967   0.8138     C
C       0.7184   0.2504   0.4397     C
C         0.72   0.7391   0.1736     C
C        0.732   0.0649   0.5811     C
H       0.7335   0.7431   0.0159     H
H       0.7355   0.4753   0.7232     H
C       0.7372   0.4977   0.9502     C
C       0.7628   0.9977   0.5498     C
H       0.7645   0.9753   0.7768     H
H       0.7665   0.2431   0.4841     H
C        0.768   0.5649   0.9189     C
C         0.78   0.2391   0.3264     C
C       0.7816   0.7504   0.0603     C
C       0.7826   0.4967   0.6862     C
C       0.7905   0.0301   0.9277     C
H       0.7996   0.1084   0.5687     H
O       0.8013   0.8571   0.3343     O
Zn      0.8104  0.48725  0.22362    Zn
O       0.8114   0.0865   0.2928     O
H        0.813   0.3877   0.9459     H
H        0.817    0.187   0.8427     H
H       0.8211   0.4203   0.3582     H
C       0.8328   0.4346   0.9272     C
H       0.8391   0.0289   0.4606     H
O       0.8431   0.1194   0.1907     O
H       0.8431    0.207   0.7303     H
H       0.8469   0.0399   0.0265     H
C       0.8478   0.2297    0.393     C
C       0.8534    0.134   0.2501     C
C       0.8544   0.9977    0.871     C
H        0.881   0.9434   0.4753     H
C       0.8963    0.569   0.8698     C
C       0.8984   0.8576   0.2874     C
C       0.8992   0.9936   0.4943     C
H       0.9091   0.2465     0.24     H
O       0.9122   0.9163   0.2552     O
C       0.9144    0.561   0.5789     C
C       0.9185   0.2111   0.2763     C
H       0.9185   0.6155   0.8507     H
C       0.9226   0.7711   0.1926     C
H       0.9329   0.7906   0.7034     H
C       0.9352   0.0318   0.9916     C
H       0.9359   0.2047   0.9528     H
C       0.9516   0.2083   0.8553     C
C       0.9556   0.4404   0.8775     C
C        0.957    0.442   0.3617     C
H       0.9645   0.5838    0.543     H
H       0.9687   0.7441   0.2907     H
H       0.9712   0.9247   0.0088     H
C       0.9779   0.7813   0.0788     C
N       0.9811   0.5249   0.6917     N
H       0.9825   0.6031   0.1371     H
H       0.9826    0.209   0.4066     H
N        0.991   0.5069   0.8486     N
H        0.991   0.9769   0.8725     H
C        0.998   0.2132   0.7359     C
