data_I
_chemical_name_common  '/home/zhangsd/repos/MofS-CGCNN/ML/data/TSD/clean_cifs/YEDKUO_clean'
_cell_length_a 12.16470
_cell_length_b 12.16470
_cell_length_c 27.19710
_cell_angle_alpha 90.00000
_cell_angle_beta  90.00000
_cell_angle_gamma 120.00000
_space_group_name_H-M_alt      'P 1'


loop_
_space_group_symop_operation_xyz
  'x, y, z' 

loop_
_atom_site_label
_atom_site_fract_x
_atom_site_fract_y
_atom_site_fract_z
_atom_site_type_symbol
C       0.0019   0.6629   0.6073     C
C       0.0019   0.6629   0.8927     C
C       0.0202   0.6042   0.5259     C
C       0.0202   0.6042   0.9741     C
C       0.0498   0.6716   0.0588     C
C       0.0498   0.6716   0.4412     C
C       0.0906   0.6285   0.6265     C
C       0.0906   0.6285   0.8735     C
O       0.1182   0.5505   0.6982     O
O       0.1182   0.5505   0.8018     O
C       0.1254   0.6417   0.6788     C
C       0.1254   0.6417   0.8212     C
C       0.1456   0.6402   0.5374     C
C       0.1456   0.6402   0.9626     C
O       0.1529   0.7406   0.6989     O
O       0.1529   0.7406   0.8011     O
C       0.1765   0.6299   0.5882     C
C       0.1765   0.6299   0.9118     C
Cr      0.1869   0.4873     0.75    Cr
O       0.2594   0.4123   0.6989     O
O       0.2594   0.4123   0.8011     O
Cr      0.3004   0.8131     0.75    Cr
C       0.3284   0.3782   0.0588     C
C       0.3284   0.3782   0.4412     C
O      0.33333  0.66667     0.75     O
C       0.3371    0.339   0.6073     C
C       0.3371    0.339   0.8927     C
C        0.339   0.3371   0.1073     C
C        0.339   0.3371   0.3927     C
C       0.3583   0.4837   0.6788     C
C       0.3583   0.4837   0.8212     C
C       0.3598   0.5054   0.5374     C
C       0.3598   0.5054   0.9626     C
C       0.3701   0.5466   0.5882     C
C       0.3701   0.5466   0.9118     C
C       0.3715   0.4621   0.6265     C
C       0.3715   0.4621   0.8735     C
C       0.3782   0.3284   0.5588     C
C       0.3782   0.3284   0.9412     C
C       0.3958    0.416   0.5259     C
C       0.3958    0.416   0.9741     C
O       0.4123   0.2594   0.1989     O
O       0.4123   0.2594   0.3011     O
C        0.416   0.3958   0.0259     C
C        0.416   0.3958   0.4741     C
O       0.4323   0.8818   0.6982     O
O       0.4323   0.8818   0.8018     O
O       0.4495   0.5677   0.6982     O
O       0.4495   0.5677   0.8018     O
C       0.4534   0.8235   0.5882     C
C       0.4534   0.8235   0.9118     C
C       0.4621   0.3715   0.1265     C
C       0.4621   0.3715   0.3735     C
C       0.4837   0.3583   0.1788     C
C       0.4837   0.3583   0.3212     C
Cr      0.4873   0.1869     0.25    Cr
C       0.4946   0.8544   0.5374     C
C       0.4946   0.8544   0.9626     C
C       0.5054   0.3598   0.0374     C
C       0.5054   0.3598   0.4626     C
Cr      0.5127   0.6996     0.75    Cr
C       0.5163   0.8746   0.6788     C
C       0.5163   0.8746   0.8212     C
C       0.5379   0.9094   0.6265     C
C       0.5379   0.9094   0.8735     C
C       0.5466   0.3701   0.0882     C
C       0.5466   0.3701   0.4118     C
O       0.5505   0.1182   0.1982     O
O       0.5505   0.1182   0.3018     O
O       0.5677   0.4495   0.1982     O
O       0.5677   0.4495   0.3018     O
C        0.584   0.9798   0.5259     C
C        0.584   0.9798   0.9741     C
O       0.5877   0.8471   0.6989     O
O       0.5877   0.8471   0.8011     O
C       0.6042   0.0202   0.0259     C
C       0.6042   0.0202   0.4741     C
C       0.6218   0.9502   0.0588     C
C       0.6218   0.9502   0.4412     C
C       0.6285   0.0906   0.1265     C
C       0.6285   0.0906   0.3735     C
C       0.6299   0.1765   0.0882     C
C       0.6299   0.1765   0.4118     C
C       0.6402   0.1456   0.0374     C
C       0.6402   0.1456   0.4626     C
C       0.6417   0.1254   0.1788     C
C       0.6417   0.1254   0.3212     C
C        0.661   0.9981   0.6073     C
C        0.661   0.9981   0.8927     C
C       0.6629   0.0019   0.1073     C
C       0.6629   0.0019   0.3927     C
O      0.66667  0.33333     0.25     O
C       0.6716   0.0498   0.5588     C
C       0.6716   0.0498   0.9412     C
Cr      0.6996   0.5127     0.25    Cr
O       0.7406   0.1529   0.1989     O
O       0.7406   0.1529   0.3011     O
Cr      0.8131   0.3004     0.25    Cr
C       0.8235   0.4534   0.0882     C
C       0.8235   0.4534   0.4118     C
O       0.8471   0.5877   0.1989     O
O       0.8471   0.5877   0.3011     O
C       0.8544   0.4946   0.0374     C
C       0.8544   0.4946   0.4626     C
C       0.8746   0.5163   0.1788     C
C       0.8746   0.5163   0.3212     C
O       0.8818   0.4323   0.1982     O
O       0.8818   0.4323   0.3018     O
C       0.9094   0.5379   0.1265     C
C       0.9094   0.5379   0.3735     C
C       0.9502   0.6218   0.5588     C
C       0.9502   0.6218   0.9412     C
C       0.9798    0.584   0.0259     C
C       0.9798    0.584   0.4741     C
C       0.9981    0.661   0.1073     C
C       0.9981    0.661   0.3927     C
