data_I
_chemical_name_common  '/home/zhangsd/repos/MofS-CGCNN/ML/data/TSD/clean_cifs/YEDLAV_clean'
_cell_length_a 10.17510
_cell_length_b 10.17510
_cell_length_c 23.77220
_cell_angle_alpha 90.00000
_cell_angle_beta  90.00000
_cell_angle_gamma 120.00000
_space_group_name_H-M_alt      'P 1'


loop_
_space_group_symop_operation_xyz
  'x, y, z' 

loop_
_atom_site_label
_atom_site_fract_x
_atom_site_fract_y
_atom_site_fract_z
_atom_site_type_symbol
C       0.0652   0.4344   0.1023     C
C       0.0652   0.4344   0.3977     C
O       0.0683   0.5729   0.6916     O
O       0.0683   0.5729   0.8084     O
C       0.0762     0.46   0.0017     C
C       0.0762     0.46   0.4983     C
C       0.0813    0.463   0.6037     C
C       0.0813    0.463   0.8963     C
O       0.1245   0.3972   0.6894     O
O       0.1245   0.3972   0.8106     O
C       0.1356   0.5229   0.0582     C
C       0.1356   0.5229   0.4418     C
C       0.1397   0.5159   0.6662     C
C       0.1397   0.5159   0.8338     C
C       0.1531   0.5191    0.549     C
C       0.1531   0.5191    0.951     C
Fe      0.1639   0.7271     0.75    Fe
O       0.2727   0.8755   0.6894     O
O       0.2727   0.8755   0.8106     O
Fe      0.2729   0.4368     0.75    Fe
O      0.33333  0.66667     0.75     O
C        0.366   0.8469    0.549     C
C        0.366   0.8469    0.951     C
C       0.3692   0.9348   0.1023     C
C       0.3692   0.9348   0.3977     C
C       0.3762   0.8603   0.6662     C
C       0.3762   0.8603   0.8338     C
C       0.3817   0.9187   0.6037     C
C       0.3817   0.9187   0.8963     C
C       0.3838   0.9238   0.0017     C
C       0.3838   0.9238   0.4983     C
C       0.3873   0.8644   0.0582     C
C       0.3873   0.8644   0.4418     C
O       0.3972   0.1245   0.1894     O
O       0.3972   0.1245   0.3106     O
O       0.4271   0.4954   0.6916     O
O       0.4271   0.4954   0.8084     O
C       0.4344   0.0652   0.6023     C
C       0.4344   0.0652   0.8977     C
Fe      0.4368   0.2729     0.25    Fe
C         0.46   0.0762   0.5017     C
C         0.46   0.0762   0.9983     C
C        0.463   0.0813   0.1037     C
C        0.463   0.0813   0.3963     C
C       0.4771   0.6127   0.0582     C
C       0.4771   0.6127   0.4418     C
C       0.4809    0.634    0.549     C
C       0.4809    0.634    0.951     C
C       0.4841   0.6238   0.6662     C
C       0.4841   0.6238   0.8338     C
O       0.4954   0.4271   0.1916     O
O       0.4954   0.4271   0.3084     O
O       0.5046   0.9317   0.6916     O
O       0.5046   0.9317   0.8084     O
C       0.5159   0.1397   0.1662     C
C       0.5159   0.1397   0.3338     C
C       0.5191   0.1531    0.049     C
C       0.5191   0.1531    0.451     C
C       0.5229   0.1356   0.5582     C
C       0.5229   0.1356   0.9418     C
C        0.537   0.6183   0.6037     C
C        0.537   0.6183   0.8963     C
C         0.54   0.6162   0.0017     C
C         0.54   0.6162   0.4983     C
Fe      0.5632   0.8361     0.75    Fe
C       0.5656   0.6308   0.1023     C
C       0.5656   0.6308   0.3977     C
O       0.5729   0.0683   0.1916     O
O       0.5729   0.0683   0.3084     O
O       0.6028   0.7273   0.6894     O
O       0.6028   0.7273   0.8106     O
C       0.6127   0.4771   0.5582     C
C       0.6127   0.4771   0.9418     C
C       0.6162     0.54   0.5017     C
C       0.6162     0.54   0.9983     C
C       0.6183    0.537   0.1037     C
C       0.6183    0.537   0.3963     C
C       0.6238   0.4841   0.1662     C
C       0.6238   0.4841   0.3338     C
C       0.6308   0.5656   0.6023     C
C       0.6308   0.5656   0.8977     C
C        0.634   0.4809    0.049     C
C        0.634   0.4809    0.451     C
O      0.66667  0.33333     0.25     O
Fe      0.7271   0.1639     0.25    Fe
O       0.7273   0.6028   0.1894     O
O       0.7273   0.6028   0.3106     O
Fe      0.8361   0.5632     0.25    Fe
C       0.8469    0.366    0.049     C
C       0.8469    0.366    0.451     C
C       0.8603   0.3762   0.1662     C
C       0.8603   0.3762   0.3338     C
C       0.8644   0.3873   0.5582     C
C       0.8644   0.3873   0.9418     C
O       0.8755   0.2727   0.1894     O
O       0.8755   0.2727   0.3106     O
C       0.9187   0.3817   0.1037     C
C       0.9187   0.3817   0.3963     C
C       0.9238   0.3838   0.5017     C
C       0.9238   0.3838   0.9983     C
O       0.9317   0.5046   0.1916     O
O       0.9317   0.5046   0.3084     O
C       0.9348   0.3692   0.6023     C
C       0.9348   0.3692   0.8977     C
