data_I
_chemical_name_common  '/home/zhangsd/repos/MofS-CGCNN/ML/data/TSD/clean_cifs/YEMLOS_clean'
_cell_length_a  8.30810
_cell_length_b  9.16470
_cell_length_c  9.18390
_cell_angle_alpha 62.78100
_cell_angle_beta  79.02900
_cell_angle_gamma 87.08800
_space_group_name_H-M_alt      'P 1'


loop_
_space_group_symop_operation_xyz
  'x, y, z' 

loop_
_atom_site_label
_atom_site_fract_x
_atom_site_fract_y
_atom_site_fract_z
_atom_site_type_symbol
H       0.0187   0.2536    0.982     H
C       0.0194   0.3696   0.9523     C
O        0.042   0.1941    0.339     O
H       0.0449   0.4311   0.8317     H
P      0.05694  0.25198   0.4654     P
O       0.1009   0.7673   0.4085     O
O       0.1274   0.4283   0.3786     O
H       0.1433   0.0152    0.671     H
C       0.1481   0.5866   0.9836     C
N       0.1484   0.4086   0.0255     N
H       0.1764   0.6527   0.8637     H
C       0.1959   0.1234   0.6014     C
H       0.2107   0.1695   0.6746     H
H       0.2298   0.6103   0.0333     H
Fe     0.24056  0.57637  0.42962    Fe
H        0.282   0.0286   0.3629     H
O       0.2973   0.4769   0.6521     O
H       0.3052   0.2403   0.0022     H
H       0.3064   0.8813   0.5328     H
C       0.3158   0.3551   0.9757     C
C       0.3533   0.9863   0.4444     C
N       0.3627   0.1037   0.5155     N
H       0.3866   0.3618   0.0453     H
P      0.42074  0.46684  0.75806     P
H        0.433   0.9336   0.7299     H
O        0.442   0.6477   0.2514     O
C       0.4777   0.0377    0.638     C
O       0.4814    0.632   0.7291     O
H       0.4872   0.1137   0.6829     H
H       0.5128   0.8863   0.3171     H
O       0.5186    0.368   0.2709     O
C       0.5223   0.9623    0.362     C
O        0.558   0.3523   0.7486     O
H        0.567   0.0664   0.2701     H
P      0.57926  0.53316  0.24194     P
H       0.6134   0.6382   0.9547     H
N       0.6373   0.8963   0.4845     N
C       0.6467   0.0137   0.5556     C
C       0.6842   0.6449   0.0243     C
H       0.6936   0.1187   0.4672     H
H       0.6948   0.7597   0.9978     H
O       0.7027   0.5231   0.3479     O
H        0.718   0.9714   0.6371     H
Fe     0.75944  0.42363  0.57038    Fe
H       0.7702   0.3897   0.9667     H
H       0.7893   0.8305   0.3254     H
C       0.8041   0.8766   0.3986     C
H       0.8236   0.3473   0.1363     H
N       0.8516   0.5914   0.9745     N
C       0.8519   0.4134   0.0164     C
H       0.8567   0.9848    0.329     H
O       0.8726   0.5717   0.6214     O
O       0.8991   0.2327   0.5915     O
P      0.94306  0.74802   0.5346     P
H       0.9551   0.5689   0.1683     H
O        0.958   0.8059    0.661     O
C       0.9806   0.6304   0.0477     C
H       0.9813   0.7464    0.018     H
