data_I
_chemical_name_common  '/home/zhangsd/repos/MofS-CGCNN/ML/data/TSD/clean_cifs/YEMLUY_charged'
_cell_length_a  9.27000
_cell_length_b 19.14300
_cell_length_c 19.14300
_cell_angle_alpha 120.00000
_cell_angle_beta  90.00000
_cell_angle_gamma 90.00000
_space_group_name_H-M_alt      'P 1'


loop_
_space_group_symop_operation_xyz
  'x, y, z' 

loop_
_atom_site_label
_atom_site_fract_x
_atom_site_fract_y
_atom_site_fract_z
_atom_site_type_symbol
H       0.0012   0.1371   0.7155     H
H       0.0012   0.2845   0.4216     H
H       0.0012   0.5784   0.8629     H
P      0.00524  0.19487  0.63284     P
P      0.00524  0.36716  0.56203     P
P      0.00524  0.43797  0.80513     P
C       0.0224   0.1148   0.6575     C
C       0.0224   0.3425   0.4573     C
C       0.0224   0.5427   0.8852     C
O       0.0341  0.54406  0.38733     O
O       0.0341  0.61267  0.15673     O
O       0.0341  0.84327  0.45594     O
H       0.0501   0.4462   0.0725     H
H       0.0501   0.6263   0.5538     H
H       0.0501   0.9275   0.3737     H
H        0.064   0.0887   0.7798     H
H        0.064   0.2202   0.3089     H
H        0.064   0.6911   0.9113     H
O       0.0773   0.3746   0.2248     O
O       0.0773   0.7752   0.1498     O
O       0.0773   0.8502   0.6254     O
H       0.0969   0.4691   0.4576     H
H       0.0969   0.5424   0.0115     H
H       0.0969   0.9885   0.5309     H
H        0.101   0.3531   0.3345     H
H        0.101   0.6655   0.0186     H
H        0.101   0.9814   0.6469     H
O       0.1089  0.56552  0.25384     O
O       0.1089  0.68832  0.43448     O
O       0.1089  0.74616  0.31168     O
H       0.1115   0.2417   0.1016     H
H       0.1115   0.8599   0.7583     H
H       0.1115   0.8984   0.1401     H
H       0.1536   0.0162   0.7775     H
H       0.1536   0.2225   0.2387     H
H       0.1536   0.7613   0.9838     H
C        0.156   0.0593   0.7641     C
C        0.156   0.2359   0.2952     C
C        0.156   0.7048   0.9407     C
O        0.157  0.23227  0.65141     O
O        0.157  0.34859  0.58086     O
O        0.157  0.41914  0.76773     O
N       0.1684   0.0776   0.6397     N
N       0.1684   0.3603   0.4379     N
N       0.1684   0.5621   0.9224     N
C       0.1782   0.0229   0.6738     C
C       0.1782   0.3262   0.3491     C
C       0.1782   0.6509   0.9771     C
H       0.1793   0.0591   0.5256     H
H       0.1793   0.4665   0.9409     H
H       0.1793   0.4744   0.5335     H
C       0.1812   0.0251   0.5511     C
C       0.1812   0.4489    0.474     C
C       0.1812    0.526   0.9749     C
H       0.1869   0.2793   0.0526     H
H       0.1869   0.7733   0.7207     H
H       0.1869   0.9474   0.2267     H
C       0.1876    0.357   0.1755     C
C       0.1876   0.8185    0.643     C
C       0.1876   0.8245   0.1815     C
Co     0.18838  0.49252  0.30337    Co
Co     0.18838  0.69663  0.18915    Co
Co     0.18838  0.81085  0.50748    Co
C        0.193   0.2739   0.1008     C
C        0.193   0.8269   0.7261     C
C        0.193   0.8992   0.1731     C
H       0.2164   0.1001   0.2473     H
H       0.2164   0.1472   0.8999     H
H       0.2164   0.7527   0.8528     H
O       0.2282   0.1937   0.4132     O
O       0.2282   0.2195   0.8063     O
O       0.2282   0.5868   0.7805     O
Co     0.23408  0.66667  0.33334    Co
H        0.235   0.0965   0.7932     H
H        0.235   0.2068   0.3033     H
H        0.235   0.6967   0.9035     H
H        0.265   0.3033   0.2068     H
H        0.265   0.7932   0.0965     H
H        0.265   0.9035   0.6967     H
Co     0.26592  0.33333  0.66666    Co
O       0.2718   0.4132   0.1937     O
O       0.2718   0.7805   0.5868     O
O       0.2718   0.8063   0.2195     O
H       0.2836   0.2473   0.1001     H
H       0.2836   0.8528   0.7527     H
H       0.2836   0.8999   0.1472     H
C        0.307   0.1008   0.2739     C
C        0.307   0.1731   0.8992     C
C        0.307   0.7261   0.8269     C
Co     0.31162  0.18915  0.69663    Co
Co     0.31162  0.30337  0.49252    Co
Co     0.31162  0.50748  0.81085    Co
C       0.3124   0.1755    0.357     C
C       0.3124   0.1815   0.8245     C
C       0.3124    0.643   0.8185     C
H       0.3131   0.0526   0.2793     H
H       0.3131   0.2267   0.9474     H
H       0.3131   0.7207   0.7733     H
C       0.3188    0.474   0.4489     C
C       0.3188   0.5511   0.0251     C
C       0.3188   0.9749    0.526     C
H       0.3207   0.5256   0.0591     H
H       0.3207   0.5335   0.4744     H
H       0.3207   0.9409   0.4665     H
C       0.3218   0.3491   0.3262     C
C       0.3218   0.6738   0.0229     C
C       0.3218   0.9771   0.6509     C
N       0.3316   0.4379   0.3603     N
N       0.3316   0.6397   0.0776     N
N       0.3316   0.9224   0.5621     N
O        0.343  0.58086  0.34859     O
O        0.343  0.65141  0.23227     O
O        0.343  0.76773  0.41914     O
C        0.344   0.2952   0.2359     C
C        0.344   0.7641   0.0593     C
C        0.344   0.9407   0.7048     C
H       0.3464   0.2387   0.2225     H
H       0.3464   0.7775   0.0162     H
H       0.3464   0.9838   0.7613     H
H       0.3885   0.1016   0.2417     H
H       0.3885   0.1401   0.8984     H
H       0.3885   0.7583   0.8599     H
O       0.3911  0.25384  0.56552     O
O       0.3911  0.31168  0.74616     O
O       0.3911  0.43448  0.68832     O
H        0.399   0.0186   0.6655     H
H        0.399   0.3345   0.3531     H
H        0.399   0.6469   0.9814     H
H       0.4031   0.0115   0.5424     H
H       0.4031   0.4576   0.4691     H
H       0.4031   0.5309   0.9885     H
O       0.4227   0.1498   0.7752     O
O       0.4227   0.2248   0.3746     O
O       0.4227   0.6254   0.8502     O
H        0.436   0.3089   0.2202     H
H        0.436   0.7798   0.0887     H
H        0.436   0.9113   0.6911     H
H       0.4499   0.0725   0.4462     H
H       0.4499   0.3737   0.9275     H
H       0.4499   0.5538   0.6263     H
O       0.4659  0.15673  0.61267     O
O       0.4659  0.38733  0.54406     O
O       0.4659  0.45594  0.84327     O
C       0.4776   0.4573   0.3425     C
C       0.4776   0.6575   0.1148     C
C       0.4776   0.8852   0.5427     C
P      0.49476  0.56203  0.36716     P
P      0.49476  0.63284  0.19487     P
P      0.49476  0.80513  0.43797     P
H       0.4988   0.4216   0.2845     H
H       0.4988   0.7155   0.1371     H
H       0.4988   0.8629   0.5784     H
H       0.5012   0.1371   0.4216     H
H       0.5012   0.2845   0.8629     H
H       0.5012   0.5784   0.7155     H
P      0.50524  0.19487  0.56203     P
P      0.50524  0.36716  0.80513     P
P      0.50524  0.43797  0.63284     P
C       0.5224   0.1148   0.4573     C
C       0.5224   0.3425   0.8852     C
C       0.5224   0.5427   0.6575     C
O       0.5341  0.54406  0.15673     O
O       0.5341  0.61267  0.45594     O
O       0.5341  0.84327  0.38733     O
H       0.5501   0.4462   0.3737     H
H       0.5501   0.6263   0.0725     H
H       0.5501   0.9275   0.5538     H
H        0.564   0.0887   0.3089     H
H        0.564   0.2202   0.9113     H
H        0.564   0.6911   0.7798     H
O       0.5773   0.3746   0.1498     O
O       0.5773   0.7752   0.6254     O
O       0.5773   0.8502   0.2248     O
H       0.5969   0.4691   0.0115     H
H       0.5969   0.5424   0.5309     H
H       0.5969   0.9885   0.4576     H
H        0.601   0.3531   0.0186     H
H        0.601   0.6655   0.6469     H
H        0.601   0.9814   0.3345     H
O       0.6089  0.56552  0.31168     O
O       0.6089  0.68832  0.25384     O
O       0.6089  0.74616  0.43448     O
H       0.6115   0.2417   0.1401     H
H       0.6115   0.8599   0.1016     H
H       0.6115   0.8984   0.7583     H
H       0.6536   0.0162   0.2387     H
H       0.6536   0.2225   0.9838     H
H       0.6536   0.7613   0.7775     H
C        0.656   0.0593   0.2952     C
C        0.656   0.2359   0.9407     C
C        0.656   0.7048   0.7641     C
O        0.657  0.23227  0.58086     O
O        0.657  0.34859  0.76773     O
O        0.657  0.41914  0.65141     O
N       0.6684   0.0776   0.4379     N
N       0.6684   0.3603   0.9224     N
N       0.6684   0.5621   0.6397     N
C       0.6782   0.0229   0.3491     C
C       0.6782   0.3262   0.9771     C
C       0.6782   0.6509   0.6738     C
H       0.6793   0.0591   0.5335     H
H       0.6793   0.4665   0.5256     H
H       0.6793   0.4744   0.9409     H
C       0.6812   0.0251    0.474     C
C       0.6812   0.4489   0.9749     C
C       0.6812    0.526   0.5511     C
H       0.6869   0.2793   0.2267     H
H       0.6869   0.7733   0.0526     H
H       0.6869   0.9474   0.7207     H
C       0.6876    0.357   0.1815     C
C       0.6876   0.8185   0.1755     C
C       0.6876   0.8245    0.643     C
Co     0.68838  0.49252  0.18915    Co
Co     0.68838  0.69663  0.50748    Co
Co     0.68838  0.81085  0.30337    Co
C        0.693   0.2739   0.1731     C
C        0.693   0.8269   0.1008     C
C        0.693   0.8992   0.7261     C
H       0.7164   0.1001   0.8528     H
H       0.7164   0.1472   0.2473     H
H       0.7164   0.7527   0.8999     H
O       0.7282   0.1937   0.7805     O
O       0.7282   0.2195   0.4132     O
O       0.7282   0.5868   0.8063     O
Co     0.73408  0.66667  0.33334    Co
H        0.735   0.0965   0.3033     H
H        0.735   0.2068   0.9035     H
H        0.735   0.6967   0.7932     H
H        0.765   0.3033   0.0965     H
H        0.765   0.7932   0.6967     H
H        0.765   0.9035   0.2068     H
Co     0.76592  0.33333  0.66666    Co
O       0.7718   0.4132   0.2195     O
O       0.7718   0.7805   0.1937     O
O       0.7718   0.8063   0.5868     O
H       0.7836   0.2473   0.1472     H
H       0.7836   0.8528   0.1001     H
H       0.7836   0.8999   0.7527     H
C        0.807   0.1008   0.8269     C
C        0.807   0.1731   0.2739     C
C        0.807   0.7261   0.8992     C
Co     0.81162  0.18915  0.49252    Co
Co     0.81162  0.30337  0.81085    Co
Co     0.81162  0.50748  0.69663    Co
C       0.8124   0.1755   0.8185     C
C       0.8124   0.1815    0.357     C
C       0.8124    0.643   0.8245     C
H       0.8131   0.0526   0.7733     H
H       0.8131   0.2267   0.2793     H
H       0.8131   0.7207   0.9474     H
C       0.8188    0.474   0.0251     C
C       0.8188   0.5511    0.526     C
C       0.8188   0.9749   0.4489     C
H       0.8207   0.5256   0.4665     H
H       0.8207   0.5335   0.0591     H
H       0.8207   0.9409   0.4744     H
C       0.8218   0.3491   0.0229     C
C       0.8218   0.6738   0.6509     C
C       0.8218   0.9771   0.3262     C
N       0.8316   0.4379   0.0776     N
N       0.8316   0.6397   0.5621     N
N       0.8316   0.9224   0.3603     N
O        0.843  0.58086  0.23227     O
O        0.843  0.65141  0.41914     O
O        0.843  0.76773  0.34859     O
C        0.844   0.2952   0.0593     C
C        0.844   0.7641   0.7048     C
C        0.844   0.9407   0.2359     C
H       0.8464   0.2387   0.0162     H
H       0.8464   0.7775   0.7613     H
H       0.8464   0.9838   0.2225     H
H       0.8885   0.1016   0.8599     H
H       0.8885   0.1401   0.2417     H
H       0.8885   0.7583   0.8984     H
O       0.8911  0.25384  0.68832     O
O       0.8911  0.31168  0.56552     O
O       0.8911  0.43448  0.74616     O
H        0.899   0.0186   0.3531     H
H        0.899   0.3345   0.9814     H
H        0.899   0.6469   0.6655     H
H       0.9031   0.0115   0.4691     H
H       0.9031   0.4576   0.9885     H
H       0.9031   0.5309   0.5424     H
O       0.9227   0.1498   0.3746     O
O       0.9227   0.2248   0.8502     O
O       0.9227   0.6254   0.7752     O
H        0.936   0.3089   0.0887     H
H        0.936   0.7798   0.6911     H
H        0.936   0.9113   0.2202     H
H       0.9499   0.0725   0.6263     H
H       0.9499   0.3737   0.4462     H
H       0.9499   0.5538   0.9275     H
O       0.9659  0.15673  0.54406     O
O       0.9659  0.38733  0.84327     O
O       0.9659  0.45594  0.61267     O
C       0.9776   0.4573   0.1148     C
C       0.9776   0.6575   0.5427     C
C       0.9776   0.8852   0.3425     C
P      0.99476  0.56203  0.19487     P
P      0.99476  0.63284  0.43797     P
P      0.99476  0.80513  0.36716     P
H       0.9988   0.4216   0.1371     H
H       0.9988   0.7155   0.5784     H
H       0.9988   0.8629   0.2845     H
