data_I
_chemical_name_common  '/home/zhangsd/repos/MofS-CGCNN/ML/data/TSD/clean_cifs/YEMMAF_clean'
_cell_length_a 27.94860
_cell_length_b 27.94860
_cell_length_c  6.23020
_cell_angle_alpha 90.00000
_cell_angle_beta  90.00000
_cell_angle_gamma 120.00000
_space_group_name_H-M_alt      'P 1'


loop_
_space_group_symop_operation_xyz
  'x, y, z' 

loop_
_atom_site_label
_atom_site_fract_x
_atom_site_fract_y
_atom_site_fract_z
_atom_site_type_symbol
O      0.00557  0.28613  0.60453     O
N       0.0062   0.4495   0.0294     N
O       0.0104   0.3798   0.6308     O
C       0.0115   0.5583     0.73     C
Ni      0.0284  0.39054   0.9483    Ni
Ni     0.02881  0.30493  0.28163    Ni
O      0.03607  0.32293  0.96413     O
C       0.0387   0.5567    0.084     C
P      0.03959  0.42604   0.4271     P
O      0.04647  0.70273  0.70253     O
O       0.0472   0.3861   0.2712     O
O      0.05257  0.23863  0.81483     O
O      0.05277  0.67223  0.06213     O
P      0.05312  0.29374  0.76043     P
C       0.0568   0.5131    0.014     C
Ni     0.05721  0.69547  0.38503    Ni
P      0.09271  0.71978  0.90623     P
O       0.0947   0.4806   0.4815     O
C      0.10837  0.78653  0.06333     C
N      0.10997  0.32713  0.36273     N
C      0.10997  0.81533  0.41733     C
N      0.11617  0.77663  0.30393     N
C      0.11987  0.34483  0.60333     C
C      0.12297  0.27653  0.34733     C
O      0.14727  0.71923  0.85183     O
C      0.14867  0.37203  0.24933     C
C      0.15357  0.87703  0.34733     C
C      0.17977  0.78963  0.31933     C
C      0.18467  0.29463  0.41733     C
O      0.18607  0.94743  0.81483     O
C      0.21037  0.39013  0.31933     C
C      0.21347  0.32183  0.06333     C
N      0.21717  0.89003  0.36273     N
N      0.22337  0.33953  0.30393     N
C      0.22337  0.85133  0.24933     C
C      0.22497  0.88013  0.60333     C
O      0.23863  0.18607  0.18517     O
P      0.24063  0.94688  0.76043     P
Ni     0.27613  0.97119  0.28163    Ni
C      0.27653  0.15357  0.65267     C
P      0.28022  0.37292  0.90623     P
O      0.28057  0.99443  0.60453     O
O      0.28077  0.42803  0.85183     O
O      0.28613  0.28057  0.39547     O
O      0.28687  0.96393  0.96413     O
P      0.29374  0.24063  0.23957     P
C      0.29463  0.10997  0.58267     C
O      0.29727  0.34373  0.70253     O
Ni     0.30453  0.36173  0.38503    Ni
Ni     0.30493  0.27613  0.71837    Ni
C      0.32183  0.10837  0.93667     C
O      0.32293  0.28687  0.03587     O
N      0.32713  0.21717  0.63727     N
O      0.32777  0.38053  0.06213     O
O       0.3389   0.9528   0.2712     O
N      0.33953  0.11617  0.69607     N
O      0.34373  0.04647  0.29747     O
C      0.34483  0.22497  0.39667     C
Ni     0.36173  0.05721  0.61497    Ni
Ni     0.36214   0.9716   0.9483    Ni
O       0.3694   0.9896   0.6308     O
C      0.37203  0.22337  0.75067     C
P      0.37292  0.09271  0.09377     P
O       0.3798   0.3694   0.3692     O
O      0.38053  0.05277  0.93787     O
O       0.3859   0.9053   0.4815     O
O       0.3861   0.3389   0.7288     O
P      0.38645  0.96041   0.4271     P
C      0.39013  0.17977  0.68067     C
Ni     0.39054  0.36214   0.0517    Ni
P      0.42604  0.38645   0.5729     P
O      0.42803  0.14727  0.14817     O
C       0.4417   0.4532     0.73     C
C       0.4433    0.482    0.084     C
N       0.4433   0.9938   0.0294     N
N       0.4495   0.4433   0.9706     N
C       0.4532   0.0115     0.27     C
C       0.4563   0.9432    0.014     C
O       0.4806   0.3859   0.5185     O
C        0.482   0.0387    0.916     C
C       0.4869   0.5437    0.014     C
C       0.5131   0.4563    0.986     C
C        0.518   0.9613    0.084     C
O       0.5194   0.6141   0.4815     O
C       0.5437   0.0568    0.986     C
C       0.5468   0.9885     0.73     C
N       0.5505   0.5567   0.0294     N
N       0.5567   0.0062   0.9706     N
C       0.5567    0.518    0.916     C
C       0.5583   0.5468     0.27     C
O      0.57197  0.85273  0.85183     O
P      0.57396  0.61355   0.4271     P
Ni     0.60946  0.63786   0.9483    Ni
C      0.60987  0.82023  0.31933     C
P      0.61355  0.03959   0.5729     P
O       0.6139   0.6611   0.2712     O
O       0.6141   0.0947   0.5185     O
O      0.61947  0.94723  0.06213     O
O       0.6202   0.6306   0.6308     O
P      0.62708  0.90729  0.90623     P
C      0.62797  0.77663  0.24933     C
O       0.6306   0.0104   0.3692     O
Ni     0.63786   0.0284   0.0517    Ni
Ni     0.63827  0.94279  0.38503    Ni
C      0.65517  0.77503  0.60333     C
O      0.65627  0.95353  0.70253     O
N      0.66047  0.88383  0.30393     N
O       0.6611   0.0472   0.7288     O
O      0.67223  0.61947  0.93787     O
N      0.67287  0.78283  0.36273     N
O      0.67707  0.71313  0.96413     O
C      0.67817  0.89163  0.06333     C
Ni     0.69507  0.72387  0.28163    Ni
Ni     0.69547  0.63827  0.61497    Ni
O      0.70273  0.65627  0.29747     O
C      0.70537  0.89003  0.41733     C
P      0.70626  0.75937  0.76043     P
O      0.71313  0.03607  0.03587     O
O      0.71387  0.71943  0.60453     O
O      0.71923  0.57197  0.14817     O
O      0.71943  0.00557  0.39547     O
P      0.71978  0.62708  0.09377     P
C      0.72347  0.84643  0.34733     C
Ni     0.72387  0.02881  0.71837    Ni
P      0.75937  0.05312  0.23957     P
O      0.76137  0.81393  0.81483     O
C      0.77503  0.11987  0.39667     C
C      0.77663  0.14867  0.75067     C
N      0.77663  0.66047  0.69607     N
N      0.78283  0.10997  0.63727     N
C      0.78653  0.67817  0.93667     C
C      0.78963  0.60987  0.68067     C
O      0.81393  0.05257  0.18517     O
C      0.81533  0.70537  0.58267     C
C      0.82023  0.21037  0.68067     C
C      0.84643  0.12297  0.65267     C
C      0.85133  0.62797  0.75067     C
O      0.85273  0.28077  0.14817     O
C      0.87703  0.72347  0.65267     C
C      0.88013  0.65517  0.39667     C
N      0.88383  0.22337  0.69607     N
C      0.89003  0.18467  0.58267     C
N      0.89003  0.67287  0.63727     N
C      0.89163  0.21347  0.93667     C
O       0.9053   0.5194   0.5185     O
P      0.90729  0.28022  0.09377     P
Ni     0.94279  0.30453  0.61497    Ni
C       0.9432   0.4869    0.986     C
P      0.94688  0.70626  0.23957     P
O      0.94723  0.32777  0.93787     O
O      0.94743  0.76137  0.18517     O
O       0.9528   0.6139   0.7288     O
O      0.95353  0.29727  0.29747     O
P      0.96041  0.57396   0.5729     P
C       0.9613   0.4433    0.916     C
O      0.96393  0.67707  0.03587     O
Ni     0.97119  0.69507  0.71837    Ni
Ni      0.9716  0.60946   0.0517    Ni
C       0.9885   0.4417     0.27     C
O       0.9896   0.6202   0.3692     O
N       0.9938   0.5505   0.9706     N
O      0.99443  0.71387  0.39547     O
