data_I
_chemical_name_common  '/home/zhangsd/repos/MofS-CGCNN/ML/data/TSD/clean_cifs/YIBMUT_clean'
_cell_length_a 13.94110
_cell_length_b 17.08170
_cell_length_c  7.66800
_cell_angle_alpha 90.00000
_cell_angle_beta  91.97400
_cell_angle_gamma 90.00000
_space_group_name_H-M_alt      'P 1'


loop_
_space_group_symop_operation_xyz
  'x, y, z' 

loop_
_atom_site_label
_atom_site_fract_x
_atom_site_fract_y
_atom_site_fract_z
_atom_site_type_symbol
O       0.0231   0.6183   0.3268     O
O       0.0231   0.8817   0.8268     O
H         0.05   0.2484   0.6945     H
H         0.05   0.2516   0.1945     H
C       0.0639   0.0977   0.1511     C
C       0.0639   0.4023   0.6511     C
O       0.0733   0.1024   0.7502     O
O       0.0733   0.3976   0.2502     O
O       0.0862   0.0284   0.1247     O
O       0.0862   0.4716   0.6247     O
C       0.1139   0.2381   0.1805     C
C       0.1139   0.2619   0.6805     C
Cd     0.12674  0.52202  0.35893    Cd
Cd     0.12674  0.97798  0.85893    Cd
C       0.1388   0.1598   0.1542     C
C       0.1388   0.3402   0.6542     C
C       0.1601   0.1208   0.7205     C
C       0.1601   0.3792   0.2205     C
C       0.1846   0.2039   0.6858     C
C       0.1846   0.2961   0.1858     C
O       0.2237   0.0706   0.7314     O
O       0.2237   0.4294   0.2314     O
C       0.2338   0.1403   0.1342     C
C       0.2338   0.3597   0.6342     C
O       0.2404    0.618   0.2887     O
O       0.2404    0.882   0.7887     O
H       0.2502   0.0882   0.1177     H
H       0.2502   0.4118   0.6177     H
O       0.2738   0.5564   0.5333     O
O       0.2738   0.9436   0.0333     O
C       0.2795   0.2252   0.6627     C
C       0.2795   0.2748   0.1627     C
C       0.2986   0.5996   0.4129     C
C       0.2986   0.9004   0.9129     C
C       0.3059   0.1968   0.1382     C
C       0.3059   0.3032   0.6382     C
H       0.3266   0.1866   0.6636     H
H       0.3266   0.3134   0.1636     H
H       0.3775   0.7134   0.2231     H
H       0.3775   0.7866   0.7231     H
H       0.3867   0.0915   0.9298     H
H       0.3867   0.4085   0.4298     H
C       0.3989   0.6293   0.4068     C
C       0.3989   0.8707   0.9068     C
C       0.4093   0.1752   0.1181     C
C       0.4093   0.3248   0.6181     C
C       0.4245   0.6892    0.293     C
C       0.4245   0.8108    0.793     C
C       0.4336   0.1158      0.0     C
C       0.4336   0.3842      0.5     C
H       0.4538   0.5554   0.5862     H
H       0.4538   0.9446   0.0862     H
H       0.4651   0.2461   0.7895     H
H       0.4651   0.2539   0.2895     H
C       0.4705   0.5946   0.5087     C
C       0.4705   0.9054   0.0087     C
C       0.4809   0.2127   0.2166     C
C       0.4809   0.2873   0.7166     C
C       0.5191   0.7127   0.2834     C
C       0.5191   0.7873   0.7834     C
C       0.5295   0.0946   0.9913     C
C       0.5295   0.4054   0.4913     C
H       0.5349   0.7461   0.7105     H
H       0.5349   0.7539   0.2105     H
H       0.5462   0.0554   0.9138     H
H       0.5462   0.4446   0.4138     H
C       0.5664   0.6158      0.5     C
C       0.5664   0.8842      0.0     C
C       0.5755   0.1892    0.207     C
C       0.5755   0.3108    0.707     C
C       0.5907   0.6752   0.3819     C
C       0.5907   0.8248   0.8819     C
C       0.6011   0.1293   0.0932     C
C       0.6011   0.3707   0.5932     C
H       0.6133   0.5915   0.5702     H
H       0.6133   0.9085   0.0702     H
H       0.6225   0.2134   0.2769     H
H       0.6225   0.2866   0.7769     H
H       0.6734   0.6866   0.8364     H
H       0.6734   0.8134   0.3364     H
C       0.6941   0.6968   0.3618     C
C       0.6941   0.8032   0.8618     C
C       0.7014   0.0996   0.0871     C
C       0.7014   0.4004   0.5871     C
C       0.7205   0.7252   0.8373     C
C       0.7205   0.7748   0.3373     C
O       0.7262   0.0564   0.9667     O
O       0.7262   0.4436   0.4667     O
H       0.7498   0.5882   0.3823     H
H       0.7498   0.9118   0.8823     H
O       0.7596    0.118   0.2113     O
O       0.7596    0.382   0.7113     O
C       0.7662   0.6403   0.3658     C
C       0.7662   0.8597   0.8658     C
O       0.7763   0.5706   0.7686     O
O       0.7763   0.9294   0.2686     O
C       0.8154   0.7039   0.8142     C
C       0.8154   0.7961   0.3142     C
C       0.8399   0.6208   0.7795     C
C       0.8399   0.8792   0.2795     C
C       0.8612   0.6598   0.3458     C
C       0.8612   0.8402   0.8458     C
Cd     0.87326  0.02202  0.14107    Cd
Cd     0.87326  0.47798  0.64107    Cd
C       0.8861   0.7381   0.3195     C
C       0.8861   0.7619   0.8195     C
O       0.9138   0.5284   0.3753     O
O       0.9138   0.9716   0.8753     O
O       0.9267   0.6024   0.7498     O
O       0.9267   0.8976   0.2498     O
C       0.9361   0.5977   0.3489     C
C       0.9361   0.9023   0.8489     C
H         0.95   0.7484   0.8055     H
H         0.95   0.7516   0.3055     H
O       0.9769   0.1183   0.1732     O
O       0.9769   0.3817   0.6732     O
