data_I
_chemical_name_common  '/home/zhangsd/repos/MofS-CGCNN/ML/data/TSD/clean_cifs/YIJYUN_clean'
_cell_length_a  8.70000
_cell_length_b 11.45170
_cell_length_c 23.04910
_cell_angle_alpha 90.00000
_cell_angle_beta  90.00000
_cell_angle_gamma 90.00000
_space_group_name_H-M_alt      'P 1'


loop_
_space_group_symop_operation_xyz
  'x, y, z' 

loop_
_atom_site_label
_atom_site_fract_x
_atom_site_fract_y
_atom_site_fract_z
_atom_site_type_symbol
C       0.0157   0.3959   0.1366     C
O       0.0217    0.304   0.1063     O
O       0.0231   0.3787    0.723     O
H       0.0291   0.6224    0.461     H
O       0.0371   0.1491    0.215     O
H       0.0378   0.4622   0.5218     H
H       0.0397   0.3023   0.5602     H
H       0.0427    0.224   0.6554     H
C       0.0472   0.6125   0.1269     C
C       0.0574    0.147   0.2702     C
H       0.0629   0.1049   0.3786     H
O       0.0667   0.8986   0.3199     O
H       0.0673   0.0729   0.7211     H
C       0.0723   0.5538   0.4469     C
C       0.0747   0.4575    0.484     C
C       0.0796   0.1518   0.6433     C
C       0.0832   0.6486     0.19     C
H       0.0857   0.6707      0.1     H
C       0.0944     0.06   0.6826     C
C       0.0976   0.2399   0.5464     C
O       0.1044   0.6651   0.6237     O
C       0.1202   0.1339   0.5867     C
H       0.1222   0.7289    0.189     H
C       0.1257    0.497   0.1169     C
N       0.1284   0.5557   0.3911     N
Zn     0.13304  0.70933  0.34115    Zn
C       0.1355   0.3526   0.4616     C
N       0.1464    0.953   0.6674     N
C       0.1514   0.2469   0.4975     C
Zn     0.15229  0.82596  0.72796    Zn
H       0.1548   0.4485   0.6366     H
H       0.1553   0.4879   0.0762     H
C       0.1568   0.3709   0.7425     C
C       0.1648   0.6161   0.6652     C
O       0.1696   0.6584   0.7159     O
H       0.1698   0.5123   0.2374     H
C       0.1739   0.0261   0.5703     C
O       0.1829   0.3148    0.788     O
C       0.1844   0.9384   0.6129     C
C       0.1855    0.451   0.3724     C
O       0.1915   0.1533   0.2902     O
C       0.1958   0.3513    0.406     C
H       0.2026   0.0114   0.5321     H
H       0.2042   0.1832   0.4824     H
C       0.2144   0.5699   0.2108     C
H       0.2201   0.4466   0.3343     H
H       0.2207   0.8655   0.6016     H
C       0.2321   0.4965   0.6562     C
H       0.2424   0.2844   0.3914     H
H       0.2576   0.7156   0.8914     H
C       0.2679   0.5035   0.1562     C
H       0.2793   0.1345   0.1016     H
H       0.2799   0.5534   0.8343     H
C       0.2856   0.4301   0.7108     C
H       0.2958   0.8168   0.9824     H
H       0.2974   0.9886   0.0321     H
C       0.3042   0.6487    0.906     C
O       0.3085   0.8467   0.7902     O
C       0.3145    0.549   0.8724     C
C       0.3156   0.0616   0.1129     C
O       0.3171   0.6852    0.288     O
C       0.3261   0.9739   0.0703     C
H       0.3302   0.4877   0.7374     H
O       0.3304   0.3416   0.2159     O
C       0.3352   0.3839   0.1652     C
C       0.3432   0.6291   0.2425     C
H       0.3447   0.5121   0.5762     H
H       0.3452   0.5515   0.1366     H
Zn     0.34771  0.17404  0.22796    Zn
C       0.3486   0.7531   0.9975     C
N       0.3536    0.047   0.1674     N
C       0.3645   0.6474   0.9616     C
Zn     0.36696  0.29067  0.84115    Zn
N       0.3716   0.4443   0.8911     N
C       0.3743    0.503   0.6169     C
H       0.3778   0.2711    0.689     H
C       0.3798   0.8661   0.0867     C
O       0.3956   0.3349   0.1237     O
C       0.4024   0.7601   0.0464     C
C       0.4056     0.94   0.1826     C
H       0.4143   0.3293      0.6     H
C       0.4168   0.3514     0.69     C
C       0.4204   0.8482   0.1433     C
C       0.4253   0.5425    0.984     C
C       0.4277   0.4462   0.9469     C
H       0.4327   0.9271   0.2211     H
O       0.4333   0.1014   0.8199     O
H       0.4371   0.8951   0.8786     H
C       0.4426    0.853   0.7702     C
C       0.4528   0.3875   0.6269     C
H       0.4573    0.776   0.1554     H
H       0.4603   0.6977   0.0602     H
H       0.4622   0.5378   0.0218     H
O       0.4629   0.8509    0.715     O
H       0.4709   0.3776    0.961     H
O       0.4769   0.6213    0.223     O
O       0.4783    0.696   0.6063     O
C       0.4843   0.6041   0.6366     C
C       0.5157   0.1041   0.8634     C
O       0.5217    0.196   0.8937     O
O       0.5231   0.1213    0.277     O
H       0.5291   0.8776    0.539     H
O       0.5371   0.3509    0.785     O
H       0.5378   0.0378   0.4782     H
H       0.5397   0.1977   0.4398     H
H       0.5427    0.276   0.3446     H
C       0.5472   0.8875   0.8731     C
C       0.5574    0.353   0.7298     C
H       0.5629   0.3951   0.6214     H
O       0.5667   0.6014   0.6801     O
H       0.5673   0.4271   0.2789     H
C       0.5723   0.9462   0.5531     C
C       0.5747   0.0425    0.516     C
C       0.5796   0.3482   0.3567     C
C       0.5832   0.8514     0.81     C
H       0.5857   0.8293      0.9     H
C       0.5944     0.44   0.3174     C
C       0.5976   0.2601   0.4536     C
O       0.6044   0.8349   0.3763     O
C       0.6202   0.3661   0.4133     C
H       0.6222   0.7711    0.811     H
C       0.6257    0.003   0.8831     C
N       0.6284   0.9443   0.6089     N
Zn     0.63304  0.79067  0.65885    Zn
C       0.6355   0.1474   0.5384     C
N       0.6464    0.547   0.3326     N
C       0.6514   0.2531   0.5025     C
Zn     0.65229  0.67404  0.27204    Zn
H       0.6548   0.0515   0.3634     H
H       0.6553   0.0121   0.9238     H
C       0.6568   0.1291   0.2575     C
C       0.6648   0.8839   0.3348     C
O       0.6696   0.8416   0.2841     O
H       0.6698   0.9877   0.7626     H
C       0.6739   0.4739   0.4297     C
O       0.6829   0.1852    0.212     O
C       0.6844   0.5616   0.3871     C
C       0.6855    0.049   0.6276     C
O       0.6915   0.3467   0.7098     O
C       0.6958   0.1487    0.594     C
H       0.7026   0.4886   0.4679     H
H       0.7042   0.3168   0.5176     H
C       0.7144   0.9301   0.7892     C
H       0.7201   0.0534   0.6657     H
H       0.7207   0.6345   0.3984     H
C       0.7321   0.0035   0.3438     C
H       0.7424   0.2156   0.6086     H
H       0.7576   0.7844   0.1086     H
C       0.7679   0.9965   0.8438     C
H       0.7793   0.3655   0.8984     H
H       0.7799   0.9466   0.1657     H
C       0.7856   0.0699   0.2892     C
H       0.7958   0.6832   0.0176     H
H       0.7974   0.5114   0.9679     H
C       0.8042   0.8513    0.094     C
O       0.8085   0.6533   0.2098     O
C       0.8145    0.951   0.1276     C
C       0.8156   0.4384   0.8871     C
O       0.8171   0.8148    0.712     O
C       0.8261   0.5261   0.9297     C
H       0.8302   0.0123   0.2626     H
O       0.8304   0.1584   0.7841     O
C       0.8352   0.1161   0.8348     C
C       0.8432   0.8709   0.7575     C
H       0.8447   0.9879   0.4238     H
H       0.8452   0.9485   0.8634     H
Zn     0.84771  0.32596  0.77204    Zn
C       0.8486   0.7469   0.0025     C
N       0.8536    0.453   0.8326     N
C       0.8645   0.8526   0.0384     C
Zn     0.86696  0.20933  0.15885    Zn
N       0.8716   0.0557   0.1089     N
C       0.8743    0.997   0.3831     C
H       0.8778   0.2289    0.311     H
C       0.8798   0.6339   0.9133     C
O       0.8956   0.1651   0.8763     O
C       0.9024   0.7399   0.9536     C
C       0.9056     0.56   0.8174     C
H       0.9143   0.1707      0.4     H
C       0.9168   0.1486     0.31     C
C       0.9204   0.6518   0.8567     C
C       0.9253   0.9575    0.016     C
C       0.9277   0.0538   0.0531     C
H       0.9327   0.5729   0.7789     H
O       0.9333   0.3986   0.1801     O
H       0.9371   0.6049   0.1214     H
C       0.9426    0.647   0.2298     C
C       0.9528   0.1125   0.3731     C
H       0.9573    0.724   0.8446     H
H       0.9603   0.8023   0.9398     H
H       0.9622   0.9622   0.9782     H
O       0.9629   0.6491    0.285     O
H       0.9709   0.1224    0.039     H
O       0.9769   0.8787    0.777     O
O       0.9783    0.804   0.3937     O
C       0.9843   0.8959   0.3634     C
