data_I
_chemical_name_common  '/home/zhangsd/repos/MofS-CGCNN/ML/data/TSD/clean_cifs/YIPDOR_clean'
_cell_length_a 18.44300
_cell_length_b 18.44300
_cell_length_c 15.16600
_cell_angle_alpha 90.00000
_cell_angle_beta  90.00000
_cell_angle_gamma 90.00000
_space_group_name_H-M_alt      'P 1'


loop_
_space_group_symop_operation_xyz
  'x, y, z' 

loop_
_atom_site_label
_atom_site_fract_x
_atom_site_fract_y
_atom_site_fract_z
_atom_site_type_symbol
Cu         0.0      0.0      0.5    Cu
C       0.0102   0.3488   0.7688     C
C       0.0146   0.6313   0.5914     C
H       0.0182    0.342   0.8288     H
H       0.0216   0.8597   0.3742     H
H       0.0223   0.6245   0.5313     H
N       0.0316   0.8946   0.4993     N
C       0.0336   0.4114   0.6355     C
C       0.0356   0.8478   0.4313     C
C       0.0394   0.6958   0.7262     C
C       0.0475   0.4017   0.7265     C
H       0.0523    0.442    0.895     H
C        0.053   0.6859   0.6374     C
H        0.058   0.4477    0.605     H
C       0.0586   0.8564   0.5654     C
N       0.0606   0.7844   0.4529     N
H       0.0634   0.7321   0.7572     H
H       0.0651   0.8737   0.6225     H
N        0.075   0.7908   0.5392     N
C       0.0886   0.4664   0.8645     C
C       0.0983   0.4525   0.7735     C
N       0.1054   0.0316   0.5007     N
C       0.1091    0.732   0.5913     C
H       0.1245   0.5223   0.9687     H
H       0.1263   0.0651   0.3775     H
C       0.1313   0.5146   0.9086     C
H       0.1379   0.7017   0.5525     H
H       0.1403   0.0216   0.6258     H
H       0.1413   0.7531   0.6349     H
C       0.1436   0.0586   0.4346     C
C       0.1512   0.4898   0.7312     C
C       0.1522   0.0356   0.5687     C
H        0.158   0.4818   0.6712     H
C       0.1859    0.553   0.8626     C
C       0.1958   0.5394   0.7738     C
H       0.2017   0.6379   0.9475     H
N       0.2092    0.075   0.4608     N
N       0.2156   0.0606   0.5471     N
C        0.232   0.6091   0.9087     C
H       0.2321   0.5634   0.7428     H
H       0.2469   0.1413   0.3651     H
H       0.2531   0.6413   0.8651     H
H       0.2679   0.0634   0.2428     H
C        0.268   0.1091   0.4087     C
N       0.2844   0.5606   0.0471     N
N       0.2908    0.575   0.9608     N
H       0.2983   0.1379   0.4475     H
C       0.3042   0.0394   0.2738     C
C       0.3141    0.053   0.3626     C
H        0.342   0.9818   0.1712     H
C       0.3478   0.5356   0.0687     C
C       0.3488   0.9898   0.2312     C
C       0.3564   0.5586   0.9346     C
H       0.3587   0.2531   0.1349     H
H       0.3597   0.5216   0.1258     H
H       0.3621   0.2017   0.0525     H
C       0.3687   0.0146   0.4086     C
H       0.3737   0.5651   0.8775     H
H       0.3755   0.0223   0.4687     H
C       0.3909    0.232   0.0913     C
N       0.3946   0.5316   0.0007     N
C       0.4017   0.9525   0.2735     C
C       0.4114   0.9664   0.3645     C
N        0.425   0.2908   0.0392     N
H       0.4349   0.3737   0.1225     H
H       0.4366   0.2321   0.2572     H
N       0.4394   0.2844   0.9529     N
C       0.4414   0.3564   0.0654     C
H        0.442   0.9477    0.105     H
C        0.447   0.1859   0.1374     C
H       0.4477    0.942    0.395     H
C       0.4525   0.9017   0.2265     C
C       0.4606   0.1958   0.2262     C
C       0.4644   0.3478   0.9313     C
C       0.4664   0.9114   0.1355     C
N       0.4684   0.3946   0.9993     N
H       0.4777   0.1245   0.0313     H
H       0.4784   0.3597   0.8742     H
H       0.4818    0.842   0.3288     H
C       0.4854   0.1313   0.0914     C
C       0.4898   0.8488   0.2688     C
Cu         0.5      0.5      0.0    Cu
C       0.5102   0.1512   0.2688     C
C       0.5146   0.8687   0.0914     C
H       0.5182    0.158   0.3288     H
H       0.5216   0.6403   0.8742     H
H       0.5223   0.8755   0.0313     H
N       0.5316   0.6054   0.9993     N
C       0.5336   0.0886   0.1355     C
C       0.5356   0.6522   0.9313     C
C       0.5394   0.8042   0.2262     C
C       0.5475   0.0983   0.2265     C
H       0.5523    0.058    0.395     H
C        0.553   0.8141   0.1374     C
H        0.558   0.0523    0.105     H
C       0.5586   0.6436   0.0654     C
N       0.5606   0.7156   0.9529     N
H       0.5634   0.7679   0.2572     H
H       0.5651   0.6263   0.1225     H
N        0.575   0.7092   0.0392     N
C       0.5886   0.0336   0.3645     C
C       0.5983   0.0475   0.2735     C
N       0.6054   0.4684   0.0007     N
C       0.6091    0.768   0.0913     C
H       0.6245   0.9777   0.4687     H
H       0.6263   0.4349   0.8775     H
C       0.6313   0.9854   0.4086     C
H       0.6379   0.7983   0.0525     H
H       0.6403   0.4784   0.1258     H
H       0.6413   0.7469   0.1349     H
C       0.6436   0.4414   0.9346     C
C       0.6512   0.0102   0.2312     C
C       0.6522   0.4644   0.0687     C
H        0.658   0.0182   0.1712     H
C       0.6859    0.947   0.3626     C
C       0.6958   0.9606   0.2738     C
H       0.7017   0.8621   0.4475     H
N       0.7092    0.425   0.9608     N
N       0.7156   0.4394   0.0471     N
C        0.732   0.8909   0.4087     C
H       0.7321   0.9366   0.2428     H
H       0.7469   0.3587   0.8651     H
H       0.7531   0.8587   0.3651     H
H       0.7679   0.4366   0.7428     H
C        0.768   0.3909   0.9087     C
N       0.7844   0.9394   0.5471     N
N       0.7908    0.925   0.4608     N
H       0.7983   0.3621   0.9475     H
C       0.8042   0.4606   0.7738     C
C       0.8141    0.447   0.8626     C
H        0.842   0.5182   0.6712     H
C       0.8478   0.9644   0.5687     C
C       0.8488   0.5102   0.7312     C
C       0.8564   0.9414   0.4346     C
H       0.8587   0.2469   0.6349     H
H       0.8597   0.9784   0.6258     H
H       0.8621   0.2983   0.5525     H
C       0.8687   0.4854   0.9086     C
H       0.8737   0.9349   0.3775     H
H       0.8755   0.4777   0.9687     H
C       0.8909    0.268   0.5913     C
N       0.8946   0.9684   0.5007     N
C       0.9017   0.5475   0.7735     C
C       0.9114   0.5336   0.8645     C
N        0.925   0.2092   0.5392     N
H       0.9349   0.1263   0.6225     H
H       0.9366   0.2679   0.7572     H
N       0.9394   0.2156   0.4529     N
C       0.9414   0.1436   0.5654     C
H        0.942   0.5523    0.605     H
C        0.947   0.3141   0.6374     C
H       0.9477    0.558    0.895     H
C       0.9525   0.5983   0.7265     C
C       0.9606   0.3042   0.7262     C
C       0.9644   0.1522   0.4313     C
C       0.9664   0.5886   0.6355     C
N       0.9684   0.1054   0.4993     N
H       0.9777   0.3755   0.5313     H
H       0.9784   0.1403   0.3742     H
H       0.9818    0.658   0.8288     H
C       0.9854   0.3687   0.5914     C
C       0.9898   0.6512   0.7688     C
