data_I
_chemical_name_common  '/home/zhangsd/repos/MofS-CGCNN/ML/data/TSD/clean_cifs/YITHIU01_clean'
_cell_length_a 21.96300
_cell_length_b  7.65770
_cell_length_c  6.16890
_cell_angle_alpha 90.00000
_cell_angle_beta  91.48000
_cell_angle_gamma 90.00000
_space_group_name_H-M_alt      'P 1'


loop_
_space_group_symop_operation_xyz
  'x, y, z' 

loop_
_atom_site_label
_atom_site_fract_x
_atom_site_fract_y
_atom_site_fract_z
_atom_site_type_symbol
S          0.0   0.2451      0.0     S
O       0.0373   0.3558   0.1486     O
O       0.0439   0.1383   0.8858     O
H       0.0838   0.9915   0.4242     H
H       0.1062   0.6129   0.9387     H
O       0.1115   0.0478   0.3569     O
H       0.1168   0.6789   0.6325     H
H       0.1333    0.113    0.442     H
O       0.1377   0.5559   0.9028     O
Ce     0.14532  0.24659  0.05006    Ce
C       0.1504   0.6074   0.6907     C
C       0.1556   0.4392   0.5547     C
O        0.156   0.2989   0.6555     O
O       0.1591   0.4555   0.3534     O
O       0.1647   0.9618   0.8608     O
C       0.2071   0.8543   0.8628     C
C       0.2097   0.7123   0.6862     C
H       0.2118   0.7702   0.5449     H
O      0.23679   0.1092   0.2825     O
H       0.2451   0.0242   0.1986     H
O       0.2499   0.3545   0.9956     O
O       0.2501   0.8545   0.0044     O
H       0.2549   0.5242   0.8014     H
O      0.26321   0.6092   0.7175     O
H       0.2882   0.2702   0.4551     H
C       0.2903   0.2123   0.3138     C
C       0.2929   0.3543   0.1372     C
O       0.3353   0.4618   0.1392     O
O       0.3409   0.9555   0.6466     O
O        0.344   0.7989   0.3445     O
C       0.3444   0.9392   0.4453     C
C       0.3496   0.1074   0.3093     C
Ce     0.35468  0.74659  0.94994    Ce
O       0.3623   0.0559   0.0972     O
H       0.3667    0.613    0.558     H
H       0.3832   0.1789   0.3675     H
O       0.3885   0.5478   0.6431     O
H       0.3938   0.1129   0.0613     H
H       0.4162   0.4915   0.5758     H
O       0.4561   0.6383   0.1142     O
O       0.4627   0.8558   0.8514     O
S          0.5   0.7451      0.0     S
O       0.5373   0.8558   0.1486     O
O       0.5439   0.6383   0.8858     O
H       0.5838   0.4915   0.4242     H
H       0.6062   0.1129   0.9387     H
O       0.6115   0.5478   0.3569     O
H       0.6168   0.1789   0.6325     H
H       0.6333    0.613    0.442     H
O       0.6377   0.0559   0.9028     O
Ce     0.64532  0.74659  0.05006    Ce
C       0.6504   0.1074   0.6907     C
C       0.6556   0.9392   0.5547     C
O        0.656   0.7989   0.6555     O
O       0.6591   0.9555   0.3534     O
O       0.6647   0.4618   0.8608     O
C       0.7071   0.3543   0.8628     C
C       0.7097   0.2123   0.6862     C
H       0.7118   0.2702   0.5449     H
O      0.73679   0.6092   0.2825     O
H       0.7451   0.5242   0.1986     H
O       0.7499   0.8545   0.9956     O
O       0.7501   0.3545   0.0044     O
H       0.7549   0.0242   0.8014     H
O      0.76321   0.1092   0.7175     O
H       0.7882   0.7702   0.4551     H
C       0.7903   0.7123   0.3138     C
C       0.7929   0.8543   0.1372     C
O       0.8353   0.9618   0.1392     O
O       0.8409   0.4555   0.6466     O
O        0.844   0.2989   0.3445     O
C       0.8444   0.4392   0.4453     C
C       0.8496   0.6074   0.3093     C
Ce     0.85468  0.24659  0.94994    Ce
O       0.8623   0.5559   0.0972     O
H       0.8667    0.113    0.558     H
H       0.8832   0.6789   0.3675     H
O       0.8885   0.0478   0.6431     O
H       0.8938   0.6129   0.0613     H
H       0.9162   0.9915   0.5758     H
O       0.9561   0.1383   0.1142     O
O       0.9627   0.3558   0.8514     O
