data_I
_chemical_name_common  '/home/zhangsd/repos/MofS-CGCNN/ML/data/TSD/clean_cifs/YIZGOF_clean'
_cell_length_a 18.69800
_cell_length_b 18.69800
_cell_length_c  9.39500
_cell_angle_alpha 90.00000
_cell_angle_beta  90.00000
_cell_angle_gamma 90.00000
_space_group_name_H-M_alt      'P 1'


loop_
_space_group_symop_operation_xyz
  'x, y, z' 

loop_
_atom_site_label
_atom_site_fract_x
_atom_site_fract_y
_atom_site_fract_z
_atom_site_type_symbol
O          0.0   0.3654   0.7232     O
O          0.0   0.6346   0.2768     O
O       0.0033   0.1573   0.0039     O
O       0.0052   0.4849   0.3232     O
O       0.0105   0.8709   0.2873     O
O       0.0142   0.3418   0.9878     O
O       0.0151   0.0052   0.3232     O
Al     0.04546  0.16546   0.8412    Al
P      0.04916  0.33409   0.8393     P
Al     0.05229  0.56429   0.3343    Al
P      0.05626  0.93439   0.3365     P
O       0.0569    0.871   0.7643     O
O       0.0594   0.6249   0.7534     O
O       0.0619   0.2543    0.805     O
Al     0.06381  0.66629   0.9156    Al
Al     0.06429  0.94771   0.6657    Al
P      0.06561  0.55626   0.6635     P
P      0.06608  0.83397   0.9089     P
O       0.0783   0.5793   0.5084     O
O       0.0793   0.9217   0.4916     O
O       0.0829   0.7545   0.8802     O
O       0.1224   0.3727   0.8411     O
O       0.1249   0.9406   0.2466     O
O       0.1273   0.1224   0.8411     O
O        0.129   0.5569   0.2357     O
O       0.1291   0.5105   0.7127     O
O       0.1306   0.8661   0.9894     O
O       0.1339   0.6306   0.0106     O
O       0.1346      0.0   0.7232     O
O       0.1573   0.4967   0.0039     O
O       0.1582   0.0142   0.9878     O
Al     0.16546  0.45454   0.8412    Al
P      0.16591  0.04916   0.8393     P
P      0.16603  0.56608   0.0911     P
Al     0.16629  0.93619   0.0844    Al
O       0.2455   0.5829   0.1198     O
O       0.2457   0.0619    0.805     O
O       0.2543   0.4381    0.805     O
O       0.2545   0.9171   0.1198     O
Al     0.33371  0.56381   0.0844    Al
P      0.33397  0.93392   0.0911     P
P      0.33409  0.45084   0.8393     P
Al     0.33454  0.04546   0.8412    Al
O       0.3418   0.4858   0.9878     O
O       0.3427   0.0033   0.0039     O
O       0.3654      0.5   0.7232     O
O       0.3661   0.8694   0.0106     O
O       0.3694   0.6339   0.9894     O
O       0.3709   0.9895   0.7127     O
O        0.371   0.9431   0.2357     O
O       0.3727   0.3776   0.8411     O
O       0.3751   0.5594   0.2466     O
O       0.3776   0.1273   0.8411     O
O       0.4171   0.7455   0.8802     O
O       0.4207   0.5783   0.4916     O
O       0.4217   0.9207   0.5084     O
P      0.43392  0.66603   0.9089     P
P      0.43439  0.94374   0.6635     P
Al     0.43571  0.55229   0.6657    Al
Al     0.43619  0.83371   0.9156    Al
O       0.4381   0.2457    0.805     O
O       0.4406   0.8751   0.7534     O
O       0.4431    0.629   0.7643     O
P      0.44374  0.56561   0.3365     P
Al     0.44771  0.93571   0.3343    Al
P      0.45084  0.16591   0.8393     P
Al     0.45454  0.33454   0.8412    Al
O       0.4849   0.4948   0.3232     O
O       0.4858   0.1582   0.9878     O
O       0.4895   0.6291   0.2873     O
O       0.4948   0.0151   0.3232     O
O       0.4967   0.3427   0.0039     O
O          0.5   0.1346   0.7232     O
O          0.5   0.8654   0.2768     O
O       0.5033   0.6573   0.9961     O
O       0.5052   0.9849   0.6768     O
O       0.5105   0.3709   0.7127     O
O       0.5142   0.8418   0.0122     O
O       0.5151   0.5052   0.6768     O
Al     0.54546  0.66546   0.1588    Al
P      0.54916  0.83409   0.1607     P
Al     0.55229  0.06429   0.6657    Al
P      0.55626  0.43439   0.6635     P
O       0.5569    0.371   0.2357     O
O       0.5594   0.1249   0.2466     O
O       0.5619   0.7543    0.195     O
Al     0.56381  0.16629   0.0844    Al
Al     0.56429  0.44771   0.3343    Al
P      0.56561  0.05626   0.3365     P
P      0.56608  0.33397   0.0911     P
O       0.5783   0.0793   0.4916     O
O       0.5793   0.4217   0.5084     O
O       0.5829   0.2545   0.1198     O
O       0.6224   0.8727   0.1589     O
O       0.6249   0.4406   0.7534     O
O       0.6273   0.6224   0.1589     O
O        0.629   0.0569   0.7643     O
O       0.6291   0.0105   0.2873     O
O       0.6306   0.3661   0.0106     O
O       0.6339   0.1306   0.9894     O
O       0.6346      0.5   0.2768     O
O       0.6573   0.9967   0.9961     O
O       0.6582   0.5142   0.0122     O
Al     0.66546  0.95454   0.1588    Al
P      0.66591  0.54916   0.1607     P
P      0.66603  0.06608   0.9089     P
Al     0.66629  0.43619   0.9156    Al
O       0.7455   0.0829   0.8802     O
O       0.7457   0.5619    0.195     O
O       0.7543   0.9381    0.195     O
O       0.7545   0.4171   0.8802     O
Al     0.83371  0.06381   0.9156    Al
P      0.83397  0.43392   0.9089     P
P      0.83409  0.95084   0.1607     P
Al     0.83454  0.54546   0.1588    Al
O       0.8418   0.9858   0.0122     O
O       0.8427   0.5033   0.9961     O
O       0.8654      0.0   0.2768     O
O       0.8661   0.3694   0.9894     O
O       0.8694   0.1339   0.0106     O
O       0.8709   0.4895   0.2873     O
O        0.871   0.4431   0.7643     O
O       0.8727   0.8776   0.1589     O
O       0.8751   0.0594   0.7534     O
O       0.8776   0.6273   0.1589     O
O       0.9171   0.2455   0.1198     O
O       0.9207   0.0783   0.5084     O
O       0.9217   0.4207   0.4916     O
P      0.93392  0.16603   0.0911     P
P      0.93439  0.44374   0.3365     P
Al     0.93571  0.05229   0.3343    Al
Al     0.93619  0.33371   0.0844    Al
O       0.9381   0.7457    0.195     O
O       0.9406   0.3751   0.2466     O
O       0.9431    0.129   0.2357     O
P      0.94374  0.06561   0.6635     P
Al     0.94771  0.43571   0.6657    Al
P      0.95084  0.66591   0.1607     P
Al     0.95454  0.83454   0.1588    Al
O       0.9849   0.9948   0.6768     O
O       0.9858   0.6582   0.0122     O
O       0.9895   0.1291   0.7127     O
O       0.9948   0.5151   0.6768     O
O       0.9967   0.8427   0.9961     O
