data_I
_chemical_name_common  '/home/zhangsd/repos/MofS-CGCNN/ML/data/TSD/clean_cifs/YOBYEV_clean'
_cell_length_a 25.33000
_cell_length_b 25.33000
_cell_length_c 33.46700
_cell_angle_alpha 90.00000
_cell_angle_beta  90.00000
_cell_angle_gamma 90.00000
_space_group_name_H-M_alt      'P 1'


loop_
_space_group_symop_operation_xyz
  'x, y, z' 

loop_
_atom_site_label
_atom_site_fract_x
_atom_site_fract_y
_atom_site_fract_z
_atom_site_type_symbol
H       0.0118   0.1595    0.441     H
C        0.012   0.2427   0.8032     C
H       0.0145   0.2738   0.2757     H
C       0.0147   0.7214  0.90825     C
H       0.0198   0.7771   0.8016     H
C       0.0205   0.7863  0.33606     C
C       0.0207    0.723   0.8662     C
C       0.0218   0.2739  0.83646     C
C       0.0226    0.786   0.3777     C
C       0.0249   0.2202  0.40253     C
C       0.0298    0.211   0.3128     C
C        0.035   0.1878   0.4349     C
H        0.036    0.334   0.9637     H
C        0.038    0.268  0.92755     C
C       0.0401   0.2479   0.2827     C
H       0.0424   0.2178   0.7497     H
C       0.0486   0.2402  0.77201     C
H        0.053   0.7153   0.9608     H
H       0.0536   0.2842   0.3712     H
H       0.0557   0.2001   0.8983     H
C       0.0562   0.3036   0.9571     C
C       0.0581   0.7166  0.93274     C
H       0.0591   0.1467   0.3423     H
C       0.0605   0.2616   0.3932     C
H       0.0662   0.7848   0.2862     H
C       0.0665    0.172   0.3222     C
C       0.0673   0.2238   0.9185     C
C       0.0676   0.3037   0.8388     C
C       0.0679   0.7854  0.31452     C
C       0.0724   0.7176   0.8514     C
C       0.0725   0.7885  0.39602     C
H       0.0741    0.325   0.8617     H
H       0.0741   0.7907   0.4243     H
H       0.0777   0.7164   0.8233     H
C       0.0796   0.1969   0.4586     C
H       0.0854   0.1763   0.4819     H
C       0.0892   0.2458   0.2629     C
C       0.0944    0.271  0.77397     C
H        0.097   0.2712   0.2429     H
C       0.1036   0.2937   0.9761     C
C       0.1038   0.3024   0.8082     C
C       0.1052    0.269    0.416     C
C       0.1087   0.7135  0.91786     C
O      0.11286    0.254  0.70728     O
C       0.1131   0.2141  0.93879     C
C       0.1151   0.2359  0.44817     C
C       0.1159   0.1707   0.3008     C
H       0.1171   0.3183   0.9949     H
C       0.1171   0.7138  0.87702     C
C       0.1176   0.7854  0.33287     C
C       0.1196    0.788   0.3749     C
C       0.1257   0.2079    0.272     C
H       0.1291   0.2966   0.4098     H
C       0.1315   0.2481  0.96795     C
C       0.1315   0.2708  0.73943     C
H       0.1328   0.1832   0.9327     H
H       0.1352   0.3227     0.81     H
Zn     0.13833  0.23217  0.65223    Zn
H       0.1415   0.1444   0.3066     H
H       0.1444   0.8585   0.6934     H
H       0.1467   0.9409   0.6577     H
O      0.14771  0.69629  0.98036     O
Co     0.15437  0.73424  0.03499    Co
C      0.15506   0.7133  0.94575     C
O      0.15768    0.777   0.2695     O
H       0.1595   0.9882    0.559     H
C       0.1633   0.7833  0.30598     C
C       0.1654   0.2445   0.4725     C
H        0.166    0.536   0.5363     H
O      0.16702  0.30621   0.6382     O
O       0.1675   0.7915   0.7445     O
O      0.16787   0.2237  0.50647     O
C      0.16794   0.7087  0.85573     C
C       0.1681   0.7916  0.40025     C
O      0.17041  0.19974  0.60098     O
C       0.1707   0.8841   0.6992     C
C        0.172   0.9335   0.6778     C
O      0.17387  0.75504    0.426     O
H        0.175   0.5741   0.6383     H
H       0.1763   0.9146   0.5181     H
H       0.1773   0.6352     0.69     H
O       0.1783  0.28553  0.74629     O
O      0.17863  0.74461   0.8314     O
C       0.1791   0.2078   0.2513     C
H       0.1817   0.6171   0.5051     H
C       0.1819   0.2358  0.98933     C
H       0.1832   0.8672   0.0673     H
C       0.1878    0.965   0.5651     C
O       0.1888   0.2464   0.2299     O
O       0.1895  0.80126  0.01178     O
O      0.19379  0.66702   0.8618     O
O      0.19629  0.35229  0.51964     O
C       0.1963   0.5676   0.6612     C
C       0.1964   0.5562   0.5429     C
C       0.1969   0.9204   0.5414     C
C       0.1976   0.6038   0.6918     C
O      0.19802  0.73169  0.93244     O
O      0.19874   0.1895  0.98822     O
O      0.19974  0.82959  0.39902     O
H       0.2001   0.9443   0.1017     H
O      0.20076  0.27126  0.45662     O
O      0.20168   0.2725  0.00914     O
H       0.2034   0.6291   0.0902     H
C       0.2063   0.6036   0.5239     C
C       0.2078   0.8209   0.7487     C
C       0.2079   0.8743    0.728     C
C       0.2084   0.1681  0.59975     C
O       0.2085   0.1675   0.2555     O
C       0.2087  0.33206  0.64427     C
H       0.2093   0.0741   0.5757     H
O      0.20961  0.78554  0.32316     O
C        0.211   0.9702   0.6872     C
C       0.2115   0.0725  0.60398     C
C        0.212   0.1196   0.6251     C
C       0.2133  0.34494  0.55425     C
C       0.2135   0.3913  0.58214     C
C       0.2137   0.0205  0.66394     C
C       0.2138   0.3829  0.62298     C
C        0.214   0.0226   0.6223     C
C       0.2141   0.8869  0.06121     C
O      0.21446  0.20961  0.67684     O
O      0.21447   0.6783  0.75371     O
C       0.2146   0.0679  0.68548     C
C       0.2146   0.1176  0.66713     C
H       0.2152   0.0662   0.7138     H
H       0.2153    0.447   0.5392     H
H       0.2158   0.5536   0.1288     H
H       0.2164   0.4223   0.6767     H
C       0.2166   0.4419  0.56726     C
C       0.2167   0.1633  0.69402     C
C       0.2176   0.4276   0.6486     C
H       0.2178   0.9576   0.2503     H
C       0.2202   0.9751  0.59747     C
C       0.2214   0.4853  0.59175     C
H       0.2229   0.0198   0.1984     H
O        0.223  0.15768   0.7305     O
C        0.223   0.4793   0.6338     C
O       0.2237  0.83213  0.49353     O
C       0.2238   0.9327   0.0815     C
C       0.2261   0.5218  0.66354     C
H       0.2262   0.5145   0.2243     H
O       0.2275  0.70168  0.49086     O
O      0.22874  0.70076  0.04338     O
H       0.2288    0.597   0.2571     H
C        0.229   0.5944  0.72603     C
C       0.2292   0.6315  0.76057     C
Zn     0.23091  0.73818  0.78855    Zn
C        0.231   0.6052    0.084     C
Zn     0.23111  0.23572  0.53839    Zn
O      0.23169  0.30198  0.56756     O
C        0.232    0.538  0.57245     C
Co     0.23217  0.86167  0.34777    Co
Co     0.23424  0.34563  0.46501    Co
Zn     0.23572  0.76889  0.46161    Zn
C       0.2358   0.8181  0.01067     C
C       0.2359   0.8849  0.55183     C
Zn     0.23818  0.26909  0.71145    Zn
C       0.2384   0.5605   0.1068     C
C       0.2402   0.9514  0.22799     C
C       0.2427    0.988   0.1968     C
C       0.2445   0.8346   0.5275     C
O      0.24461  0.32137   0.6686     O
O      0.24496  0.17387    0.574     O
C       0.2458   0.9108   0.7371     C
O        0.246  0.61286  0.79272     O
O       0.2464   0.8112   0.7701     O
C       0.2479   0.9599   0.7173     C
C       0.2481   0.8685  0.03205     C
C       0.2519   0.6315  0.53205     C
C       0.2521   0.5401   0.2173     C
O       0.2536   0.6888   0.2701     O
O        0.254  0.88714  0.29272     O
C       0.2542   0.5892   0.2371     C
O      0.25504  0.32613    0.074     O
O      0.25539  0.17863   0.1686     O
C       0.2555   0.6654   0.0275     C
C       0.2573    0.512   0.6968     C
C       0.2598   0.5486  0.72799     C
C       0.2616   0.9395   0.6068     C
Zn     0.26182  0.23091  0.21145    Zn
C       0.2641   0.6151  0.05183     C
C       0.2642   0.6819  0.51067     C
Zn     0.26428  0.73111  0.96161    Zn
Co     0.26576  0.15437  0.96501    Co
Co     0.26783  0.63833  0.84777    Co
C        0.268    0.962  0.07245     C
O      0.26831  0.19802  0.06756     O
Zn     0.26889  0.26428  0.03839    Zn
C        0.269   0.8948    0.584     C
Zn     0.26909  0.76182  0.28855    Zn
C       0.2708   0.8685  0.26057     C
C        0.271   0.9056  0.22603     C
H       0.2712    0.903   0.7571     H
O      0.27126  0.79924  0.54338     O
O       0.2725  0.79832  0.99086     O
H       0.2738   0.9855   0.7243     H
C       0.2739   0.9782  0.16354     C
C       0.2762   0.5673   0.5815     C
O       0.2763  0.66787  0.99353     O
C        0.277   0.0207   0.1338     C
O        0.277  0.34232   0.2305     O
H       0.2771   0.4802   0.6984     H
C       0.2786   0.0147  0.09175     C
C       0.2798   0.5249  0.09747     C
H       0.2822   0.5424   0.7503     H
C       0.2824   0.0724   0.1486     C
C       0.2833   0.3367  0.19402     C
C       0.2834   0.0581  0.06726     C
H       0.2836   0.0777   0.1767     H
H       0.2842   0.9464   0.6288     H
H       0.2847    0.053   0.0392     H
H       0.2848   0.4338   0.2138     H
C       0.2854   0.3824  0.16713     C
C       0.2854   0.4321  0.18548     C
O      0.28553   0.8217  0.25371     O
O      0.28554  0.29039  0.17684     O
C       0.2859   0.6131  0.56121     C
C        0.286   0.4774   0.1223     C
C       0.2862   0.1171  0.12298     C
C       0.2863   0.4795  0.16394     C
C       0.2865   0.1087  0.08214     C
C       0.2867  0.15506  0.05425     C
C        0.288   0.3804   0.1251     C
C       0.2885   0.4275  0.10398     C
C        0.289   0.5298   0.1872     C
O      0.29039  0.71446  0.82316     O
H       0.2907   0.4259   0.0757     H
C       0.2913  0.16794  0.14427     C
O       0.2915   0.3325   0.7555     O
C       0.2916   0.3319  0.09975     C
C       0.2921   0.6257    0.228     C
C       0.2922   0.6791   0.2487     C
C       0.2937   0.8964   0.0239     C
H       0.2966   0.8709   0.5902     H
O      0.29832   0.2275  0.50914     O
O      0.29924  0.22874  0.95662     O
H       0.2999   0.5557   0.6017     H
O      0.30026  0.67041  0.89902     O
O      0.30126   0.3105  0.48822     O
O      0.30198  0.76831  0.43244     O
C       0.3024   0.8962   0.1918     C
C       0.3031   0.5796   0.0414     C
C       0.3036   0.9438   0.0429     C
C       0.3037   0.9324   0.1612     C
O      0.30371  0.14771  0.01964     O
O      0.30621  0.83298   0.3618     O
O       0.3105  0.69874  0.51178     O
O       0.3112   0.2536   0.7299     O
C       0.3122    0.535   0.0651     C
H       0.3168   0.6328   0.5673     H
C       0.3181   0.2642  0.48933     C
H       0.3183   0.8829   0.0051     H
C       0.3209   0.2922   0.7513     C
O      0.32137  0.75539   0.3314     O
O       0.3217  0.21447  0.24629     O
H       0.3227   0.8648     0.19     H
H       0.3237   0.5854   0.0181     H
H        0.325   0.9259   0.1383     H
O      0.32613  0.74496    0.926     O
C        0.328   0.5665   0.1778     C
C       0.3293   0.6159   0.1992     C
O      0.32959  0.30026  0.10098     O
C       0.3319   0.7084  0.90025     C
C      0.33206   0.7913  0.35573     C
O      0.33213   0.2763  0.00647     O
O       0.3325   0.7085   0.2445     O
O      0.33298  0.19379   0.1382     O
H        0.334    0.964   0.0363     H
C       0.3346   0.2555   0.9725     C
C       0.3367   0.7167  0.80598     C
H       0.3405   0.5118    0.059     H
O      0.34232    0.723   0.7695     O
C      0.34494   0.7867  0.44575     C
Co     0.34563  0.76576  0.53499    Co
O      0.35229  0.80371  0.48036     O
H       0.3533   0.5591   0.1577     H
H       0.3556   0.6415   0.1934     H
H       0.3585   0.3556   0.8066     H
Zn     0.36167  0.26783  0.15223    Zn
H       0.3648   0.1773     0.31     H
H       0.3672   0.3168   0.4327     H
C       0.3685   0.2292  0.23943     C
C       0.3685   0.2519  0.46795     C
H       0.3709   0.2034   0.9098     H
C       0.3743   0.2921    0.772     C
C       0.3804    0.712   0.8749     C
C       0.3824   0.7146  0.83287     C
H       0.3829   0.1817   0.4949     H
C       0.3829   0.7862  0.37702     C
C       0.3841   0.3293   0.8008     C
C       0.3849   0.2641  0.94817     C
C       0.3869   0.2859  0.43879     C
O      0.38714    0.246  0.20728     O
C       0.3913   0.7865  0.41786     C
C       0.3948    0.231    0.916     C
C       0.3962   0.1976   0.3082     C
C       0.3964   0.2063   0.4761     C
H        0.403   0.2288   0.7429     H
C       0.4056    0.229  0.27397     C
C       0.4108   0.2542   0.7629     C
H       0.4146   0.3237   0.9819     H
C       0.4204   0.3031   0.9586     C
H       0.4223   0.7836   0.3233     H
H       0.4259    0.175   0.3617     H
H       0.4259   0.7093   0.9243     H
C       0.4275   0.7115  0.89602     C
C       0.4276   0.7824   0.3514     C
C       0.4321   0.7146  0.81452     C
C       0.4324   0.1963   0.3388     C
C       0.4327   0.2762   0.4185     C
C       0.4335    0.328   0.8222     C
H       0.4338   0.7152   0.7862     H
C       0.4395   0.2384   0.8932     C
H       0.4409   0.3533   0.8423     H
C       0.4419   0.7834  0.43274     C
C       0.4438   0.1964   0.4571     C
H       0.4443   0.2999   0.3983     H
H       0.4464   0.2158   0.8712     H
H        0.447   0.7847   0.4608     H
C       0.4514   0.2598  0.27201     C
H       0.4576   0.2822   0.2497     H
C       0.4599   0.2521   0.7827     C
C        0.462    0.232  0.42755     C
H        0.464    0.166   0.4637     H
C        0.465   0.3122   0.9349     C
C       0.4702    0.289   0.8128     C
C       0.4751   0.2798  0.90253     C
C       0.4774    0.714   0.8777     C
C       0.4782   0.2261  0.33646     C
C       0.4793    0.777   0.3662     C
C       0.4795   0.7137  0.83606     C
H       0.4802   0.7229   0.3016     H
C       0.4853   0.7786  0.40825     C
H       0.4855   0.2262   0.7757     H
C        0.488   0.2573   0.3032     C
H       0.4882   0.3405    0.941     H
H       0.5118   0.6595    0.941     H
C        0.512   0.7427   0.3032     C
H       0.5145   0.7738   0.7757     H
C       0.5147   0.2214  0.40825     C
H       0.5198   0.2771   0.3016     H
C       0.5205   0.2863  0.83606     C
C       0.5207    0.223   0.3662     C
C       0.5218   0.7739  0.33646     C
C       0.5226    0.286   0.8777     C
C       0.5249   0.7202  0.90253     C
C       0.5298    0.711   0.8128     C
C        0.535   0.6878   0.9349     C
H        0.536    0.834   0.4637     H
C        0.538    0.768  0.42755     C
C       0.5401   0.7479   0.7827     C
H       0.5424   0.7178   0.2497     H
C       0.5486   0.7402  0.27201     C
H        0.553   0.2153   0.4608     H
H       0.5536   0.7842   0.8712     H
H       0.5557   0.7001   0.3983     H
C       0.5562   0.8036   0.4571     C
C       0.5581   0.2166  0.43274     C
H       0.5591   0.6467   0.8423     H
C       0.5605   0.7616   0.8932     C
H       0.5662   0.2848   0.7862     H
C       0.5665    0.672   0.8222     C
C       0.5673   0.7238   0.4185     C
C       0.5676   0.8037   0.3388     C
C       0.5679   0.2854  0.81452     C
C       0.5724   0.2176   0.3514     C
C       0.5725   0.2885  0.89602     C
H       0.5741   0.2907   0.9243     H
H       0.5741    0.825   0.3617     H
H       0.5777   0.2164   0.3233     H
C       0.5796   0.6969   0.9586     C
H       0.5854   0.6763   0.9819     H
C       0.5892   0.7458   0.7629     C
C       0.5944    0.771  0.27397     C
H        0.597   0.7712   0.7429     H
C       0.6036   0.7937   0.4761     C
C       0.6038   0.8024   0.3082     C
C       0.6052    0.769    0.916     C
C       0.6087   0.2135  0.41786     C
O      0.61286    0.754  0.20728     O
C       0.6131   0.7141  0.43879     C
C       0.6151   0.7359  0.94817     C
C       0.6159   0.6707   0.8008     C
C       0.6171   0.2138  0.37702     C
H       0.6171   0.8183   0.4949     H
C       0.6176   0.2854  0.83287     C
C       0.6196    0.288   0.8749     C
C       0.6257   0.7079    0.772     C
H       0.6291   0.7966   0.9098     H
C       0.6315   0.7481  0.46795     C
C       0.6315   0.7708  0.23943     C
H       0.6328   0.6832   0.4327     H
H       0.6352   0.8227     0.31     H
Zn     0.63833  0.73217  0.15223    Zn
H       0.6415   0.6444   0.8066     H
H       0.6444   0.3585   0.1934     H
H       0.6467   0.4409   0.1577     H
O      0.64771  0.19629  0.48036     O
Co     0.65437  0.23424  0.53499    Co
C      0.65506   0.2133  0.44575     C
O      0.65768    0.277   0.7695     O
H       0.6595   0.4882    0.059     H
C       0.6633   0.2833  0.80598     C
C       0.6654   0.7445   0.9725     C
H        0.666    0.036   0.0363     H
O      0.66702  0.80621   0.1382     O
O       0.6675   0.2915   0.2445     O
O      0.66787   0.7237  0.00647     O
C      0.66794   0.2087  0.35573     C
C       0.6681   0.2916  0.90025     C
O      0.67041  0.69974  0.10098     O
C       0.6707   0.3841   0.1992     C
C        0.672   0.4335   0.1778     C
O      0.67387  0.25504    0.926     O
H        0.675   0.0741   0.1383     H
H       0.6763   0.4146   0.0181     H
H       0.6773   0.1352     0.19     H
O       0.6783  0.78553  0.24629     O
O      0.67863  0.24461   0.3314     O
C       0.6791   0.7078   0.7513     C
H       0.6817   0.1171   0.0051     H
C       0.6819   0.7358  0.48933     C
H       0.6832   0.3672   0.5673     H
C       0.6878    0.465   0.0651     C
O       0.6888   0.7464   0.7299     O
O       0.6895  0.30126  0.51178     O
O      0.69379  0.16702   0.3618     O
O      0.69629  0.85229  0.01964     O
C       0.6963   0.0676   0.1612     C
C       0.6964   0.0562   0.0429     C
C       0.6969   0.4204   0.0414     C
C       0.6976   0.1038   0.1918     C
O      0.69802  0.23169  0.43244     O
O      0.69874   0.6895  0.48822     O
O      0.69974  0.32959  0.89902     O
H       0.7001   0.4443   0.6017     H
O      0.70076  0.77126  0.95662     O
O      0.70168   0.7725  0.50914     O
H       0.7034   0.1291   0.5902     H
C       0.7063   0.1036   0.0239     C
C       0.7078   0.3209   0.2487     C
C       0.7079   0.3743    0.228     C
C       0.7084   0.6681  0.09975     C
O       0.7085   0.6675   0.7555     O
C       0.7087  0.83206  0.14427     C
H       0.7093   0.5741   0.0757     H
O      0.70961  0.28554  0.82316     O
C        0.711   0.4702   0.1872     C
C       0.7115   0.5725  0.10398     C
C        0.712   0.6196   0.1251     C
C       0.7133  0.84494  0.05425     C
C       0.7135   0.8913  0.08214     C
C       0.7137   0.5205  0.16394     C
C       0.7138   0.8829  0.12298     C
C        0.714   0.5226   0.1223     C
C       0.7141   0.3869  0.56121     C
O      0.71446  0.70961  0.17684     O
O      0.71447   0.1783  0.25371     O
C       0.7146   0.5679  0.18548     C
C       0.7146   0.6176  0.16713     C
H       0.7152   0.5662   0.2138     H
H       0.7153    0.947   0.0392     H
H       0.7158   0.0536   0.6288     H
H       0.7164   0.9223   0.1767     H
C       0.7166   0.9419  0.06726     C
C       0.7167   0.6633  0.19402     C
C       0.7176   0.9276   0.1486     C
H       0.7178   0.4576   0.7503     H
C       0.7202   0.4751  0.09747     C
C       0.7214   0.9853  0.09175     C
H       0.7229   0.5198   0.6984     H
O        0.723  0.65768   0.2305     O
C        0.723   0.9793   0.1338     C
O       0.7237  0.33213  0.99353     O
C       0.7238   0.4327   0.5815     C
C       0.7261   0.0218  0.16354     C
H       0.7262   0.0145   0.7243     H
O       0.7275  0.20168  0.99086     O
O      0.72874  0.20076  0.54338     O
H       0.7288    0.097   0.7571     H
C        0.729   0.0944  0.22603     C
C       0.7292   0.1315  0.26057     C
Zn     0.73091  0.23818  0.28855    Zn
C        0.731   0.1052    0.584     C
Zn     0.73111  0.73572  0.03839    Zn
O      0.73169  0.80198  0.06756     O
C        0.732    0.038  0.07245     C
Co     0.73217  0.36167  0.84777    Co
Co     0.73424  0.84563  0.96501    Co
Zn     0.73572  0.26889  0.96161    Zn
C       0.7358   0.3181  0.51067     C
C       0.7359   0.3849  0.05183     C
Zn     0.73818  0.76909  0.21145    Zn
C       0.7384   0.0605   0.6068     C
C       0.7402   0.4514  0.72799     C
C       0.7427    0.488   0.6968     C
C       0.7445   0.3346   0.0275     C
O      0.74461  0.82137   0.1686     O
O      0.74496  0.67387    0.074     O
C       0.7458   0.4108   0.2371     C
O        0.746  0.11286  0.29272     O
O       0.7464   0.3112   0.2701     O
C       0.7479   0.4599   0.2173     C
C       0.7481   0.3685  0.53205     C
C       0.7519   0.1315  0.03205     C
C       0.7521   0.0401   0.7173     C
O       0.7536   0.1888   0.7701     O
O        0.754  0.38714  0.79272     O
C       0.7542   0.0892   0.7371     C
O      0.75504  0.82613    0.574     O
O      0.75539  0.67863   0.6686     O
C       0.7555   0.1654   0.5275     C
C       0.7573    0.012   0.1968     C
C       0.7598   0.0486  0.22799     C
C       0.7616   0.4395   0.1068     C
Zn     0.76182  0.73091  0.71145    Zn
C       0.7641   0.1151  0.55183     C
C       0.7642   0.1819  0.01067     C
Zn     0.76428  0.23111  0.46161    Zn
Co     0.76576  0.65437  0.46501    Co
Co     0.76783  0.13833  0.34777    Co
C        0.768    0.462  0.57245     C
O      0.76831  0.69802  0.56756     O
Zn     0.76889  0.76428  0.53839    Zn
C        0.769   0.3948    0.084     C
Zn     0.76909  0.26182  0.78855    Zn
C       0.7708   0.3685  0.76057     C
C        0.771   0.4056  0.72603     C
H       0.7712    0.403   0.2571     H
O      0.77126  0.29924  0.04338     O
O       0.7725  0.29832  0.49086     O
H       0.7738   0.4855   0.2243     H
C       0.7739   0.4782  0.66354     C
C       0.7762   0.0673   0.0815     C
O       0.7763  0.16787  0.49353     O
C        0.777   0.5207   0.6338     C
O        0.777  0.84232   0.7305     O
H       0.7771   0.9802   0.1984     H
C       0.7786   0.5147  0.59175     C
C       0.7798   0.0249  0.59747     C
H       0.7822   0.0424   0.2503     H
C       0.7824   0.5724   0.6486     C
C       0.7833   0.8367  0.69402     C
C       0.7834   0.5581  0.56726     C
H       0.7836   0.5777   0.6767     H
H       0.7842   0.4464   0.1288     H
H       0.7847    0.553   0.5392     H
H       0.7848   0.9338   0.7138     H
C       0.7854   0.8824  0.66713     C
C       0.7854   0.9321  0.68548     C
O      0.78553   0.3217  0.75371     O
O      0.78554  0.79039  0.67684     O
C       0.7859   0.1131  0.06121     C
C        0.786   0.9774   0.6223     C
C       0.7862   0.6171  0.62298     C
C       0.7863   0.9795  0.66394     C
C       0.7865   0.6087  0.58214     C
C       0.7867  0.65506  0.55425     C
C        0.788   0.8804   0.6251     C
C       0.7885   0.9275  0.60398     C
C        0.789   0.0298   0.6872     C
O      0.79039  0.21446  0.32316     O
H       0.7907   0.9259   0.5757     H
C       0.7913  0.66794  0.64427     C
O       0.7915   0.8325   0.2555     O
C       0.7916   0.8319  0.59975     C
C       0.7921   0.1257    0.728     C
C       0.7922   0.1791   0.7487     C
C       0.7937   0.3964   0.5239     C
H       0.7966   0.3709   0.0902     H
O      0.79832   0.7275  0.00914     O
O      0.79924  0.72874  0.45662     O
H       0.7999   0.0557   0.1017     H
O      0.80026  0.17041  0.39902     O
O      0.80126   0.8105  0.98822     O
O      0.80198  0.26831  0.93244     O
C       0.8024   0.3962   0.6918     C
C       0.8031   0.0796   0.5414     C
C       0.8036   0.4438   0.5429     C
C       0.8037   0.4324   0.6612     C
O      0.80371  0.64771  0.51964     O
O      0.80621  0.33298   0.8618     O
O       0.8105  0.19874  0.01178     O
O       0.8112   0.7536   0.2299     O
C       0.8122    0.035   0.5651     C
H       0.8168   0.1328   0.0673     H
C       0.8181   0.7642  0.98933     C
H       0.8183   0.3829   0.5051     H
C       0.8209   0.7922   0.2513     C
O      0.82137  0.25539   0.8314     O
O       0.8217  0.71447  0.74629     O
H       0.8227   0.3648     0.69     H
H       0.8237   0.0854   0.5181     H
H        0.825   0.4259   0.6383     H
O      0.82613  0.24496    0.426     O
C        0.828   0.0665   0.6778     C
C       0.8293   0.1159   0.6992     C
O      0.82959  0.80026  0.60098     O
C       0.8319   0.2084  0.40025     C
C      0.83206   0.2913  0.85573     C
O      0.83213   0.7763  0.50647     O
O       0.8325   0.2085   0.7445     O
O      0.83298  0.69379   0.6382     O
H        0.834    0.464   0.5363     H
C       0.8346   0.7555   0.4725     C
C       0.8367   0.2167  0.30598     C
H       0.8405   0.0118    0.559     H
O      0.84232    0.223   0.2695     O
C      0.84494   0.2867  0.94575     C
Co     0.84563  0.26576  0.03499    Co
O      0.85229  0.30371  0.98036     O
H       0.8533   0.0591   0.6577     H
H       0.8556   0.1415   0.6934     H
H       0.8585   0.8556   0.3066     H
Zn     0.86167  0.76783  0.65223    Zn
H       0.8648   0.6773     0.81     H
H       0.8672   0.8168   0.9327     H
C       0.8685   0.7292  0.73943     C
C       0.8685   0.7519  0.96795     C
H       0.8709   0.7034   0.4098     H
C       0.8743   0.7921    0.272     C
C       0.8804    0.212   0.3749     C
C       0.8824   0.2146  0.33287     C
C       0.8829   0.2862  0.87702     C
H       0.8829   0.6817   0.9949     H
C       0.8841   0.8293   0.3008     C
C       0.8849   0.7641  0.44817     C
C       0.8869   0.7859  0.93879     C
O      0.88714    0.746  0.70728     O
C       0.8913   0.2865  0.91786     C
C       0.8948    0.731    0.416     C
C       0.8962   0.6976   0.8082     C
C       0.8964   0.7063   0.9761     C
H        0.903   0.7288   0.2429     H
C       0.9056    0.729  0.77397     C
C       0.9108   0.7542   0.2629     C
H       0.9146   0.8237   0.4819     H
C       0.9204   0.8031   0.4586     C
H       0.9223   0.2836   0.8233     H
H       0.9259   0.2093   0.4243     H
H       0.9259    0.675   0.8617     H
C       0.9275   0.2115  0.39602     C
C       0.9276   0.2824   0.8514     C
C       0.9321   0.2146  0.31452     C
C       0.9324   0.6963   0.8388     C
C       0.9327   0.7762   0.9185     C
C       0.9335    0.828   0.3222     C
H       0.9338   0.2152   0.2862     H
C       0.9395   0.7384   0.3932     C
H       0.9409   0.8533   0.3423     H
C       0.9419   0.2834  0.93274     C
C       0.9438   0.6964   0.9571     C
H       0.9443   0.7999   0.8983     H
H       0.9464   0.7158   0.3712     H
H        0.947   0.2847   0.9608     H
C       0.9514   0.7598  0.77201     C
H       0.9576   0.7822   0.7497     H
C       0.9599   0.7521   0.2827     C
C        0.962    0.732  0.92755     C
H        0.964    0.666   0.9637     H
C        0.965   0.8122   0.4349     C
C       0.9702    0.789   0.3128     C
C       0.9751   0.7798  0.40253     C
C       0.9774    0.214   0.3777     C
C       0.9782   0.7261  0.83646     C
C       0.9793    0.277   0.8662     C
C       0.9795   0.2137  0.33606     C
H       0.9802   0.2229   0.8016     H
C       0.9853   0.2786  0.90825     C
H       0.9855   0.7262   0.2757     H
C        0.988   0.7573   0.8032     C
H       0.9882   0.8405    0.441     H
