data_I
_chemical_name_common  '/home/zhangsd/repos/MofS-CGCNN/ML/data/TSD/clean_cifs/YOBYAR_clean'
_cell_length_a 24.50020
_cell_length_b 24.50020
_cell_length_c 24.50020
_cell_angle_alpha 93.87260
_cell_angle_beta  117.79000
_cell_angle_gamma 117.79000
_space_group_name_H-M_alt      'P 1'


loop_
_space_group_symop_operation_xyz
  'x, y, z' 

loop_
_atom_site_label
_atom_site_fract_x
_atom_site_fract_y
_atom_site_fract_z
_atom_site_type_symbol
H       0.0025   0.5532   0.8371     H
O      0.00425  0.53769  0.11234     O
Zn     0.00626   0.2319   0.6985    Zn
O      0.01274   0.2134  0.82466     O
C        0.027   0.5693   0.9541     C
O       0.0305  0.22837  0.60007     O
Zn     0.03089  0.04937  0.55804    Zn
O       0.0405   0.9518   0.5757     O
C       0.0406  0.60986  0.23106     C
H       0.0473   0.9344   0.2485     H
C       0.0508   0.8281   0.2453     C
C       0.0535   0.5239   0.1414     C
C       0.0546   0.5841   0.8691     C
O        0.056   0.5804    0.014     O
O       0.0565  0.32603  0.71593     O
O      0.06487  0.49334  0.11061     O
O      0.06761   0.7886  0.26239     O
O      0.07018  0.67138  0.25148     O
O      0.07171  0.34251   0.8136     O
O      0.07173  0.20205   0.7358     O
O      0.07796  0.08646  0.65362     O
C       0.0807    0.363   0.7713     C
C       0.0819   0.6027   0.9336     C
H       0.0875   0.5986   0.8027     H
C       0.0921  0.58733  0.25443     C
H       0.0923   0.4339   0.6936     H
Ni     0.09398   0.2083  0.58108    Ni
C       0.0973  0.54817  0.21527     C
C       0.0978   0.9477   0.2731     C
C       0.1052   0.6116   0.8482     C
O      0.10578   0.0742  0.53862     O
C       0.1132   0.8997   0.2789     C
Ni     0.11506  0.30421  0.88109    Ni
C       0.1186   0.4628   0.7376     C
C       0.1211   0.4375   0.7862     C
C       0.1229  0.14597  0.68807     C
C       0.1318  0.23155  0.79055     C
H       0.1358   0.6347   0.3499     H
C       0.1386   0.1283   0.5313     C
C       0.1389    0.608   0.3231     C
O      0.13926  0.19427  0.66845     O
O      0.14147  0.17984  0.54777     O
H       0.1428   0.0465   0.2979     H
C       0.1452  0.52869  0.24509     C
H       0.1473   0.5011    0.218     H
H       0.1517   0.5495    0.719     H
C       0.1545   0.0145   0.3024     C
C       0.1549   0.5318   0.7529     C
C       0.1565   0.6477   0.9812     C
O      0.15796  0.28506  0.83334     O
C       0.1637   0.4792   0.8517     C
H       0.1675   0.4611   0.8854     H
C       0.1679  0.16116  0.76006     C
H       0.1695   0.6022   0.4505     H
H       0.1714   0.2062   0.4662     H
H       0.1736    0.659   0.0266     H
C        0.175   0.1314   0.4952     C
C        0.177  0.20315  0.80895     C
C       0.1814   0.6581   0.8981     C
C       0.1868   0.9191   0.3163     C
H       0.1874   0.0562    0.513     H
C        0.188   0.1781   0.4659     C
C       0.1896   0.5916    0.354     C
C       0.1908   0.5484   0.3142     C
C        0.195   0.5734   0.8172     C
C       0.1972   0.0886   0.4932     C
H       0.1982   0.8869   0.3219     H
H          0.2   0.0201   0.7839     H
C       0.2006   0.5468   0.8676     C
H       0.2012   0.1012   0.7462     H
H       0.2041   0.4889   0.4014     H
C       0.2072   0.1303   0.7793     C
C       0.2086   0.6776   0.9642     C
C       0.2211   0.6231   0.4682     C
C       0.2247  0.21501  0.87551     C
C       0.2261   0.1836   0.4357     C
C       0.2267   0.0342   0.3375     C
H       0.2295   0.5755   0.9122     H
H       0.2319    0.245   0.9089     H
C       0.2339   0.0935   0.4626     C
C       0.2342   0.6858   0.8766     C
H       0.2362   0.2161   0.4161     H
C       0.2366   0.4936   0.3884     C
C       0.2376    0.646   0.8356     C
C         0.24   0.5233   0.3419     C
C       0.2438   0.6216   0.4266     C
C        0.244   0.9867   0.3457     C
H       0.2486   0.0641   0.4607     H
C        0.249  0.14129  0.43449     C
H       0.2514   0.0963   0.9535     H
C       0.2521   0.0425   0.8164     C
C       0.2543   0.1418   0.8457     C
H       0.2597   0.6584   0.5661     H
H         0.26   0.9652   0.7938     H
H       0.2602   0.7097   0.9971     H
C       0.2615   0.1839   0.8934     C
C       0.2748   0.6558   0.5372     C
H       0.2831    0.782   0.9293     H
C       0.2836  0.75491  0.90011     C
H       0.2839   0.4493   0.4468     H
H       0.2848   0.6501   0.7859     H
C       0.2849   0.6769   0.8158     C
C        0.285   0.4705   0.4159     C
C       0.2866    0.531   0.3224     C
H       0.2874   0.5505   0.2903     H
C       0.2878   0.0099   0.8219     C
C       0.2879     0.14   0.9855     C
C       0.2905   0.1066   0.3681     C
C       0.2932  0.10771  0.85871     C
H       0.2948   0.0007   0.3713     H
C       0.2961   0.1543   0.4086     C
C       0.3033   0.1925   0.9658     C
H       0.3141   0.1129   0.0656     H
C       0.3208   0.6538   0.4532     C
C       0.3254   0.1501   0.0523     C
C       0.3309   0.4792   0.3973     C
C       0.3329  0.74557  0.83767     C
C       0.3329  0.78473  0.88203     C
C       0.3335   0.5088   0.3523     C
H       0.3361   0.0911    0.323     H
H       0.3367    0.654   0.4245     H
C       0.3395  0.12449  0.34919     C
C       0.3487   0.6836   0.5625     C
C        0.351   0.2207   0.4279     C
H        0.355   0.2538    0.455     H
C        0.359   0.2573   0.0133     C
C       0.3638   0.0436   0.8686     C
H       0.3676   0.5146    0.341     H
O      0.36793  0.96163  0.82016     O
C       0.3691   0.1404   0.9065     C
H       0.3706   0.2941   0.9993     H
O       0.3717  0.80213  0.77163     O
C       0.3725   0.6845   0.5208     C
Ni     0.37278  0.88568   0.7917    Ni
O       0.3761   0.4243   0.4648     O
C       0.3788  0.76894  0.80954     C
C       0.3792   0.2135   0.1003     C
C       0.3825   0.8586   0.9121     C
O      0.38273  0.88939  0.95426     O
C       0.3848   0.4577   0.4307     C
O      0.38874  0.17534  0.18808     O
O       0.3899  0.73047  0.67397     O
C       0.3942  0.19105  0.36805     C
H       0.3966   0.1845   0.9359     H
C       0.3972   0.2677   0.0809     C
C       0.4011  0.23994  0.40784     C
C        0.403   0.0103   0.8717     C
C       0.4046   0.1086   0.9114     C
C       0.4083   0.7177    0.637     C
C       0.4172   0.2227   0.1719     C
O       0.4199  0.74852   0.8187     O
Ni     0.42312  0.11891  0.23397    Ni
H       0.4243   0.7064   0.5389     H
O      0.42535  0.88766  0.89191     O
O      0.43284  0.34638  0.42434     O
O       0.4336   0.4756   0.4196     O
H        0.435   0.3113   0.1131     H
C        0.441  0.20945  0.34125     C
O      0.45172  0.16666  0.32462     O
H       0.4568   0.1312   0.9438     H
C       0.4579  0.31193  0.43483     C
O      0.46442  0.03158   0.9258     O
O      0.46625   0.2642  0.33593     O
Zn      0.4666  0.77436   0.7681    Zn
O      0.47109   0.7292  0.65749     O
O      0.47379  0.27901   0.2114     O
O      0.47418  0.94499  0.80573     O
Zn     0.49133  0.44196  0.47285    Zn
Zn     0.50867  0.98152  0.95063    Zn
O      0.52582  0.33155  0.47081     O
O      0.52621  0.73761  0.80522     O
O      0.52891   0.1864  0.25811     O
Zn      0.5334   0.3015  0.30776    Zn
O      0.53375  0.86968  0.79795     O
O      0.53558  0.46138  0.56716     O
C       0.5421  0.97693  0.85403     C
H       0.5432    0.487   0.6744     H
O      0.54828   0.8729  0.71494     O
C        0.559  0.90025  0.76845     C
H        0.565   0.6781   0.8763     H
O       0.5664    0.986    0.042     O
O      0.56716   0.9915  0.91354     O
O      0.57465  0.46656  0.46231     O
H       0.5757   0.1146   0.2821     H
Ni     0.57688  0.81085  0.69579    Ni
O       0.5801   0.3988  0.32862     O
C       0.5828   0.7547   0.8055     C
C       0.5917   0.2287   0.3094     C
C       0.5954   0.5068    0.704     C
C        0.597   0.4687   0.6073     C
C       0.5989  0.00674  0.83884     C
C       0.6028   0.6837   0.8705     C
H       0.6034   0.5393   0.7879     H
C       0.6058  0.97385  0.79685     C
O       0.6101  0.28407  0.34057     O
O      0.61126  0.79934   0.7866     O
C       0.6152   0.0459   0.0729     C
O      0.61727  0.57153  0.50666     O
C       0.6175   0.5296   0.4761     C
C       0.6208   0.7211   0.8343     C
C       0.6212  0.43074  0.39014     C
O       0.6239   0.0887   0.0482     O
Ni     0.62722  0.41892   0.5129    Ni
C       0.6275   0.1483    0.312     C
O       0.6283  0.39993  0.43043     O
H       0.6294   0.6287   0.9235     H
C       0.6309   0.5374   0.7713     C
O      0.63207  0.45223   0.5937     O
H       0.6324   0.9734    0.147     H
C       0.6362   0.5048   0.6798     C
C        0.641   0.6543   0.8983     C
H        0.645      0.1   0.8988     H
C        0.649   0.0769   0.8697     C
C       0.6513   0.2138   0.3349     C
C       0.6605  0.00969  0.78499     C
H       0.6633   0.0878   0.3173     H
H       0.6639   0.9869    0.755     H
C       0.6665   0.0188   0.1753     C
C       0.6671  0.50477  0.41267     C
C       0.6671  0.54913  0.45183     C
C       0.6691   0.0664   0.1483     C
C       0.6746   0.7269   0.8247     C
C       0.6792   0.1324    0.333     C
H       0.6859   0.7515   0.7988     H
C       0.6967   0.6625   0.8892     C
C       0.7039   0.1125   0.8582     C
H       0.7052   0.0765   0.7059     H
C       0.7068  0.56551  0.81451     C
C       0.7095   0.0776   0.8161     C
C       0.7121   0.6976   0.8521     C
C       0.7122   0.5341   0.7221     C
H       0.7126   0.0029   0.2631     H
C       0.7134   0.0358   0.2444     C
C        0.715   0.1309   0.1855     C
C       0.7151   0.5309    0.392     C
H       0.7152   0.5011   0.3653     H
H       0.7161   0.1629   0.1654     H
C       0.7164  0.61651  0.47131     C
H       0.7169   0.6462   0.4989     H
C       0.7252   0.2624    0.381     C
C       0.7385   0.6319   0.9224     C
H       0.7398   0.7369   0.4495     H
H         0.74   0.5338   0.7052     H
H       0.7403   0.3064   0.3987     H
C       0.7457   0.5914   0.8875     C
C       0.7479   0.5643   0.7904     C
H       0.7486   0.7021   0.8449     H
C        0.751  0.18549  0.89229     C
H       0.7514   0.2121   0.8155     H
C        0.756   0.1017   0.7427     C
C       0.7562   0.1828   0.3778     C
C         0.76   0.1019   0.2833     C
C       0.7624    0.598   0.4084     C
C       0.7634   0.1518    0.257     C
H       0.7638   0.1799   0.9799     H
C       0.7658   0.6424   0.4516     C
C       0.7661   0.2287   0.8596     C
H       0.7681    0.677   0.0131     H
H       0.7705   0.6827    0.346     H
C       0.7733   0.1108   0.8075     C
C       0.7739   0.2096   0.9575     C
C       0.7753  0.65081  0.99031     C
C       0.7789   0.2471    0.402     C
C       0.7914   0.7556    0.469     C
C       0.7928   0.5721   0.9231     C
H       0.7959   0.1973   0.2848     H
H       0.7988    0.545      0.9     H
C       0.7994    0.667   0.3462     C
H          0.8   0.5839   0.8201     H
H       0.8018   0.1237   0.6887     H
C       0.8028    0.296   0.8914     C
C        0.805   0.6222   0.3784     C
C       0.8092   0.1234   0.3576     C
C       0.8104   0.1644    0.402     C
C        0.812   0.2779   0.9901     C
H       0.8126   0.3256   0.8688     H
C       0.8132   0.1295   0.7323     C
C       0.8186   0.7167   0.4767     C
C        0.823  0.63195  0.02615     C
C        0.825   0.3202   0.9564     C
H       0.8264    0.853   0.4854     H
H       0.8286   0.2948   0.0348     H
H       0.8305    0.281   0.4327     H
C       0.8321  0.59216  0.99326     C
H       0.8325   0.7179   0.2936     H
C       0.8363    0.688   0.3155     C
O      0.84204  0.67538   0.1271     O
C       0.8435   0.8247   0.4912     C
C       0.8451    0.598   0.3769     C
C       0.8455   0.1479     0.86     C
H       0.8483   0.5673   0.3978     H
H       0.8527   0.0707   0.3538     H
C       0.8548  0.09989  0.38349     C
H       0.8572   0.1551   0.9037     H
O      0.85853   0.4063  0.03837     O
O      0.86074  0.52919  0.05501     O
C       0.8611   0.1842   0.4691     C
C       0.8614   0.3927   0.9897     C
H       0.8642   0.2141   0.4989     H
C       0.8682  0.65875  0.09975     C
C       0.8771  0.56517  0.02307     C
C       0.8789   0.6651   0.3164     C
C       0.8814    0.619   0.3442     C
Ni     0.88494  0.76603  0.18915    Ni
C       0.8868   0.1657   0.7865     C
O      0.89422  0.43284  0.96842     O
C       0.8948    0.743   0.5064     C
C       0.9022   0.1753   0.8499     C
C       0.9027  0.11797  0.45087     C
Ni     0.90602   0.4871  0.11432    Ni
H       0.9077   0.6013   0.3416     H
C       0.9079  0.16233  0.49523     C
H       0.9125   0.7152   0.5111     H
C       0.9181   0.8517   0.5208     C
C       0.9193   0.6906   0.2823     C
O      0.92204  0.57566   0.0085     O
O      0.92827  0.66407  0.13032     O
O      0.92829  0.74189   0.2708     O
O      0.92982   0.1813   0.6012     O
O      0.93239  0.19478  0.72099     O
O      0.93513  0.04574  0.42847     O
O       0.9435  0.65943  0.26953     O
O        0.944    0.958   0.5244     O
C       0.9454   0.8145   0.5295     C
C       0.9465   0.0879   0.4704     C
C       0.9492   0.1945   0.7773     C
H       0.9527   0.2012   0.8871     H
C       0.9594  0.19046  0.56926     C
O       0.9595   0.5352   0.9113     O
Zn     0.96911  0.52715  0.01848    Zn
O       0.9695  0.56957  0.19787     O
C        0.973   0.9271   0.5423     C
O      0.98726  0.81192  0.20066     O
Zn     0.99374  0.69224  0.22564    Zn
O      0.99575  0.10809  0.53344     O
H       0.9975   0.8346   0.5507     H
