data_I
_chemical_name_common  '/home/zhangsd/repos/MofS-CGCNN/ML/data/TSD/clean_cifs/YOTRUW_clean'
_cell_length_a 10.72500
_cell_length_b 15.20400
_cell_length_c 17.35410
_cell_angle_alpha 90.00000
_cell_angle_beta  99.41300
_cell_angle_gamma 90.00000
_space_group_name_H-M_alt      'P 1'


loop_
_space_group_symop_operation_xyz
  'x, y, z' 

loop_
_atom_site_label
_atom_site_fract_x
_atom_site_fract_y
_atom_site_fract_z
_atom_site_type_symbol
Ba         0.0  0.22059     0.25    Ba
Ba         0.0  0.77941     0.75    Ba
C       0.0051     0.49   0.9127     C
C       0.0051     0.51   0.4127     C
O       0.0086   0.3762   0.3411     O
O       0.0086   0.6238   0.8411     O
H        0.025    0.145    0.963     H
H        0.025    0.855    0.463     H
O       0.0265   0.0741   0.1642     O
O       0.0265   0.9259   0.6642     O
O       0.0498    0.113   0.9994     O
O       0.0498    0.887   0.4994     O
C       0.0568   0.4215   0.1176     C
C       0.0568   0.5785   0.6176     C
O       0.0616   0.4329   0.5649     O
O       0.0616   0.5671   0.0649     O
H         0.09    0.139    0.031     H
H         0.09    0.861    0.531     H
O       0.1239   0.4875   0.9129     O
O       0.1239   0.5125   0.4129     O
C       0.1249   0.0313   0.1713     C
C       0.1249   0.9687   0.6713     C
O       0.1455   0.0315   0.6254     O
O       0.1455   0.9685   0.1254     O
O       0.1565   0.2121   0.4141     O
O       0.1565   0.7879   0.9141     O
O       0.1596   0.4006   0.1005     O
O       0.1596   0.5994   0.6005     O
O       0.1682   0.4956   0.7609     O
O       0.1682   0.5044   0.2609     O
Ba     0.17907  0.02779  0.44326    Ba
Ba     0.17907  0.97221  0.94326    Ba
V      0.19038  0.40854  0.34275     V
V      0.19038  0.59146  0.84275     V
C       0.2161   0.2656   0.4592     C
C       0.2161   0.7344   0.9592     C
O       0.2177   0.1065   0.2884     O
O       0.2177   0.8935   0.7884     O
O       0.2192   0.3288   0.2862     O
O       0.2192   0.6712   0.7862     O
O       0.2326   0.3473   0.4464     O
O       0.2326   0.6527   0.9464     O
C       0.2334   0.0502   0.2399     C
C       0.2334   0.9498   0.7399     C
C       0.2666   0.4498   0.7601     C
C       0.2666   0.5502   0.2601     C
O       0.2674   0.1527   0.5536     O
O       0.2674   0.8473   0.0536     O
O       0.2808   0.1712   0.7138     O
O       0.2808   0.8288   0.2138     O
O       0.2823   0.3935   0.7116     O
O       0.2823   0.6065   0.2116     O
C       0.2839   0.2344   0.5408     C
C       0.2839   0.7656   0.0408     C
V      0.30962  0.09146  0.65725     V
V      0.30962  0.90854  0.15725     V
Ba     0.32093  0.47221  0.55674    Ba
Ba     0.32093  0.52779  0.05674    Ba
O       0.3318   0.0044   0.2391     O
O       0.3318   0.9956   0.7391     O
O       0.3404   0.0994   0.8995     O
O       0.3404   0.9006   0.3995     O
O       0.3435   0.2879   0.5859     O
O       0.3435   0.7121   0.0859     O
O       0.3545   0.4685   0.3746     O
O       0.3545   0.5315   0.8746     O
C       0.3751   0.4687   0.8287     C
C       0.3751   0.5313   0.3287     C
O       0.3761   0.0125   0.0871     O
O       0.3761   0.9875   0.5871     O
H         0.41    0.361    0.969     H
H         0.41    0.639    0.469     H
O       0.4384   0.0671   0.4351     O
O       0.4384   0.9329   0.9351     O
C       0.4432   0.0785   0.8824     C
C       0.4432   0.9215   0.3824     C
O       0.4502    0.387   0.0006     O
O       0.4502    0.613   0.5006     O
O       0.4735   0.4259   0.8358     O
O       0.4735   0.5741   0.3358     O
H        0.475    0.355    0.037     H
H        0.475    0.645    0.537     H
O       0.4914   0.1238   0.6589     O
O       0.4914   0.8762   0.1589     O
C       0.4949     0.01   0.0873     C
C       0.4949     0.99   0.5873     C
Ba         0.5  0.27941     0.75    Ba
Ba         0.5  0.72059     0.25    Ba
C       0.5051     0.01   0.4127     C
C       0.5051     0.99   0.9127     C
O       0.5086   0.1238   0.8411     O
O       0.5086   0.8762   0.3411     O
H        0.525    0.355    0.463     H
H        0.525    0.645    0.963     H
O       0.5265   0.4259   0.6642     O
O       0.5265   0.5741   0.1642     O
O       0.5498    0.387   0.4994     O
O       0.5498    0.613   0.9994     O
C       0.5568   0.0785   0.6176     C
C       0.5568   0.9215   0.1176     C
O       0.5616   0.0671   0.0649     O
O       0.5616   0.9329   0.5649     O
H         0.59    0.361    0.531     H
H         0.59    0.639    0.031     H
O       0.6239   0.0125   0.4129     O
O       0.6239   0.9875   0.9129     O
C       0.6249   0.4687   0.6713     C
C       0.6249   0.5313   0.1713     C
O       0.6455   0.4685   0.1254     O
O       0.6455   0.5315   0.6254     O
O       0.6565   0.2879   0.9141     O
O       0.6565   0.7121   0.4141     O
O       0.6596   0.0994   0.6005     O
O       0.6596   0.9006   0.1005     O
O       0.6682   0.0044   0.2609     O
O       0.6682   0.9956   0.7609     O
Ba     0.67907  0.47221  0.94326    Ba
Ba     0.67907  0.52779  0.44326    Ba
V      0.69038  0.09146  0.84275     V
V      0.69038  0.90854  0.34275     V
C       0.7161   0.2344   0.9592     C
C       0.7161   0.7656   0.4592     C
O       0.7177   0.3935   0.7884     O
O       0.7177   0.6065   0.2884     O
O       0.7192   0.1712   0.7862     O
O       0.7192   0.8288   0.2862     O
O       0.7326   0.1527   0.9464     O
O       0.7326   0.8473   0.4464     O
C       0.7334   0.4498   0.7399     C
C       0.7334   0.5502   0.2399     C
C       0.7666   0.0502   0.2601     C
C       0.7666   0.9498   0.7601     C
O       0.7674   0.3473   0.0536     O
O       0.7674   0.6527   0.5536     O
O       0.7808   0.3288   0.2138     O
O       0.7808   0.6712   0.7138     O
O       0.7823   0.1065   0.2116     O
O       0.7823   0.8935   0.7116     O
C       0.7839   0.2656   0.0408     C
C       0.7839   0.7344   0.5408     C
V      0.80962  0.40854  0.15725     V
V      0.80962  0.59146  0.65725     V
Ba     0.82093  0.02779  0.05674    Ba
Ba     0.82093  0.97221  0.55674    Ba
O       0.8318   0.4956   0.7391     O
O       0.8318   0.5044   0.2391     O
O       0.8404   0.4006   0.3995     O
O       0.8404   0.5994   0.8995     O
O       0.8435   0.2121   0.0859     O
O       0.8435   0.7879   0.5859     O
O       0.8545   0.0315   0.8746     O
O       0.8545   0.9685   0.3746     O
C       0.8751   0.0313   0.3287     C
C       0.8751   0.9687   0.8287     C
O       0.8761   0.4875   0.5871     O
O       0.8761   0.5125   0.0871     O
H         0.91    0.139    0.469     H
H         0.91    0.861    0.969     H
O       0.9384   0.4329   0.9351     O
O       0.9384   0.5671   0.4351     O
C       0.9432   0.4215   0.3824     C
C       0.9432   0.5785   0.8824     C
O       0.9502    0.113   0.5006     O
O       0.9502    0.887   0.0006     O
O       0.9735   0.0741   0.3358     O
O       0.9735   0.9259   0.8358     O
H        0.975    0.145    0.537     H
H        0.975    0.855    0.037     H
O       0.9914   0.3762   0.1589     O
O       0.9914   0.6238   0.6589     O
C       0.9949     0.49   0.5873     C
C       0.9949     0.51   0.0873     C
