data_I
_chemical_name_common  '/home/zhangsd/repos/MofS-CGCNN/ML/data/TSD/clean_cifs/YOVXEO_clean'
_cell_length_a 23.86200
_cell_length_b  8.59300
_cell_length_c 19.05840
_cell_angle_alpha 90.00000
_cell_angle_beta  90.00000
_cell_angle_gamma 90.00000
_space_group_name_H-M_alt      'P 1'


loop_
_space_group_symop_operation_xyz
  'x, y, z' 

loop_
_atom_site_label
_atom_site_fract_x
_atom_site_fract_y
_atom_site_fract_z
_atom_site_type_symbol
C       0.0008   0.4538   0.9907     C
H       0.0029   0.3473   0.3079     H
H       0.0064   0.3523   0.7978     H
H       0.0073   0.1074   0.8538     H
H       0.0086   0.9121   0.9305     H
H       0.0125   0.1247   0.2377     H
C       0.0136   0.6071   0.9715     C
H       0.0148   0.4348   0.6624     H
C       0.0149    0.327   0.6514     C
C       0.0153   0.0162   0.6164     C
H       0.0154   0.9099   0.6026     H
C       0.0251   0.8285   0.3565     C
C       0.0257   0.6821   0.3227     C
C       0.0278   0.1297   0.4371     C
H       0.0334   0.2425   0.0044     H
C       0.0344   0.2816   0.4612     C
C       0.0347   0.7531   0.1501     C
C       0.0348    0.913   0.1329     C
C       0.0355   0.3347   0.2798     C
H       0.0367   0.5752   0.5015     H
C       0.0407   0.2026   0.2372     C
C       0.0429   0.3471   0.9937     C
C       0.0645   0.2543   0.6369     C
C       0.0651   0.0961   0.6193     C
C       0.0686   0.6442   0.9606     C
H       0.0688   0.7014   0.1608     H
C       0.0715   0.8783   0.3934     C
C       0.0721     0.59   0.3256     C
C       0.0743   0.0402   0.4229     C
C       0.0765   0.4455   0.2817     C
H       0.0792   0.7484   0.9505     H
N       0.0847   0.3432   0.4724     N
C       0.0883   0.1857   0.1931     C
N        0.097   0.3802   0.9823     N
H       0.0986   0.3112   0.6387     H
P      0.09872   0.0266  0.13466     P
H       0.0995   0.0447   0.6095     H
C       0.1092   0.5277   0.9647     C
O       0.1136   0.0806   0.0633     O
C       0.1165   0.7776    0.401     C
C       0.1174   0.6365   0.3647     C
C       0.1238   0.4291   0.2393     C
C       0.1264   0.1066   0.4313     C
C       0.1279   0.3035   0.1955     C
C       0.1302   0.2581    0.458     C
H       0.1468   0.8047    0.431     H
H        0.147   0.5537   0.9545     H
H       0.1497    0.572    0.367     H
H        0.152   0.9999   0.2703     H
H       0.1529   0.5046   0.2408     H
C       0.1554   0.9104   0.1705     C
Co     0.15624  0.19733  0.98375    Co
H       0.1577   0.4725   0.5501     H
H       0.1593   0.0504   0.4192     H
H       0.1595   0.2967   0.1653     H
H        0.168   0.7866   0.0818     H
C       0.1719   0.9311   0.2403     C
C       0.1814   0.8044    0.128     C
C       0.1844   0.3388   0.4686     C
C       0.1883   0.4537   0.5193     C
H       0.1923   0.8931   0.9039     H
C       0.2184   0.8485   0.2649     C
N       0.2203   0.0264   0.9822     N
C       0.2235   0.9105   0.9339     C
H       0.2238   0.1872   0.7412     H
C       0.2282   0.7219   0.1531     C
H       0.2304    0.238   0.3925     H
C       0.2305   0.3181   0.4269     C
H       0.2313   0.8652   0.3114     H
C       0.2362     0.54   0.5251     C
H       0.2384    0.614   0.5621     H
C       0.2454   0.7448   0.2231     C
H       0.2479    0.652   0.1234     H
H       0.2521    0.152   0.6234     H
C       0.2546   0.2448   0.7231     C
H       0.2616    0.114   0.0621     H
C       0.2638     0.04   0.0251     C
H       0.2687   0.3652   0.8114     H
C       0.2695   0.8181   0.9269     C
H       0.2696    0.738   0.8925     H
C       0.2718   0.2219   0.6531     C
H       0.2762   0.6872   0.2412     H
C       0.2765   0.4105   0.4339     C
N       0.2797   0.5264   0.4822     N
C       0.2816   0.3485   0.7649     C
H       0.3077   0.3931   0.4039     H
C       0.3117   0.9537   0.0193     C
C       0.3156   0.8388   0.9686     C
C       0.3186   0.3044    0.628     C
C       0.3281   0.4311   0.7403     C
H        0.332   0.2866   0.5818     H
H       0.3405   0.7967   0.6653     H
H       0.3407   0.5504   0.9192     H
H       0.3423   0.9725   0.0501     H
Co     0.34376  0.69733  0.48375    Co
C       0.3446   0.4104   0.6705     C
H       0.3471   0.0046   0.7408     H
H        0.348   0.4999   0.7703     H
H       0.3503    0.072    0.867     H
H        0.353   0.0537   0.4545     H
H       0.3532   0.3047    0.931     H
C       0.3698   0.7581    0.958     C
C       0.3721   0.8035   0.6955     C
C       0.3736   0.6066   0.9313     C
C       0.3762   0.9291   0.7393     C
C       0.3826   0.1365   0.8647     C
C       0.3835   0.2776    0.901     C
O       0.3864   0.5806   0.5633     O
C       0.3908   0.0277   0.4647     C
H       0.4005   0.5447   0.1095     H
P      0.40128   0.5266  0.63466     P
H       0.4014   0.8112   0.1387     H
N        0.403   0.8802   0.4823     N
C       0.4117   0.6857   0.6931     C
N       0.4153   0.8432   0.9724     N
H       0.4208   0.2484   0.4505     H
C       0.4235   0.9455   0.7817     C
C       0.4257   0.5402   0.9229     C
C       0.4279     0.09   0.8256     C
C       0.4285   0.3783   0.8934     C
H       0.4312   0.2014   0.6608     H
C       0.4314   0.1442   0.4606     C
C       0.4349   0.5961   0.1193     C
C       0.4355   0.7543   0.1369     C
C       0.4571   0.8471   0.4937     C
C       0.4593   0.7026   0.7372     C
H       0.4633   0.0752   0.0015     H
C       0.4645   0.8347   0.7798     C
C       0.4652    0.413   0.6329     C
C       0.4653   0.2531   0.6501     C
C       0.4656   0.7816   0.9612     C
H       0.4666   0.7425   0.5044     H
C       0.4722   0.6297   0.9371     C
C       0.4743   0.1821   0.8227     C
C       0.4749   0.3285   0.8565     C
H       0.4846   0.4099   0.1026     H
C       0.4847   0.5162   0.1164     C
C       0.4851    0.827   0.1514     C
H       0.4852   0.9348   0.1624     H
C       0.4864   0.1071   0.4715     C
H       0.4875   0.6247   0.7377     H
H       0.4914   0.4121   0.4305     H
H       0.4927   0.6074   0.3538     H
H       0.4936   0.8523   0.2978     H
H       0.4971   0.8473   0.8079     H
C       0.4992   0.9538   0.4907     C
C       0.5008   0.0462   0.9907     C
H       0.5029   0.1527   0.3079     H
H       0.5064   0.1477   0.7978     H
H       0.5073   0.3926   0.8538     H
H       0.5086   0.5879   0.9305     H
H       0.5125   0.3753   0.2377     H
C       0.5136   0.8929   0.9715     C
H       0.5148   0.0652   0.6624     H
C       0.5149    0.173   0.6514     C
C       0.5153   0.4838   0.6164     C
H       0.5154   0.5901   0.6026     H
C       0.5251   0.6715   0.3565     C
C       0.5257   0.8179   0.3227     C
C       0.5278   0.3703   0.4371     C
H       0.5334   0.2575   0.0044     H
C       0.5344   0.2184   0.4612     C
C       0.5347   0.7469   0.1501     C
C       0.5348    0.587   0.1329     C
C       0.5355   0.1653   0.2798     C
H       0.5367   0.9248   0.5015     H
C       0.5407   0.2974   0.2372     C
C       0.5429   0.1529   0.9937     C
C       0.5645   0.2457   0.6369     C
C       0.5651   0.4039   0.6193     C
C       0.5686   0.8558   0.9606     C
H       0.5688   0.7986   0.1608     H
C       0.5715   0.6217   0.3934     C
C       0.5721     0.91   0.3256     C
C       0.5743   0.4598   0.4229     C
C       0.5765   0.0545   0.2817     C
H       0.5792   0.7516   0.9505     H
N       0.5847   0.1568   0.4724     N
C       0.5883   0.3143   0.1931     C
N        0.597   0.1198   0.9823     N
H       0.5986   0.1888   0.6387     H
P      0.59872   0.4734  0.13466     P
H       0.5995   0.4553   0.6095     H
C       0.6092   0.9723   0.9647     C
O       0.6136   0.4194   0.0633     O
C       0.6165   0.7224    0.401     C
C       0.6174   0.8635   0.3647     C
C       0.6238   0.0709   0.2393     C
C       0.6264   0.3934   0.4313     C
C       0.6279   0.1965   0.1955     C
C       0.6302   0.2419    0.458     C
H       0.6468   0.6953    0.431     H
H        0.647   0.9463   0.9545     H
H       0.6497    0.928    0.367     H
H        0.652   0.5001   0.2703     H
H       0.6529   0.9954   0.2408     H
C       0.6554   0.5896   0.1705     C
Co     0.65624  0.30267  0.98375    Co
H       0.6577   0.0275   0.5501     H
H       0.6593   0.4496   0.4192     H
H       0.6595   0.2033   0.1653     H
H        0.668   0.7134   0.0818     H
C       0.6719   0.5689   0.2403     C
C       0.6814   0.6956    0.128     C
C       0.6844   0.1612   0.4686     C
C       0.6883   0.0463   0.5193     C
H       0.6923   0.6069   0.9039     H
C       0.7184   0.6515   0.2649     C
N       0.7203   0.4736   0.9822     N
C       0.7235   0.5895   0.9339     C
H       0.7238   0.3128   0.7412     H
C       0.7282   0.7781   0.1531     C
H       0.7304    0.262   0.3925     H
C       0.7305   0.1819   0.4269     C
H       0.7313   0.6348   0.3114     H
C       0.7362     0.96   0.5251     C
H       0.7384    0.886   0.5621     H
C       0.7454   0.7552   0.2231     C
H       0.7479    0.848   0.1234     H
H       0.7521    0.348   0.6234     H
C       0.7546   0.2552   0.7231     C
H       0.7616    0.386   0.0621     H
C       0.7638     0.46   0.0251     C
H       0.7687   0.1348   0.8114     H
C       0.7695   0.6819   0.9269     C
H       0.7696    0.762   0.8925     H
C       0.7718   0.2781   0.6531     C
H       0.7762   0.8128   0.2412     H
C       0.7765   0.0895   0.4339     C
N       0.7797   0.9736   0.4822     N
C       0.7816   0.1515   0.7649     C
H       0.8077   0.1069   0.4039     H
C       0.8117   0.5463   0.0193     C
C       0.8156   0.6612   0.9686     C
C       0.8186   0.1956    0.628     C
C       0.8281   0.0689   0.7403     C
H        0.832   0.2134   0.5818     H
H       0.8405   0.7033   0.6653     H
H       0.8407   0.9496   0.9192     H
H       0.8423   0.5275   0.0501     H
Co     0.84376  0.80267  0.48375    Co
C       0.8446   0.0896   0.6705     C
H       0.8471   0.4954   0.7408     H
H        0.848   0.0001   0.7703     H
H       0.8503    0.428    0.867     H
H        0.853   0.4463   0.4545     H
H       0.8532   0.1953    0.931     H
C       0.8698   0.7419    0.958     C
C       0.8721   0.6965   0.6955     C
C       0.8736   0.8934   0.9313     C
C       0.8762   0.5709   0.7393     C
C       0.8826   0.3635   0.8647     C
C       0.8835   0.2224    0.901     C
O       0.8864   0.9194   0.5633     O
C       0.8908   0.4723   0.4647     C
H       0.9005   0.9553   0.1095     H
P      0.90128   0.9734  0.63466     P
H       0.9014   0.6888   0.1387     H
N        0.903   0.6198   0.4823     N
C       0.9117   0.8143   0.6931     C
N       0.9153   0.6568   0.9724     N
H       0.9208   0.2516   0.4505     H
C       0.9235   0.5545   0.7817     C
C       0.9257   0.9598   0.9229     C
C       0.9279     0.41   0.8256     C
C       0.9285   0.1217   0.8934     C
H       0.9312   0.2986   0.6608     H
C       0.9314   0.3558   0.4606     C
C       0.9349   0.9039   0.1193     C
C       0.9355   0.7457   0.1369     C
C       0.9571   0.6529   0.4937     C
C       0.9593   0.7974   0.7372     C
H       0.9633   0.4248   0.0015     H
C       0.9645   0.6653   0.7798     C
C       0.9652    0.087   0.6329     C
C       0.9653   0.2469   0.6501     C
C       0.9656   0.7184   0.9612     C
H       0.9666   0.7575   0.5044     H
C       0.9722   0.8703   0.9371     C
C       0.9743   0.3179   0.8227     C
C       0.9749   0.1715   0.8565     C
H       0.9846   0.0901   0.1026     H
C       0.9847   0.9838   0.1164     C
C       0.9851    0.673   0.1514     C
H       0.9852   0.5652   0.1624     H
C       0.9864   0.3929   0.4715     C
H       0.9875   0.8753   0.7377     H
H       0.9914   0.0879   0.4305     H
H       0.9927   0.8926   0.3538     H
H       0.9936   0.6477   0.2978     H
H       0.9971   0.6527   0.8079     H
C       0.9992   0.5462   0.4907     C
