data_I
_chemical_name_common  '/home/zhangsd/repos/MofS-CGCNN/ML/data/TSD/clean_cifs/YOYQAG_clean'
_cell_length_a 17.03300
_cell_length_b 17.03300
_cell_length_c 13.92800
_cell_angle_alpha 90.00000
_cell_angle_beta  90.00000
_cell_angle_gamma 120.00000
_space_group_name_H-M_alt      'P 1'


loop_
_space_group_symop_operation_xyz
  'x, y, z' 

loop_
_atom_site_label
_atom_site_fract_x
_atom_site_fract_y
_atom_site_fract_z
_atom_site_type_symbol
H        0.001   0.2331   0.3674     H
H       0.0044   0.3275    0.485     H
H       0.0136   0.7721   0.9542     H
C       0.0197   0.6772   0.3789     C
C       0.0294   0.7402   0.4505     C
H       0.0309   0.6793   0.8393     H
C        0.032   0.5404   0.7336     C
C       0.0376   0.4963   0.5701     C
C       0.0387   0.3466   0.9363     C
C       0.0447   0.2925   0.8712     C
C       0.0584    0.554   0.2303     C
C       0.0591   0.5062   0.0699     C
H       0.0624   0.5719   0.7886     H
H       0.0697   0.4987   0.5151     H
C       0.0819   0.5392   0.6502     C
C        0.092   0.4287   0.9301     C
C       0.0998   0.6608   0.3723     C
H       0.1039   0.8104   0.5722     H
C       0.1042   0.7777   0.5189     C
C       0.1062    0.557   0.1531     C
N       0.1091   0.6022   0.3136     N
N       0.1109   0.5053   0.9886     N
C        0.115   0.3233   0.8115     C
H       0.1242   0.2808   0.7793     H
H       0.1566   0.8758   0.7793     H
C       0.1676   0.4665   0.8658     C
H       0.1691   0.5916   0.1534     H
C       0.1705   0.6986   0.4352     C
C        0.176   0.7623   0.5015     C
C       0.1767   0.4156   0.7933     C
C       0.1842   0.5915   0.6544     C
C       0.1882   0.6058   0.3434     C
H       0.1896   0.2935   0.5722     H
C         0.19    0.574    0.959     C
H        0.204   0.4337   0.5355     H
C       0.2083    0.885   0.8115     C
H       0.2105   0.5701   0.3185     H
H       0.2165   0.4384   0.7417     H
H       0.2174   0.6292   0.9911     H
O       0.2201   0.6445   0.7182     O
H       0.2219   0.7835   0.7417     H
C       0.2223   0.3265   0.5189     C
O       0.2231   0.5769   0.5801     O
N       0.2267   0.5616   0.8857     N
H       0.2279   0.2415   0.9542     H
N       0.2297   0.6695    0.415     N
H       0.2297    0.796   0.5355     H
H       0.2321    0.999   0.3674     H
H       0.2331    0.001   0.8674     H
C       0.2377   0.4137   0.5015     C
C       0.2389   0.8233   0.7933     C
H       0.2415   0.2279   0.4542     H
C       0.2478   0.9553   0.8712     C
C       0.2598   0.2892   0.4505     C
H       0.2808   0.1242   0.2793     H
C       0.2892   0.2598   0.9505     C
C       0.2925   0.0447   0.3712     C
H       0.2935   0.1896   0.0722     H
C       0.2989   0.8324   0.8658     C
C       0.3014   0.4719   0.4352     C
C       0.3079   0.9613   0.9363     C
H       0.3207   0.3516   0.8393     H
C       0.3228   0.3425   0.3789     C
H       0.3231   0.9956    0.485     H
C       0.3233    0.115   0.3115     C
C       0.3265   0.2223   0.0189     C
H       0.3275   0.0044    0.985     H
N       0.3305   0.5602    0.415     N
Co     0.33333  0.66667  0.50328    Co
Co     0.33333  0.66667   0.7982    Co
N       0.3349   0.7733   0.8857     N
C       0.3367    0.908   0.9301     C
C       0.3392    0.439   0.3723     C
C       0.3425   0.3228   0.8789     C
C       0.3466   0.0387   0.4363     C
H       0.3516   0.3207   0.3393     H
O       0.3538   0.7769   0.5801     O
O       0.3555   0.5756   0.7182     O
H       0.3596   0.7895   0.3185     H
H       0.3708   0.5882   0.9911     H
C        0.384     0.81    0.959     C
C       0.3942   0.5824   0.3434     C
N       0.3944   0.8891   0.9886     N
N       0.3978   0.5069   0.3136     N
C       0.4073   0.8158   0.6544     C
H       0.4084   0.5775   0.1534     H
C       0.4085   0.5927   0.6544     C
H       0.4118   0.7826   0.9911     H
C       0.4137   0.2377   0.0015     C
C       0.4156   0.1767   0.2933     C
C       0.4176   0.8118   0.3434     C
H       0.4225   0.8309   0.1534     H
O       0.4231   0.6462   0.5801     O
O       0.4244   0.7799   0.7182     O
C        0.426    0.616    0.959     C
H       0.4281   0.4905   0.7886     H
C       0.4287    0.092   0.4301     C
H        0.429   0.9303   0.5151     H
H       0.4299   0.6404   0.3185     H
H       0.4337    0.204   0.0355     H
H       0.4384   0.2165   0.2417     H
N       0.4384   0.6651   0.8857     N
C        0.439   0.3392   0.8723     C
N       0.4398   0.7703    0.415     N
C        0.443   0.5492   0.1531     C
C        0.446   0.5044   0.2303     C
C       0.4471   0.9409   0.0699     C
C       0.4508   0.8938   0.1531     C
C       0.4573   0.9181   0.6502     C
C       0.4587   0.9624   0.5701     C
C       0.4596   0.4916   0.7336     C
C       0.4608   0.5427   0.6502     C
C       0.4665   0.1676   0.3658     C
C       0.4719   0.3014   0.9352     C
H       0.4905   0.4281   0.2886     H
C       0.4916   0.4596   0.2336     C
N       0.4931   0.8909   0.3136     N
C       0.4938   0.5529   0.0699     C
N       0.4947   0.6056   0.9886     N
C       0.4956   0.9416   0.2303     C
C       0.4963   0.0376   0.0701     C
H       0.4987   0.0697   0.0151     H
H       0.5013    0.571   0.5151     H
C       0.5037   0.5413   0.5701     C
C       0.5044    0.446   0.7303     C
N       0.5053   0.1109   0.4886     N
C       0.5062   0.0591   0.5699     C
N       0.5069   0.3978   0.8136     N
C       0.5084    0.968   0.7336     C
H       0.5095   0.9376   0.7886     H
C       0.5281   0.8295   0.4352     C
C       0.5335   0.7011   0.8658     C
C       0.5392   0.0819   0.1502     C
C       0.5404    0.032   0.2336     C
C       0.5413   0.5037   0.0701     C
C       0.5427   0.4608   0.1502     C
C       0.5492    0.443   0.6531     C
C       0.5529   0.4938   0.5699     C
C        0.554   0.0584   0.7303     C
C        0.557   0.1062   0.6531     C
N       0.5602   0.3305    0.915     N
C        0.561   0.9002   0.3723     C
N       0.5616   0.2267   0.3857     N
H       0.5616   0.7781   0.7417     H
H       0.5663   0.7703   0.5355     H
H       0.5701   0.2105   0.8185     H
H        0.571   0.5013   0.0151     H
C       0.5713   0.6633   0.9301     C
H       0.5719   0.0624   0.2886     H
C        0.574     0.19    0.459     C
O       0.5756   0.3555   0.2182     O
O       0.5769   0.2231   0.0801     O
H       0.5775   0.4084   0.6534     H
C       0.5824   0.3942   0.8434     C
C       0.5844   0.7611   0.7933     C
C       0.5863    0.824   0.5015     C
H       0.5882   0.3708   0.4911     H
C       0.5915   0.1842   0.1544     C
H       0.5916   0.1691   0.6534     H
C       0.5927   0.4085   0.1544     C
N       0.6022   0.1091   0.8136     N
N       0.6056   0.4947   0.4886     N
C       0.6058   0.1882   0.8434     C
C        0.616    0.426    0.459     C
H       0.6292   0.2174   0.4911     H
H       0.6404   0.4299   0.8185     H
O       0.6445   0.2201   0.2182     O
O       0.6462   0.4231   0.0801     O
H       0.6484   0.9691   0.8393     H
C       0.6534   0.6921   0.9363     C
C       0.6575   0.9803   0.3789     C
C       0.6608   0.0998   0.8723     C
C       0.6633   0.5713   0.4301     C
N       0.6651   0.4384   0.3857     N
Co     0.66667  0.33333  0.00328    Co
Co     0.66667  0.33333   0.2982    Co
N       0.6695   0.2297    0.915     N
H       0.6725   0.6769    0.485     H
C       0.6735   0.8958   0.5189     C
C       0.6767   0.7917   0.8115     C
H       0.6769   0.6725    0.985     H
C       0.6772   0.0197   0.8789     C
H       0.6793   0.0309   0.3393     H
C       0.6921   0.6534   0.4363     C
C       0.6986   0.1705   0.9352     C
C       0.7011   0.5335   0.3658     C
H       0.7065   0.8961   0.5722     H
C       0.7075   0.7522   0.8712     C
C       0.7108   0.9706   0.4505     C
H       0.7192   0.8434   0.7793     H
C       0.7402   0.0294   0.9505     C
C       0.7522   0.7075   0.3712     C
H       0.7585   0.9864   0.9542     H
C       0.7611   0.5844   0.2933     C
C       0.7623    0.176   0.0015     C
H       0.7669   0.7679   0.3674     H
H       0.7679   0.7669   0.8674     H
N       0.7703   0.4398    0.915     N
H       0.7703   0.5663   0.0355     H
H       0.7721   0.0136   0.4542     H
N       0.7733   0.3349   0.3857     N
O       0.7769   0.3538   0.0801     O
C       0.7777   0.1042   0.0189     C
H       0.7781   0.5616   0.2417     H
O       0.7799   0.4244   0.2182     O
H       0.7826   0.4118   0.4911     H
H       0.7835   0.2219   0.2417     H
H       0.7895   0.3596   0.8185     H
C       0.7917   0.6767   0.3115     C
H        0.796   0.2297   0.0355     H
C         0.81    0.384    0.459     C
H       0.8104   0.1039   0.0722     H
C       0.8118   0.4176   0.8434     C
C       0.8158   0.4073   0.1544     C
C       0.8233   0.2389   0.2933     C
C        0.824   0.5863   0.0015     C
C       0.8295   0.5281   0.9352     C
H       0.8309   0.4225   0.6534     H
C       0.8324   0.2989   0.3658     C
H       0.8434   0.7192   0.2793     H
H       0.8758   0.1566   0.2793     H
C        0.885   0.2083   0.3115     C
N       0.8891   0.3944   0.4886     N
N       0.8909   0.4931   0.8136     N
C       0.8938   0.4508   0.6531     C
C       0.8958   0.6735   0.0189     C
H       0.8961   0.7065   0.0722     H
C       0.9002    0.561   0.8723     C
C        0.908   0.3367   0.4301     C
C       0.9181   0.4573   0.1502     C
H       0.9303    0.429   0.0151     H
H       0.9376   0.5095   0.2886     H
C       0.9409   0.4471   0.5699     C
C       0.9416   0.4956   0.7303     C
C       0.9553   0.2478   0.3712     C
C       0.9613   0.3079   0.4363     C
C       0.9624   0.4587   0.0701     C
C        0.968   0.5084   0.2336     C
H       0.9691   0.6484   0.3393     H
C       0.9706   0.7108   0.9505     C
C       0.9803   0.6575   0.8789     C
H       0.9864   0.7585   0.4542     H
H       0.9956   0.3231    0.985     H
H        0.999   0.2321   0.8674     H
