data_I
_chemical_name_common  '/home/zhangsd/repos/MofS-CGCNN/ML/data/TSD/clean_cifs/YOYWEQ_clean'
_cell_length_a 26.85200
_cell_length_b 26.85200
_cell_length_c  9.67350
_cell_angle_alpha 90.00000
_cell_angle_beta  90.00000
_cell_angle_gamma 120.00000
_space_group_name_H-M_alt      'P 1'


loop_
_space_group_symop_operation_xyz
  'x, y, z' 

loop_
_atom_site_label
_atom_site_fract_x
_atom_site_fract_y
_atom_site_fract_z
_atom_site_type_symbol
Au         0.0   0.2936      0.0    Au
Fe         0.0      0.5      0.0    Fe
Au         0.0   0.7064      0.0    Au
N       0.0007   0.4423   0.1514     N
N       0.0007   0.5584   0.1514     N
H      0.00873  0.14117  0.66797     H
H      0.00873  0.86757  0.66797     H
C       0.0104   0.4134     0.78     C
C       0.0104    0.597     0.78     C
C      0.02842  0.05683  0.32933     C
C      0.02842  0.97158  0.32933     C
N      0.03063  0.06127  0.66967     N
N      0.03063  0.96937  0.66967     N
C      0.03127  0.15113  0.33233     C
C      0.03127  0.88013  0.33233     C
Au     0.03973  0.37307  0.66667    Au
Au     0.03973  0.66667  0.66667    Au
H      0.04167  0.22983  0.32333     H
H      0.04167  0.81183  0.32333     H
C      0.05683  0.02842  0.67067     C
C      0.05877  0.11753  0.33833     C
C      0.05877  0.94123  0.33833     C
N      0.06127  0.03063  0.33033     N
C      0.06147  0.20963  0.32733     C
C      0.06147  0.85183  0.32733     C
C      0.06967  0.32293  0.11333     C
C      0.06967  0.74673  0.11333     C
C      0.08007  0.34373  0.55333     C
C      0.08007  0.73633  0.55333     C
N       0.0945  0.54725    0.996     N
H       0.1035   0.4785     0.99     H
H       0.1035    0.625     0.99     H
N      0.10827  0.33263  0.48473     N
N      0.10827  0.77563  0.48473     N
N      0.10897  0.33403  0.18193     N
N      0.10897  0.77493  0.18193     N
C      0.11753  0.05877  0.66167     C
N      0.11942  0.23883  0.32933     N
N      0.11942  0.88058  0.32933     N
C      0.11987  0.15113  0.33233     C
C      0.11987  0.96873  0.33233     C
C       0.1237   0.5185    0.994     C
C       0.1237   0.6052    0.994     C
H      0.13243  0.14117  0.66797     H
H      0.13243  0.99127  0.66797     H
H      0.14117  0.00873  0.33203     H
H      0.14117  0.13243  0.33203     H
H      0.14517  0.43683  0.34333     H
H      0.14517  0.70833  0.34333     H
C      0.14817  0.20963  0.32733     C
C      0.14817  0.93853  0.32733     C
C      0.15113  0.03127  0.66767     C
C      0.15113  0.11987  0.66767     C
Fe     0.16667  0.33333  0.33333    Fe
Fe     0.16667  0.83333  0.33333    Fe
C       0.1822   0.5468    0.999     C
C       0.1822   0.6354    0.999     C
C      0.18517  0.45703  0.33933     C
C      0.18517  0.72813  0.33933     C
H      0.18817  0.22983  0.32333     H
H      0.18817  0.95833  0.32333     H
H      0.19217  0.53423  0.33463     H
H      0.19217  0.65793  0.33463     H
H       0.2009   0.5255   0.9987     H
H       0.2009   0.6754   0.9987     H
C      0.20963  0.06147  0.67267     C
C      0.20963  0.14817  0.67267     C
C      0.21347  0.51553  0.33433     C
C      0.21347  0.69793  0.33433     C
N      0.21392  0.42783  0.33733     N
N      0.21392  0.78608  0.33733     N
C       0.2158   0.6079    0.005     C
N      0.22437  0.33263  0.48473     N
N      0.22437  0.89173  0.48473     N
N      0.22507  0.33403  0.18193     N
N      0.22507  0.89103  0.18193     N
H      0.22983  0.04167  0.67667     H
H      0.22983  0.18817  0.67667     H
N      0.23883  0.11942  0.67067     N
C      0.25327  0.32293  0.11333     C
C      0.25327  0.93033  0.11333     C
C      0.26367  0.34373  0.55333     C
C      0.26367  0.91993  0.55333     C
C      0.27187  0.45703  0.33933     C
C      0.27187  0.81483  0.33933     C
N      0.27207  0.63603  0.33633     N
C      0.27457  0.54913  0.32833     C
C      0.27457  0.72543  0.32833     C
C       0.2765  0.63825    0.996     C
H      0.29167  0.43683  0.34333     H
H      0.29167  0.85483  0.34333     H
Au      0.2936      0.0      0.0    Au
Au      0.2936   0.2936      0.0    Au
C      0.30207  0.51553  0.33433     C
C      0.30207  0.78653  0.33433     C
N       0.3027   0.6054    0.997     N
N       0.3027   0.6973    0.997     N
C      0.30492  0.60983  0.33733     C
C      0.30492  0.69508  0.33733     C
C      0.32293  0.06967  0.88667     C
C      0.32293  0.25327  0.88667     C
H       0.3246   0.5255   0.9987     H
H       0.3246   0.7991   0.9987     H
N      0.33263  0.10827  0.51527     N
N      0.33263  0.22437  0.51527     N
Fe     0.33333  0.16667  0.66667    Fe
Au     0.33333  0.37307  0.66667    Au
Au     0.33333  0.96027  0.66667    Au
N      0.33403  0.10897  0.81807     N
N      0.33403  0.22507  0.81807     N
H      0.34207  0.53423  0.33463     H
H      0.34207  0.80783  0.33463     H
C      0.34373  0.08007  0.44667     C
C      0.34373  0.26367  0.44667     C
C      0.36175  0.63825    0.996     C
C      0.36175   0.7235    0.996     C
N      0.36397  0.63603  0.33633     N
N      0.36397  0.72793  0.33633     N
C       0.3646   0.5468    0.999     C
C       0.3646   0.8178    0.999     C
Au     0.37307  0.03973  0.33333    Au
Au     0.37307  0.33333  0.33333    Au
H        0.375   0.4785     0.99     H
H        0.375   0.8965     0.99     H
C      0.39017  0.69508  0.33733     C
C       0.3921   0.6079    0.005     C
C       0.3921   0.7842    0.005     C
N       0.3946   0.6973    0.997     N
C       0.3948   0.5185    0.994     C
C       0.3948   0.8763    0.994     C
C        0.403   0.4134     0.78     C
C        0.403   0.9896     0.78     C
C       0.4134   0.0104     0.22     C
C       0.4134    0.403     0.22     C
N      0.42783  0.21392  0.66267     N
H      0.43683  0.14517  0.65667     H
H      0.43683  0.29167  0.65667     H
N       0.4416   0.4423   0.1514     N
N       0.4416   0.9993   0.1514     N
N       0.4423   0.0007   0.8486     N
N       0.4423   0.4416   0.8486     N
C      0.45087  0.72543  0.32833     C
N      0.45275  0.54725    0.996     N
N      0.45275   0.9055    0.996     N
C       0.4532   0.6354    0.999     C
C       0.4532   0.8178    0.999     C
C      0.45703  0.18517  0.66067     C
C      0.45703  0.27187  0.66067     C
H      0.46577  0.65793  0.33463     H
H      0.46577  0.80783  0.33463     H
H       0.4745   0.6754   0.9987     H
H       0.4745   0.7991   0.9987     H
H       0.4785   0.1035     0.01     H
H       0.4785    0.375     0.01     H
C       0.4815   0.6052    0.994     C
C       0.4815   0.8763    0.994     C
C      0.48447  0.69793  0.33433     C
C      0.48447  0.78653  0.33433     C
Fe         0.5      0.0      0.0    Fe
Fe         0.5      0.5      0.0    Fe
C      0.51553  0.21347  0.66567     C
C      0.51553  0.30207  0.66567     C
C       0.5185   0.1237    0.006     C
C       0.5185   0.3948    0.006     C
H       0.5215    0.625     0.99     H
H       0.5215   0.8965     0.99     H
H       0.5255   0.2009   0.0013     H
H       0.5255   0.3246   0.0013     H
H      0.53423  0.19217  0.66537     H
H      0.53423  0.34207  0.66537     H
C      0.54297  0.72813  0.33933     C
C      0.54297  0.81483  0.33933     C
C       0.5468   0.1822    0.001     C
C       0.5468   0.3646    0.001     C
N      0.54725   0.0945    0.004     N
N      0.54725  0.45275    0.004     N
C      0.54913  0.27457  0.67167     C
N       0.5577   0.5584   0.1514     N
N       0.5577   0.9993   0.1514     N
N       0.5584   0.0007   0.8486     N
N       0.5584   0.5577   0.8486     N
H      0.56317  0.70833  0.34333     H
H      0.56317  0.85483  0.34333     H
N      0.57217  0.78608  0.33733     N
C       0.5866    0.597     0.78     C
C       0.5866   0.9896     0.78     C
C        0.597   0.0104     0.22     C
C        0.597   0.5866     0.22     C
C       0.6052   0.1237    0.006     C
C       0.6052   0.4815    0.006     C
N       0.6054   0.3027    0.003     N
C       0.6079   0.2158    0.995     C
C       0.6079   0.3921    0.995     C
C      0.60983  0.30492  0.66267     C
H        0.625   0.1035     0.01     H
H        0.625   0.5215     0.01     H
Au     0.62693  0.66667  0.66667    Au
Au     0.62693  0.96027  0.66667    Au
C       0.6354   0.1822    0.001     C
C       0.6354   0.4532    0.001     C
N      0.63603  0.27207  0.66367     N
N      0.63603  0.36397  0.66367     N
C      0.63825   0.2765    0.004     C
C      0.63825  0.36175    0.004     C
C      0.65627  0.73633  0.55333     C
C      0.65627  0.91993  0.55333     C
H      0.65793  0.19217  0.66537     H
H      0.65793  0.46577  0.66537     H
N      0.66597  0.77493  0.18193     N
N      0.66597  0.89103  0.18193     N
Au     0.66667  0.03973  0.33333    Au
Au     0.66667  0.62693  0.33333    Au
Fe     0.66667  0.83333  0.33333    Fe
N      0.66737  0.77563  0.48473     N
N      0.66737  0.89173  0.48473     N
H       0.6754   0.2009   0.0013     H
H       0.6754   0.4745   0.0013     H
C      0.67707  0.74673  0.11333     C
C      0.67707  0.93033  0.11333     C
C      0.69508  0.30492  0.66267     C
C      0.69508  0.39017  0.66267     C
N       0.6973   0.3027    0.003     N
N       0.6973   0.3946    0.003     N
C      0.69793  0.21347  0.66567     C
C      0.69793  0.48447  0.66567     C
Au      0.7064      0.0      0.0    Au
Au      0.7064   0.7064      0.0    Au
H      0.70833  0.14517  0.65667     H
H      0.70833  0.56317  0.65667     H
C       0.7235  0.36175    0.004     C
C      0.72543  0.27457  0.67167     C
C      0.72543  0.45087  0.67167     C
N      0.72793  0.36397  0.66367     N
C      0.72813  0.18517  0.66067     C
C      0.72813  0.54297  0.66067     C
C      0.73633  0.08007  0.44667     C
C      0.73633  0.65627  0.44667     C
C      0.74673  0.06967  0.88667     C
C      0.74673  0.67707  0.88667     C
N      0.76117  0.88058  0.32933     N
H      0.77017  0.81183  0.32333     H
H      0.77017  0.95833  0.32333     H
N      0.77493  0.10897  0.81807     N
N      0.77493  0.66597  0.81807     N
N      0.77563  0.10827  0.51527     N
N      0.77563  0.66737  0.51527     N
C       0.7842   0.3921    0.995     C
N      0.78608  0.21392  0.66267     N
N      0.78608  0.57217  0.66267     N
C      0.78653  0.30207  0.66567     C
C      0.78653  0.48447  0.66567     C
C      0.79037  0.85183  0.32733     C
C      0.79037  0.93853  0.32733     C
H       0.7991   0.3246   0.0013     H
H       0.7991   0.4745   0.0013     H
H      0.80783  0.34207  0.66537     H
H      0.80783  0.46577  0.66537     H
H      0.81183  0.04167  0.67667     H
H      0.81183  0.77017  0.67667     H
C      0.81483  0.27187  0.66067     C
C      0.81483  0.54297  0.66067     C
C       0.8178   0.3646    0.001     C
C       0.8178   0.4532    0.001     C
Fe     0.83333  0.16667  0.66667    Fe
Fe     0.83333  0.66667  0.66667    Fe
C      0.84887  0.88013  0.33233     C
C      0.84887  0.96873  0.33233     C
C      0.85183  0.06147  0.67267     C
C      0.85183  0.79037  0.67267     C
H      0.85483  0.29167  0.65667     H
H      0.85483  0.56317  0.65667     H
H      0.85883  0.86757  0.66797     H
H      0.85883  0.99127  0.66797     H
H      0.86757  0.00873  0.33203     H
H      0.86757  0.85883  0.33203     H
C       0.8763   0.3948    0.006     C
C       0.8763   0.4815    0.006     C
C      0.88013  0.03127  0.66767     C
C      0.88013  0.84887  0.66767     C
N      0.88058  0.11942  0.67067     N
N      0.88058  0.76117  0.67067     N
C      0.88247  0.94123  0.33833     C
N      0.89103  0.22507  0.81807     N
N      0.89103  0.66597  0.81807     N
N      0.89173  0.22437  0.51527     N
N      0.89173  0.66737  0.51527     N
H       0.8965    0.375     0.01     H
H       0.8965   0.5215     0.01     H
N       0.9055  0.45275    0.004     N
C      0.91993  0.26367  0.44667     C
C      0.91993  0.65627  0.44667     C
C      0.93033  0.25327  0.88667     C
C      0.93033  0.67707  0.88667     C
C      0.93853  0.14817  0.67267     C
C      0.93853  0.79037  0.67267     C
N      0.93873  0.96937  0.66967     N
C      0.94123  0.05877  0.66167     C
C      0.94123  0.88247  0.66167     C
C      0.94317  0.97158  0.32933     C
H      0.95833  0.18817  0.67667     H
H      0.95833  0.77017  0.67667     H
Au     0.96027  0.33333  0.33333    Au
Au     0.96027  0.62693  0.33333    Au
C      0.96873  0.11987  0.66767     C
C      0.96873  0.84887  0.66767     C
N      0.96937  0.03063  0.33033     N
N      0.96937  0.93873  0.33033     N
C      0.97158  0.02842  0.67067     C
C      0.97158  0.94317  0.67067     C
C       0.9896    0.403     0.22     C
C       0.9896   0.5866     0.22     C
H      0.99127  0.13243  0.33203     H
H      0.99127  0.85883  0.33203     H
N       0.9993   0.4416   0.8486     N
N       0.9993   0.5577   0.8486     N
