data_I
_chemical_name_common  '/home/zhangsd/repos/MofS-CGCNN/ML/data/TSD/clean_cifs/YOZKOP_clean'
_cell_length_a 11.31280
_cell_length_b 11.31280
_cell_length_c 34.11100
_cell_angle_alpha 90.00000
_cell_angle_beta  90.00000
_cell_angle_gamma 120.00000
_space_group_name_H-M_alt      'P 1'


loop_
_space_group_symop_operation_xyz
  'x, y, z' 

loop_
_atom_site_label
_atom_site_fract_x
_atom_site_fract_y
_atom_site_fract_z
_atom_site_type_symbol
C       0.0053   0.3424   0.2586     C
C       0.0053   0.6629  0.90807     C
O      0.02481  0.47258  0.62075     O
O      0.02481  0.55223  0.54591     O
O      0.03209  0.36113  0.53702     O
O      0.03209  0.67096  0.62964     O
H       0.0333   0.2779  0.25757     H
H       0.0333   0.7554   0.9091     H
C       0.0431   0.4811  0.92472     C
C       0.0431    0.562  0.24195     C
C        0.075   0.4652  0.76156     C
C        0.075   0.6098  0.40511     C
C       0.0754   0.4848  0.53049     C
C       0.0754   0.5906  0.63617     C
C       0.0812   0.4657  0.23986     C
C       0.0812   0.6155  0.92681     C
H       0.0967     0.45   0.9365     H
H       0.0967   0.6467  0.23017     H
H        0.102      0.4  0.76257     H
H        0.102    0.702   0.4041     H
C       0.1123   0.4254  0.38762     C
C       0.1123   0.6869  0.77905     C
Cu     0.11706  0.55853  0.08333    Cu
H       0.1262   0.3866  0.82717     H
H       0.1262   0.7396   0.3395     H
C       0.1525   0.5623  0.38702     C
C       0.1525   0.5902  0.77965     C
H       0.1532   0.3798  0.64603     H
H       0.1532   0.7734  0.52063     H
H       0.1585    0.483  0.22577     H
H       0.1585   0.6755   0.9409     H
H       0.1628    0.393   0.3747     H
H       0.1628   0.7698  0.79197     H
H       0.1773   0.4233  0.01527     H
H       0.1773    0.754   0.1514     H
C       0.1901   0.5616  0.50359     C
C       0.1901   0.6285  0.66307     C
N       0.2071   0.4233  0.83685     N
N       0.2071   0.7838  0.32982     N
N       0.2162   0.4233  0.66315     N
N       0.2162   0.7929  0.50351     N
H       0.2266   0.3798  0.85397     H
H       0.2266   0.8468   0.3127     H
H       0.2302    0.393   0.1253     H
H       0.2302   0.8372  0.04137     H
H       0.2446   0.2779  0.24243     H
H       0.2446   0.9667  0.92423     H
C       0.2457   0.5486  0.67468     C
C       0.2457   0.6971  0.49198     C
H        0.246   0.4233  0.48473     H
H        0.246   0.8227  0.68193     H
C       0.2503   0.5121  0.01728     C
C       0.2503   0.7382  0.14939     C
N      0.25094  0.60654  0.04043     N
N      0.25094   0.6444  0.12624     N
H       0.2604   0.3866  0.67283     H
H       0.2604   0.8738  0.49383     H
C       0.2618   0.5121  0.48272     C
C       0.2618   0.7497  0.68394     C
H       0.2779   0.0333  0.07577     H
H       0.2779   0.2446   0.0909     H
N      0.27811   0.6227  0.79829     N
N      0.27811  0.65541  0.36838     N
H        0.298      0.4  0.73743     H
H        0.298    0.898  0.42923     H
C       0.3029   0.5486  0.82532     C
C       0.3029   0.7543  0.34135     C
C       0.3131   0.4254  0.11238     C
C       0.3131   0.8877  0.05429     C
H       0.3245    0.483  0.27423     H
H       0.3245   0.8415  0.89243     H
O      0.32904  0.36113  0.96298     O
O      0.32904  0.96791  0.20369     O
C       0.3371   0.3424   0.2414     C
C       0.3371   0.9947  0.92526     C
C       0.3424   0.0053  0.07474     C
C       0.3424   0.3371  0.09193     C
N      0.34459   0.6227  0.70171     N
N      0.34459  0.72189  0.46495     N
H       0.3533     0.45   0.5635     H
H       0.3533   0.9033  0.60317     H
N       0.3556  0.60654  0.45957     N
N       0.3556  0.74906  0.70709     N
O      0.36113  0.03209  0.79631     O
O      0.36113  0.32904  0.37036     O
C       0.3715   0.5616  0.99641     C
C       0.3715   0.8099  0.17026     C
N       0.3773  0.65541  0.13162     N
N       0.3773  0.72189  0.03505     N
H       0.3798   0.1532   0.6873     H
H       0.3798   0.2266  0.47937     H
C       0.3845   0.4657  0.26014     C
C       0.3845   0.9188  0.90652     C
H       0.3866   0.1262  0.50617     H
H       0.3866   0.2604   0.6605     H
C       0.3902   0.4652  0.73844     C
C       0.3902    0.925  0.42822     C
H        0.393   0.1628  0.95863     H
H        0.393   0.2302  0.20803     H
N      0.39346   0.6444  0.37376     N
N      0.39346  0.74906  0.79291     N
H          0.4    0.102  0.57077     H
H          0.4    0.298   0.5959     H
C       0.4094   0.4848  0.96951     C
C       0.4094   0.9246  0.19716     C
C       0.4098   0.5623  0.11298     C
C       0.4098   0.8475  0.05369     C
H       0.4233   0.1773  0.31807     H
N       0.4233   0.2071  0.49649     N
N       0.4233   0.2162  0.67018     N
H       0.4233    0.246   0.8486     H
C       0.4254   0.1123  0.94571     C
C       0.4254   0.3131  0.22095     C
C       0.4377   0.5902  0.72035     C
C       0.4377   0.8475  0.44631     C
C        0.438   0.4811  0.57528     C
C        0.438   0.9569  0.59139     C
C       0.4384   0.6285  0.83693     C
C       0.4384   0.8099  0.32974     C
Cu     0.44147  0.55853  0.41667    Cu
Cu     0.44147  0.88294     0.75    Cu
O      0.44777  0.47258  0.87925     O
O      0.44777  0.97519  0.28742     O
H         0.45   0.0967  0.39683     H
H         0.45   0.3533  0.76983     H
C       0.4514   0.6971  0.00802     C
C       0.4514   0.7543  0.15865     C
C       0.4652    0.075  0.57178     C
C       0.4652   0.3902  0.59489     C
C       0.4657   0.0812  0.09348     C
C       0.4657   0.3845  0.07319     C
O      0.47258  0.02481  0.71258     O
O      0.47258  0.44777  0.45409     O
C       0.4811   0.0431  0.40861     C
C       0.4811    0.438  0.75805     C
H        0.483   0.1585  0.10757     H
H        0.483   0.3245   0.0591     H
C       0.4848   0.0754  0.80284     C
C       0.4848   0.4094  0.36383     C
C       0.4879   0.7382  0.35061     C
C       0.4879   0.7497  0.81606     C
C       0.5121   0.2503  0.31606     C
C       0.5121   0.2618  0.85061     C
C       0.5152   0.5906  0.86383     C
C       0.5152   0.9246  0.30284     C
H        0.517   0.6755   0.5591     H
H        0.517   0.8415  0.60757     H
C       0.5189    0.562  0.25805     C
C       0.5189   0.9569  0.90861     C
O      0.52742  0.55223  0.95409     O
O      0.52742  0.97519  0.21258     O
C       0.5343   0.6155  0.57319     C
C       0.5343   0.9188  0.59348     C
C       0.5348   0.6098  0.09489     C
C       0.5348    0.925  0.07178     C
C       0.5486   0.2457  0.65865     C
C       0.5486   0.3029  0.50802     C
H         0.55   0.6467  0.26983     H
H         0.55   0.9033  0.89683     H
O      0.55223  0.02481  0.78742     O
O      0.55223  0.52742  0.37925     O
Cu     0.55853  0.11706     0.25    Cu
Cu     0.55853  0.44147  0.91667    Cu
C       0.5616   0.1901  0.82974     C
C       0.5616   0.3715  0.33693     C
C        0.562   0.0431  0.09139     C
C        0.562   0.5189  0.07528     C
C       0.5623   0.1525  0.94631     C
C       0.5623   0.4098  0.22035     C
C       0.5746   0.6869  0.72095     C
C       0.5746   0.8877  0.44571     C
H       0.5767    0.754   0.3486     H
N       0.5767   0.7838  0.17018     N
N       0.5767   0.7929  0.99649     N
H       0.5767   0.8227  0.81807     H
C       0.5902   0.1525  0.55369     C
C       0.5902   0.4377  0.61298     C
C       0.5906   0.0754  0.69716     C
C       0.5906   0.5152  0.46951     C
H          0.6    0.702   0.0959     H
H          0.6    0.898  0.07077     H
N      0.60654  0.25094  0.29291     N
N      0.60654   0.3556  0.87376     N
H        0.607   0.7698  0.70803     H
H        0.607   0.8372  0.45863     H
C       0.6098    0.075  0.92822     C
C       0.6098   0.5348  0.23844     C
H       0.6134   0.7396   0.1605     H
H       0.6134   0.8738  0.00617     H
C       0.6155   0.0812  0.40652     C
C       0.6155   0.5343  0.76014     C
H       0.6202   0.7734  0.97937     H
H       0.6202   0.8468   0.1873     H
N       0.6227  0.27811  0.53505     N
N       0.6227  0.34459  0.63162     N
C       0.6285   0.1901  0.67026     C
C       0.6285   0.4384  0.49641     C
O      0.63887  0.67096  0.87036     O
O      0.63887  0.96791  0.29631     O
N       0.6444  0.25094  0.20709     N
N       0.6444  0.39346  0.95957     N
H       0.6467   0.0967  0.10317     H
H       0.6467     0.55   0.0635     H
N      0.65541  0.27811  0.96495     N
N      0.65541   0.3773  0.20171     N
C       0.6576   0.6629  0.59193     C
C       0.6576   0.9947  0.57474     C
C       0.6629   0.0053  0.42526     C
C       0.6629   0.6576   0.7414     C
O      0.67096  0.03209  0.70369     O
O      0.67096  0.63887  0.46298     O
H       0.6755   0.1585  0.39243     H
H       0.6755    0.517  0.77423     H
C       0.6869   0.1123  0.55429     C
C       0.6869   0.5746  0.61238     C
C       0.6971   0.2457  0.84135     C
C       0.6971   0.4514  0.32532     C
H        0.702    0.102  0.92923     H
H        0.702      0.6  0.23743     H
N      0.72189  0.34459  0.86838     N
N      0.72189   0.3773  0.29829     N
H       0.7221   0.7554   0.5909     H
H       0.7221   0.9667  0.57577     H
C       0.7382   0.2503  0.18394     C
C       0.7382   0.4879  0.98272     C
H       0.7396   0.1262  0.99383     H
H       0.7396   0.6134  0.17283     H
N      0.74906   0.3556  0.62624     N
N      0.74906  0.39346  0.54043     N
C       0.7497   0.2618  0.64939     C
C       0.7497   0.4879  0.51728     C
H        0.754   0.1773  0.18193     H
H        0.754   0.5767  0.98473     H
C       0.7543   0.3029  0.99198     C
C       0.7543   0.4514  0.17468     C
H       0.7554   0.0333  0.42423     H
H       0.7554   0.7221  0.74243     H
H       0.7698   0.1628  0.54137     H
H       0.7698    0.607   0.6253     H
H       0.7734   0.1532   0.8127     H
H       0.7734   0.6202  0.35397     H
N       0.7838   0.2071  0.00351     N
N       0.7838   0.5767  0.16315     N
N       0.7929   0.2162  0.82982     N
N       0.7929   0.5767  0.33685     N
C       0.8099   0.3715  0.16307     C
C       0.8099   0.4384  0.00359     C
H       0.8227    0.246   0.6514     H
H       0.8227   0.5767  0.51527     H
H       0.8372   0.2302  0.29197     H
H       0.8372    0.607   0.8747     H
H       0.8415   0.3245   0.4409     H
H       0.8415    0.517  0.72577     H
H       0.8468   0.2266  0.02063     H
H       0.8468   0.6202  0.14603     H
C       0.8475   0.4098  0.27965     C
C       0.8475   0.4377  0.88702     C
H       0.8738   0.2604   0.8395     H
H       0.8738   0.6134  0.32717     H
Cu     0.88294  0.44147  0.58333    Cu
C       0.8877   0.3131  0.27905     C
C       0.8877   0.5746  0.88762     C
H        0.898    0.298   0.9041     H
H        0.898      0.6  0.26257     H
H       0.9033   0.3533  0.73017     H
H       0.9033     0.55   0.4365     H
C       0.9188   0.3845  0.42681     C
C       0.9188   0.5343  0.73986     C
C       0.9246   0.4094  0.13617     C
C       0.9246   0.5152  0.03049     C
C        0.925   0.3902  0.90511     C
C        0.925   0.5348  0.26156     C
C       0.9569    0.438  0.74195     C
C       0.9569   0.5189  0.42472     C
H       0.9667   0.2446   0.4091     H
H       0.9667   0.7221  0.75757     H
O      0.96791  0.32904  0.12964     O
O      0.96791  0.63887  0.03702     O
O      0.97519  0.44777  0.04591     O
O      0.97519  0.52742  0.12075     O
C       0.9947   0.3371  0.40807     C
C       0.9947   0.6576   0.7586     C
