data_I
_chemical_name_common  '/home/zhangsd/repos/MofS-CGCNN/ML/data/TSD/clean_cifs/YOZRUC_clean'
_cell_length_a  8.99780
_cell_length_b  9.46380
_cell_length_c 10.43300
_cell_angle_alpha 90.00000
_cell_angle_beta  90.00000
_cell_angle_gamma 90.00000
_space_group_name_H-M_alt      'P 1'


loop_
_space_group_symop_operation_xyz
  'x, y, z' 

loop_
_atom_site_label
_atom_site_fract_x
_atom_site_fract_y
_atom_site_fract_z
_atom_site_type_symbol
C       0.0057   0.6986   0.2741     C
C       0.0223   0.7354   0.8531     C
O       0.0397   0.5845   0.3205     O
H       0.0455   0.7035    0.935     H
C       0.0521   0.3359   0.8794     C
H       0.0543   0.7237   0.1988     H
C       0.0629   0.7415   0.6371     C
H       0.0776   0.3657   0.9615     H
O       0.0849   0.2835   0.1848     O
C       0.0962   0.3332   0.6638     C
N       0.1013   0.6883   0.7523     N
H       0.1166   0.7131   0.5654     H
N       0.1281   0.3856    0.777     N
O       0.1525   0.3472   0.4431     O
C       0.1834   0.3905   0.5527     C
Co     0.20432  0.44728  0.26901    Co
O       0.2195   0.5205   0.0811     O
O       0.2805   0.4795   0.5811     O
Co     0.29568  0.55272  0.76901    Co
C       0.3166   0.6095   0.0527     C
O       0.3475   0.6528   0.9431     O
N       0.3719   0.6144    0.277     N
H       0.3834   0.2869   0.0654     H
N       0.3987   0.3117   0.2523     N
C       0.4038   0.6668   0.1638     C
O       0.4151   0.7165   0.6848     O
H       0.4224   0.6343   0.4615     H
C       0.4371   0.2585   0.1371     C
H       0.4457   0.2763   0.6988     H
C       0.4479   0.6641   0.3794     C
H       0.4545   0.2965    0.435     H
O       0.4603   0.4155   0.8205     O
C       0.4777   0.2646   0.3531     C
C       0.4943   0.3014   0.7741     C
C       0.5057   0.8014   0.7259     C
C       0.5223   0.7646   0.1469     C
O       0.5397   0.9155   0.6795     O
H       0.5455   0.7965    0.065     H
C       0.5521   0.1641   0.1206     C
H       0.5543   0.7763   0.8012     H
C       0.5629   0.7585   0.3629     C
H       0.5776   0.1343   0.0385     H
O       0.5849   0.2165   0.8152     O
C       0.5962   0.1668   0.3362     C
N       0.6013   0.8117   0.2477     N
H       0.6166   0.7869   0.4346     H
N       0.6281   0.1144    0.223     N
O       0.6525   0.1528   0.5569     O
C       0.6834   0.1095   0.4473     C
Co     0.70432  0.05272  0.73099    Co
O       0.7195   0.9795   0.9189     O
O       0.7805   0.0205   0.4189     O
Co     0.79568  0.94728  0.23099    Co
C       0.8166   0.8905   0.9473     C
O       0.8475   0.8472   0.0569     O
N       0.8719   0.8856    0.723     N
H       0.8834   0.2131   0.9346     H
N       0.8987   0.1883   0.7477     N
C       0.9038   0.8332   0.8362     C
O       0.9151   0.7835   0.3152     O
H       0.9224   0.8657   0.5385     H
C       0.9371   0.2415   0.8629     C
H       0.9457   0.2237   0.3012     H
C       0.9479   0.8359   0.6206     C
H       0.9545   0.2035    0.565     H
O       0.9603   0.0845   0.1795     O
C       0.9777   0.2354   0.6469     C
C       0.9943   0.1986   0.2259     C
