data_I
_chemical_name_common  '/home/zhangsd/repos/MofS-CGCNN/ML/data/TSD/clean_cifs/YUDFOU_clean'
_cell_length_a 25.46600
_cell_length_b 14.96100
_cell_length_c 26.14000
_cell_angle_alpha 90.00000
_cell_angle_beta  94.84200
_cell_angle_gamma 90.00000
_space_group_name_H-M_alt      'P 1'


loop_
_space_group_symop_operation_xyz
  'x, y, z' 

loop_
_atom_site_label
_atom_site_fract_x
_atom_site_fract_y
_atom_site_fract_z
_atom_site_type_symbol
C       0.0175   0.2373   0.1869     C
C       0.0175   0.7627   0.6869     C
C       0.0199   0.2935   0.2304     C
C       0.0199   0.7065   0.7304     C
N       0.0248   0.1714   0.3228     N
N       0.0248   0.8286   0.8228     N
O       0.0342   0.1431   0.3652     O
O       0.0342   0.8569   0.8652     O
O       0.0484   0.1474   0.2859     O
O       0.0484   0.8526   0.7859     O
H       0.0503   0.2063   0.1211     H
H       0.0503   0.7937   0.6211     H
C        0.053   0.2445   0.1493     C
C        0.053   0.7555   0.6493     C
O       0.0569   0.3884   0.3198     O
O       0.0569   0.6116   0.8198     O
C       0.0607   0.3558   0.2332     C
C       0.0607   0.6442   0.7332     C
N       0.0683   0.4151    0.278     N
N       0.0683   0.5849    0.778     N
O       0.0879   0.4879   0.2702     O
O       0.0879   0.5121   0.7702     O
C       0.0922   0.3087   0.1541     C
C       0.0922   0.6913   0.6541     C
C       0.0958   0.3639   0.1957     C
C       0.0958   0.6361   0.6957     C
O        0.099   0.0529    0.163     O
O        0.099   0.9471    0.663     O
O       0.1218   0.2696    0.074     O
O       0.1218   0.7304    0.574     O
H        0.122   0.4073    0.199     H
H        0.122   0.5927    0.699     H
C       0.1309   0.3175   0.1126     C
C       0.1309   0.6825   0.6126     C
O       0.1313   0.0077   0.4514     O
O       0.1313   0.9923   0.9514     O
O       0.1367   0.0336   0.7219     O
O       0.1367   0.9664   0.2219     O
N       0.1373    0.028   0.1918     N
N       0.1373    0.972   0.6918     N
H       0.1411    0.111   0.3804     H
H       0.1411    0.889   0.8804     H
O       0.1437   0.2492   0.3318     O
O       0.1437   0.7508   0.8318     O
O       0.1486   0.3207   0.7439     O
O       0.1486   0.6793   0.2439     O
Gd     0.15176  0.23629  0.99342    Gd
Gd     0.15176  0.76371  0.49342    Gd
O       0.1537   0.2125   0.2533     O
O       0.1537   0.7875   0.7533     O
N       0.1568   0.1989   0.2992     N
N       0.1568   0.8011   0.7992     N
C       0.1629   0.0767   0.3614     C
C       0.1629   0.9233   0.8614     C
C       0.1653   0.0384   0.9321     C
C       0.1653   0.9616   0.4321     C
O       0.1679   0.3702    0.121     O
O       0.1679   0.6298    0.621     O
H       0.1706   0.0982   0.1111     H
H       0.1706   0.9018   0.6111     H
C       0.1768   0.1068   0.3145     C
C       0.1768   0.8932   0.8145     C
C       0.1818   0.0061   0.8802     C
C       0.1818   0.9939   0.3802     C
O       0.1857   0.1088   0.9494     O
O       0.1857   0.8912   0.4494     O
H       0.1878   0.3114   0.8289     H
H       0.1878   0.6886   0.3289     H
C       0.1879   0.0751   0.1875     C
C       0.1879   0.9249   0.6875     C
N       0.1927   0.3449   0.7347     N
N       0.1927   0.6551   0.2347     N
O       0.1958   0.2919   0.9237     O
O       0.1958   0.7081   0.4237     O
C       0.1961   0.1057   0.1384     C
C       0.1961   0.8943   0.6384     C
O       0.2046   0.4538   0.2445     O
O       0.2046   0.5462   0.7445     O
O       0.2065   0.3454   0.6901     O
O       0.2065   0.6546   0.1901     O
C       0.2082   0.0587   0.2844     C
C       0.2082   0.9413   0.7844     C
C       0.2127   0.0558   0.8512     C
C       0.2127   0.9442   0.3512     C
C       0.2201   0.3387   0.8252     C
C       0.2201   0.6613   0.3252     C
C        0.222   0.0876   0.2315     C
C        0.222   0.9124   0.7315     C
O       0.2222   0.1799   0.0445     O
O       0.2222   0.8201   0.5445     O
H       0.2246   0.1116   0.8629     H
H       0.2246   0.8884   0.3629     H
C       0.2262   0.0245   0.8054     C
C       0.2262   0.9755   0.3054     C
C       0.2322   0.3659   0.7773     C
C       0.2322   0.6341   0.2773     C
N       0.2398   0.4182   0.2241     N
N       0.2398   0.5818   0.7241     N
C       0.2432   0.3197   0.9201     C
C       0.2432   0.6803   0.4201     C
C       0.2445   0.1485   0.1317     C
C       0.2445   0.8515   0.6317     C
O       0.2487   0.1624   0.7745     O
O       0.2487   0.8376   0.2745     O
O       0.2513   0.3376   0.2255     O
O       0.2513   0.6624   0.7255     O
C       0.2555   0.3515   0.8683     C
C       0.2555   0.6485   0.3683     C
C       0.2568   0.1803   0.0799     C
C       0.2568   0.8197   0.5799     C
N       0.2602   0.0818   0.7759     N
N       0.2602   0.9182   0.2759     N
C       0.2678   0.1341   0.2227     C
C       0.2678   0.8659   0.7227     C
C       0.2738   0.4755   0.1946     C
C       0.2738   0.5245   0.6946     C
H       0.2754   0.3884   0.1371     H
H       0.2754   0.6116   0.6371     H
O       0.2778   0.3201   0.9555     O
O       0.2778   0.6799   0.4555     O
C        0.278   0.4124   0.7685     C
C        0.278   0.5876   0.2685     C
C       0.2799   0.1613   0.1748     C
C       0.2799   0.8387   0.6748     C
C       0.2873   0.4442   0.1488     C
C       0.2873   0.5558   0.6488     C
C       0.2918   0.4413   0.7156     C
C       0.2918   0.5587   0.2156     C
O       0.2935   0.1546   0.3099     O
O       0.2935   0.8454   0.8099     O
O       0.2954   0.0462   0.7555     O
O       0.2954   0.9538   0.2555     O
C       0.3039   0.3943   0.8616     C
C       0.3039   0.6057   0.3616     C
O       0.3042   0.2081   0.0763     O
O       0.3042   0.7919   0.5763     O
N       0.3073   0.1551   0.2653     N
N       0.3073   0.8449   0.7653     N
C       0.3121   0.4249   0.8125     C
C       0.3121   0.5751   0.3125     C
H       0.3122   0.1886   0.1711     H
H       0.3122   0.8114   0.6711     H
O       0.3143   0.3912   0.0506     O
O       0.3143   0.6088   0.5506     O
C       0.3182   0.4939   0.1198     C
C       0.3182   0.5061   0.6198     C
C       0.3232   0.3932   0.6855     C
C       0.3232   0.6068   0.1855     C
H       0.3294   0.4018   0.8889     H
H       0.3294   0.5982   0.3889     H
O       0.3321   0.1298    0.879     O
O       0.3321   0.8702    0.379     O
C       0.3347   0.4616   0.0679     C
C       0.3347   0.5384   0.5679     C
C       0.3371   0.4233   0.6386     C
C       0.3371   0.5767   0.1386     C
N       0.3432   0.3011   0.7008     N
N       0.3432   0.6989   0.2008     N
O       0.3463   0.2875   0.7467     O
O       0.3463   0.7125   0.2467     O
Gd     0.34824  0.26371  0.00658    Gd
Gd     0.34824  0.73629  0.50658    Gd
O       0.3514   0.1793   0.2561     O
O       0.3514   0.8207   0.7561     O
O       0.3563   0.2508   0.6682     O
O       0.3563   0.7492   0.1682     O
H       0.3589    0.389   0.6196     H
H       0.3589    0.611   0.1196     H
N       0.3627    0.472   0.8082     N
N       0.3627    0.528   0.3082     N
O       0.3633   0.4664   0.2781     O
O       0.3633   0.5336   0.7781     O
O       0.3687   0.4923   0.5486     O
O       0.3687   0.5077   0.0486     O
C       0.3691   0.1825   0.8874     C
C       0.3691   0.8175   0.3874     C
H        0.378   0.0927    0.801     H
H        0.378   0.9073    0.301     H
O       0.3782   0.2304    0.926     O
O       0.3782   0.7696    0.426     O
O        0.401   0.4471    0.837     O
O        0.401   0.5529    0.337     O
C       0.4042   0.1361   0.8043     C
C       0.4042   0.8639   0.3043     C
C       0.4078   0.1913   0.8459     C
C       0.4078   0.8087   0.3459     C
O       0.4121   0.0121   0.7298     O
O       0.4121   0.9879   0.2298     O
N       0.4317   0.0849    0.722     N
N       0.4317   0.9151    0.222     N
C       0.4393   0.1442   0.7668     C
C       0.4393   0.8558   0.2668     C
O       0.4431   0.1116   0.6802     O
O       0.4431   0.8884   0.1802     O
C        0.447   0.2555   0.8507     C
C        0.447   0.7445   0.3507     C
H       0.4497   0.2937   0.8789     H
H       0.4497   0.7063   0.3789     H
O       0.4516   0.3526   0.7141     O
O       0.4516   0.6474   0.2141     O
O       0.4658   0.3569   0.6348     O
O       0.4658   0.6431   0.1348     O
N       0.4752   0.3286   0.6772     N
N       0.4752   0.6714   0.1772     N
C       0.4801   0.2065   0.7696     C
C       0.4801   0.7935   0.2696     C
C       0.4825   0.2627   0.8131     C
C       0.4825   0.7373   0.3131     C
C       0.5175   0.2627   0.6869     C
C       0.5175   0.7373   0.1869     C
C       0.5199   0.2065   0.7304     C
C       0.5199   0.7935   0.2304     C
N       0.5248   0.3286   0.8228     N
N       0.5248   0.6714   0.3228     N
O       0.5342   0.3569   0.8652     O
O       0.5342   0.6431   0.3652     O
O       0.5484   0.3526   0.7859     O
O       0.5484   0.6474   0.2859     O
H       0.5503   0.2937   0.6211     H
H       0.5503   0.7063   0.1211     H
C        0.553   0.2555   0.6493     C
C        0.553   0.7445   0.1493     C
O       0.5569   0.1116   0.8198     O
O       0.5569   0.8884   0.3198     O
C       0.5607   0.1442   0.7332     C
C       0.5607   0.8558   0.2332     C
N       0.5683   0.0849    0.778     N
N       0.5683   0.9151    0.278     N
O       0.5879   0.0121   0.7702     O
O       0.5879   0.9879   0.2702     O
C       0.5922   0.1913   0.6541     C
C       0.5922   0.8087   0.1541     C
C       0.5958   0.1361   0.6957     C
C       0.5958   0.8639   0.1957     C
O        0.599   0.4471    0.663     O
O        0.599   0.5529    0.163     O
O       0.6218   0.2304    0.574     O
O       0.6218   0.7696    0.074     O
H        0.622   0.0927    0.699     H
H        0.622   0.9073    0.199     H
C       0.6309   0.1825   0.6126     C
C       0.6309   0.8175   0.1126     C
O       0.6313   0.4923   0.9514     O
O       0.6313   0.5077   0.4514     O
O       0.6367   0.4664   0.2219     O
O       0.6367   0.5336   0.7219     O
N       0.6373    0.472   0.6918     N
N       0.6373    0.528   0.1918     N
H       0.6411    0.389   0.8804     H
H       0.6411    0.611   0.3804     H
O       0.6437   0.2508   0.8318     O
O       0.6437   0.7492   0.3318     O
O       0.6486   0.1793   0.2439     O
O       0.6486   0.8207   0.7439     O
Gd     0.65176  0.26371  0.49342    Gd
Gd     0.65176  0.73629  0.99342    Gd
O       0.6537   0.2875   0.7533     O
O       0.6537   0.7125   0.2533     O
N       0.6568   0.3011   0.7992     N
N       0.6568   0.6989   0.2992     N
C       0.6629   0.4233   0.8614     C
C       0.6629   0.5767   0.3614     C
C       0.6653   0.4616   0.4321     C
C       0.6653   0.5384   0.9321     C
O       0.6679   0.1298    0.621     O
O       0.6679   0.8702    0.121     O
H       0.6706   0.4018   0.6111     H
H       0.6706   0.5982   0.1111     H
C       0.6768   0.3932   0.8145     C
C       0.6768   0.6068   0.3145     C
C       0.6818   0.4939   0.3802     C
C       0.6818   0.5061   0.8802     C
O       0.6857   0.3912   0.4494     O
O       0.6857   0.6088   0.9494     O
H       0.6878   0.1886   0.3289     H
H       0.6878   0.8114   0.8289     H
C       0.6879   0.4249   0.6875     C
C       0.6879   0.5751   0.1875     C
N       0.6927   0.1551   0.2347     N
N       0.6927   0.8449   0.7347     N
O       0.6958   0.2081   0.4237     O
O       0.6958   0.7919   0.9237     O
C       0.6961   0.3943   0.6384     C
C       0.6961   0.6057   0.1384     C
O       0.7046   0.0462   0.7445     O
O       0.7046   0.9538   0.2445     O
O       0.7065   0.1546   0.1901     O
O       0.7065   0.8454   0.6901     O
C       0.7082   0.4413   0.7844     C
C       0.7082   0.5587   0.2844     C
C       0.7127   0.4442   0.3512     C
C       0.7127   0.5558   0.8512     C
C       0.7201   0.1613   0.3252     C
C       0.7201   0.8387   0.8252     C
C        0.722   0.4124   0.7315     C
C        0.722   0.5876   0.2315     C
O       0.7222   0.3201   0.5445     O
O       0.7222   0.6799   0.0445     O
H       0.7246   0.3884   0.3629     H
H       0.7246   0.6116   0.8629     H
C       0.7262   0.4755   0.3054     C
C       0.7262   0.5245   0.8054     C
C       0.7322   0.1341   0.2773     C
C       0.7322   0.8659   0.7773     C
N       0.7398   0.0818   0.7241     N
N       0.7398   0.9182   0.2241     N
C       0.7432   0.1803   0.4201     C
C       0.7432   0.8197   0.9201     C
C       0.7445   0.3515   0.6317     C
C       0.7445   0.6485   0.1317     C
O       0.7487   0.3376   0.2745     O
O       0.7487   0.6624   0.7745     O
O       0.7513   0.1624   0.7255     O
O       0.7513   0.8376   0.2255     O
C       0.7555   0.1485   0.3683     C
C       0.7555   0.8515   0.8683     C
C       0.7568   0.3197   0.5799     C
C       0.7568   0.6803   0.0799     C
N       0.7602   0.4182   0.2759     N
N       0.7602   0.5818   0.7759     N
C       0.7678   0.3659   0.7227     C
C       0.7678   0.6341   0.2227     C
C       0.7738   0.0245   0.6946     C
C       0.7738   0.9755   0.1946     C
H       0.7754   0.1116   0.6371     H
H       0.7754   0.8884   0.1371     H
O       0.7778   0.1799   0.4555     O
O       0.7778   0.8201   0.9555     O
C        0.778   0.0876   0.2685     C
C        0.778   0.9124   0.7685     C
C       0.7799   0.3387   0.6748     C
C       0.7799   0.6613   0.1748     C
C       0.7873   0.0558   0.6488     C
C       0.7873   0.9442   0.1488     C
C       0.7918   0.0587   0.2156     C
C       0.7918   0.9413   0.7156     C
O       0.7935   0.3454   0.8099     O
O       0.7935   0.6546   0.3099     O
O       0.7954   0.4538   0.2555     O
O       0.7954   0.5462   0.7555     O
C       0.8039   0.1057   0.3616     C
C       0.8039   0.8943   0.8616     C
O       0.8042   0.2919   0.5763     O
O       0.8042   0.7081   0.0763     O
N       0.8073   0.3449   0.7653     N
N       0.8073   0.6551   0.2653     N
C       0.8121   0.0751   0.3125     C
C       0.8121   0.9249   0.8125     C
H       0.8122   0.3114   0.6711     H
H       0.8122   0.6886   0.1711     H
O       0.8143   0.1088   0.5506     O
O       0.8143   0.8912   0.0506     O
C       0.8182   0.0061   0.6198     C
C       0.8182   0.9939   0.1198     C
C       0.8232   0.1068   0.1855     C
C       0.8232   0.8932   0.6855     C
H       0.8294   0.0982   0.3889     H
H       0.8294   0.9018   0.8889     H
O       0.8321   0.3702    0.379     O
O       0.8321   0.6298    0.879     O
C       0.8347   0.0384   0.5679     C
C       0.8347   0.9616   0.0679     C
C       0.8371   0.0767   0.1386     C
C       0.8371   0.9233   0.6386     C
N       0.8432   0.1989   0.2008     N
N       0.8432   0.8011   0.7008     N
O       0.8463   0.2125   0.2467     O
O       0.8463   0.7875   0.7467     O
Gd     0.84824  0.23629  0.50658    Gd
Gd     0.84824  0.76371  0.00658    Gd
O       0.8514   0.3207   0.7561     O
O       0.8514   0.6793   0.2561     O
O       0.8563   0.2492   0.1682     O
O       0.8563   0.7508   0.6682     O
H       0.8589    0.111   0.1196     H
H       0.8589    0.889   0.6196     H
N       0.8627    0.028   0.3082     N
N       0.8627    0.972   0.8082     N
O       0.8633   0.0336   0.7781     O
O       0.8633   0.9664   0.2781     O
O       0.8687   0.0077   0.0486     O
O       0.8687   0.9923   0.5486     O
C       0.8691   0.3175   0.3874     C
C       0.8691   0.6825   0.8874     C
H        0.878   0.4073    0.301     H
H        0.878   0.5927    0.801     H
O       0.8782   0.2696    0.426     O
O       0.8782   0.7304    0.926     O
O        0.901   0.0529    0.337     O
O        0.901   0.9471    0.837     O
C       0.9042   0.3639   0.3043     C
C       0.9042   0.6361   0.8043     C
C       0.9078   0.3087   0.3459     C
C       0.9078   0.6913   0.8459     C
O       0.9121   0.4879   0.2298     O
O       0.9121   0.5121   0.7298     O
N       0.9317   0.4151    0.222     N
N       0.9317   0.5849    0.722     N
C       0.9393   0.3558   0.2668     C
C       0.9393   0.6442   0.7668     C
O       0.9431   0.3884   0.1802     O
O       0.9431   0.6116   0.6802     O
C        0.947   0.2445   0.3507     C
C        0.947   0.7555   0.8507     C
H       0.9497   0.2063   0.3789     H
H       0.9497   0.7937   0.8789     H
O       0.9516   0.1474   0.2141     O
O       0.9516   0.8526   0.7141     O
O       0.9658   0.1431   0.1348     O
O       0.9658   0.8569   0.6348     O
N       0.9752   0.1714   0.1772     N
N       0.9752   0.8286   0.6772     N
C       0.9801   0.2935   0.2696     C
C       0.9801   0.7065   0.7696     C
C       0.9825   0.2373   0.3131     C
C       0.9825   0.7627   0.8131     C
