data_I
_chemical_name_common  '/home/zhangsd/repos/MofS-CGCNN/ML/data/TSD/clean_cifs/YUFLOC_clean'
_cell_length_a 11.43900
_cell_length_b 11.96600
_cell_length_c 12.11300
_cell_angle_alpha 101.03600
_cell_angle_beta  106.89000
_cell_angle_gamma 107.95000
_space_group_name_H-M_alt      'P 1'


loop_
_space_group_symop_operation_xyz
  'x, y, z' 

loop_
_atom_site_label
_atom_site_fract_x
_atom_site_fract_y
_atom_site_fract_z
_atom_site_type_symbol
Sr         0.0      0.0      0.5    Sr
C       0.0026   0.6156   0.4916     C
C       0.0033   0.7398   0.4838     C
C       0.0061   0.0106   0.8891     C
C       0.0125    0.024   0.7694     C
C       0.0631   0.4873   0.6103     C
C       0.0671   0.6039    0.604     C
O       0.0706   0.2527   0.6108     O
O       0.0775    0.832   0.5753     O
O       0.0908   0.0359   0.3245     O
H       0.1055   0.4788   0.6845     H
C       0.1135   0.0652    0.107     C
C       0.1173    0.074   0.9952     C
O       0.1185   0.0921   0.7663     O
O       0.1319   0.7008   0.7072     O
H        0.139   0.7643    0.688     H
H       0.1958   0.1235   0.9915     H
H        0.207    0.127   0.2687     H
O       0.2244   0.1296   0.2073     O
O       0.2616   0.1101   0.5869     O
H       0.2717   0.9379   0.4345     H
Sr     0.28404  0.28592  0.77425    Sr
O       0.3331   0.7853   0.3128     O
C       0.3632   0.9627   0.4606     C
H        0.378     0.75    0.293     H
C       0.3843   0.1479   0.6152     C
C       0.4172   0.8907   0.4052     C
C       0.4445   0.0715   0.5546     C
O       0.4625   0.2492   0.6965     O
O       0.5375   0.7508   0.3035     O
C       0.5555   0.9285   0.4454     C
C       0.5828   0.1093   0.5948     C
C       0.6157   0.8521   0.3848     C
H        0.622     0.25    0.707     H
C       0.6368   0.0373   0.5394     C
O       0.6669   0.2147   0.6872     O
Sr     0.71596  0.71408  0.22575    Sr
H       0.7283   0.0621   0.5655     H
O       0.7384   0.8899   0.4131     O
O       0.7756   0.8704   0.7927     O
H        0.793    0.873   0.7313     H
H       0.8042   0.8765   0.0085     H
H        0.861   0.2357    0.312     H
O       0.8681   0.2992   0.2928     O
O       0.8815   0.9079   0.2337     O
C       0.8827    0.926   0.0048     C
C       0.8865   0.9348    0.893     C
H       0.8945   0.5212   0.3155     H
O       0.9092   0.9641   0.6755     O
O       0.9225    0.168   0.4247     O
O       0.9294   0.7473   0.3892     O
C       0.9329   0.3961    0.396     C
C       0.9369   0.5127   0.3897     C
C       0.9875    0.976   0.2306     C
C       0.9939   0.9894   0.1109     C
C       0.9967   0.2602   0.5162     C
C       0.9974   0.3844   0.5084     C
