data_I
_chemical_name_common  '/home/zhangsd/repos/MofS-CGCNN/ML/data/TSD/clean_cifs/YUKKAR_clean'
_cell_length_a  9.47000
_cell_length_b  9.78450
_cell_length_c 12.74250
_cell_angle_alpha 87.24650
_cell_angle_beta  84.30290
_cell_angle_gamma 61.05770
_space_group_name_H-M_alt      'P 1'


loop_
_space_group_symop_operation_xyz
  'x, y, z' 

loop_
_atom_site_label
_atom_site_fract_x
_atom_site_fract_y
_atom_site_fract_z
_atom_site_type_symbol
C       0.0036   0.4646   0.9469     C
H       0.0633   0.7646   0.1443     H
C       0.0659   0.8606   0.1425     C
C       0.0735   0.8606   0.8575     C
C       0.0738   0.1402   0.1381     C
H       0.0753   0.2364   0.1387     H
C       0.0767      0.0   0.8558     C
O      0.12685   0.4853   0.0946     O
O       0.1392   0.3626   0.9085     O
H       0.1721   0.7646   0.8557     H
C        0.214   0.8598   0.1381     C
H        0.216      0.1    0.892     H
H        0.216   0.2286    0.741     H
C       0.2187      0.0   0.1328     C
C       0.2355      0.0   0.8596     C
C       0.2855   0.1332   0.7049     C
H       0.3117   0.7636   0.1387     H
N       0.3132      0.0   0.7509     N
H        0.316      0.9    0.892     H
H       0.3306   0.2338   0.5742     H
Mn     0.34574  0.30852      0.0    Mn
C       0.3549   0.1362   0.6064     C
O      0.37617  0.12926   0.1123     O
C       0.3775      0.0   0.1175     C
O      0.38785   0.4853   0.9054     O
C       0.4187   0.8668   0.7049     C
H       0.4356   0.2338   0.4258     H
H       0.4446   0.7714    0.741     H
C       0.4598      0.0   0.5528     C
C       0.4682   0.5354   0.9469     C
C       0.4911   0.8638   0.6064     C
O      0.49457  0.12926   0.8877     O
O       0.4982   0.3626   0.0915     O
O       0.5018   0.6374   0.9085     O
O      0.50543  0.87074   0.1123     O
C       0.5089   0.1362   0.3936     C
C       0.5318   0.4646   0.0531     C
C       0.5402      0.0   0.4472     C
H       0.5554   0.2286    0.259     H
H       0.5644   0.7662   0.5742     H
C       0.5813   0.1332   0.2951     C
O      0.61215   0.5147   0.0946     O
C       0.6225      0.0   0.8825     C
O      0.62383  0.87074   0.8877     O
C       0.6451   0.8638   0.3936     C
Mn     0.65426  0.69148      0.0    Mn
H       0.6694   0.7662   0.4258     H
H        0.684      0.1    0.108     H
N       0.6868      0.0   0.2491     N
H       0.6883   0.2364   0.8613     H
C       0.7145   0.8668   0.2951     C
C       0.7645      0.0   0.1404     C
C       0.7813      0.0   0.8672     C
H        0.784   0.7714    0.259     H
H        0.784      0.9    0.108     H
C        0.786   0.1402   0.8619     C
H       0.8279   0.2354   0.1443     H
O       0.8608   0.6374   0.0915     O
O      0.87315   0.5147   0.9054     O
C       0.9233      0.0   0.1442     C
H       0.9247   0.7636   0.8613     H
C       0.9262   0.8598   0.8619     C
C       0.9265   0.1394   0.1425     C
C       0.9341   0.1394   0.8575     C
H       0.9367   0.2354   0.8557     H
C       0.9964   0.5354   0.0531     C
