data_I
_chemical_name_common  '/home/zhangsd/repos/MofS-CGCNN/ML/data/TSD/clean_cifs/YUKTUU_clean'
_cell_length_a  8.52110
_cell_length_b 11.97790
_cell_length_c  9.05930
_cell_angle_alpha 90.00000
_cell_angle_beta  90.00000
_cell_angle_gamma 90.00000
_space_group_name_H-M_alt      'P 1'


loop_
_space_group_symop_operation_xyz
  'x, y, z' 

loop_
_atom_site_label
_atom_site_fract_x
_atom_site_fract_y
_atom_site_fract_z
_atom_site_type_symbol
C       0.0198  0.21654  0.51507     C
C       0.0198  0.28346  0.98493     C
O      0.05742  0.19135  0.38773     O
O      0.05742  0.30865  0.11227     O
H       0.0833   0.2323   0.9359     H
H       0.0833   0.2677   0.5641     H
O      0.09566  0.67949  0.08368     O
O      0.09566  0.82051  0.41632     O
O      0.24315  0.59254  0.37153     O
O      0.24315  0.90746  0.12847     O
Mn     0.24808     0.75     0.25    Mn
C         0.25      0.0   0.1892     C
H         0.25      0.0   0.2918     H
H         0.25      0.5   0.2082     H
C         0.25      0.5   0.3108     C
Mn     0.25192     0.25     0.25    Mn
O      0.25685  0.09254  0.12847     O
O      0.25685  0.40746  0.37153     O
O      0.40434  0.17949  0.41632     O
O      0.40434  0.32051  0.08368     O
H       0.4167   0.7323   0.5641     H
H       0.4167   0.7677   0.9359     H
O      0.44258  0.69135  0.11227     O
O      0.44258  0.80865  0.38773     O
C       0.4802  0.71654  0.98493     C
C       0.4802  0.78346  0.51507     C
C       0.5198  0.21654  0.48493     C
C       0.5198  0.28346  0.01507     C
O      0.55742  0.19135  0.61227     O
O      0.55742  0.30865  0.88773     O
H       0.5833   0.2323   0.0641     H
H       0.5833   0.2677   0.4359     H
O      0.59566  0.67949  0.91632     O
O      0.59566  0.82051  0.58368     O
O      0.74315  0.59254  0.62847     O
O      0.74315  0.90746  0.87153     O
Mn     0.74808     0.75     0.75    Mn
H         0.75      0.0   0.7082     H
C         0.75      0.0   0.8108     C
C         0.75      0.5   0.6892     C
H         0.75      0.5   0.7918     H
Mn     0.75192     0.25     0.75    Mn
O      0.75685  0.09254  0.87153     O
O      0.75685  0.40746  0.62847     O
O      0.90434  0.17949  0.58368     O
O      0.90434  0.32051  0.91632     O
H       0.9167   0.7323   0.4359     H
H       0.9167   0.7677   0.0641     H
O      0.94258  0.69135  0.88773     O
O      0.94258  0.80865  0.61227     O
C       0.9802  0.71654  0.01507     C
C       0.9802  0.78346  0.48493     C
