data_I
_chemical_name_common  '/home/zhangsd/repos/MofS-CGCNN/ML/data/TSD/clean_cifs/YUMFUJ_clean'
_cell_length_a 33.40000
_cell_length_b 13.87870
_cell_length_c 13.57900
_cell_angle_alpha 90.00000
_cell_angle_beta  104.96600
_cell_angle_gamma 90.00000
_space_group_name_H-M_alt      'P 1'


loop_
_space_group_symop_operation_xyz
  'x, y, z' 

loop_
_atom_site_label
_atom_site_fract_x
_atom_site_fract_y
_atom_site_fract_z
_atom_site_type_symbol
C      0.00268  0.32603  0.09487     C
C      0.00268  0.67397  0.59487     C
C      0.00873  0.23358  0.06206     C
C      0.00873  0.76642  0.56206     C
C      0.03224  0.39705    0.097     C
C      0.03224  0.60295    0.597     C
C      0.03665  0.34908  0.37572     C
C      0.03665  0.65092  0.87572     C
C      0.04433  0.21214  0.03139     C
C      0.04433  0.78786  0.53139     C
C      0.05188  0.44446  0.38176     C
C      0.05188  0.55554  0.88176     C
C      0.06045  0.27773  0.34513     C
C      0.06045  0.72227  0.84513     C
C      0.06784  0.37561  0.06633     C
C      0.06784  0.62439  0.56633     C
C      0.07389  0.28316  0.03352     C
C      0.07389  0.71684  0.53352     C
C      0.08999  0.46563  0.36093     C
C      0.08999  0.53437  0.86093     C
C      0.09837  0.29823  0.32653     C
C      0.09837  0.70177  0.82653     C
C      0.11149   0.2617   0.9955     C
C      0.11149   0.7383   0.4955     C
C      0.11407  0.39235  0.33673     C
C      0.11407  0.60765  0.83673     C
O      0.11981  0.17395  0.98291     O
O      0.11981  0.82605  0.48291     O
O      0.13356  0.32911  0.97912     O
O      0.13356  0.67089  0.47912     O
C      0.15639   0.4101   0.3251     C
C      0.15639   0.5899   0.8251     C
C      0.17299  0.35407  0.26086     C
C      0.17299  0.64593  0.76086     C
C      0.18127  0.48325  0.38314     C
C      0.18127  0.51675  0.88314     C
La     0.18792   0.2126  0.93863    La
La     0.18792   0.7874  0.43863    La
O      0.20667  0.24808  0.12586     O
O      0.20667  0.75192  0.62586     O
O      0.21213  0.05402   0.0325     O
O      0.21213  0.94598   0.5325     O
C      0.21407  0.36433  0.25604     C
C      0.21407  0.63567  0.75604     C
C      0.22259  0.49228  0.37922     C
C      0.22259  0.50772  0.87922     C
C      0.23097    0.306   0.1816     C
C      0.23097    0.694   0.6816     C
O      0.23195  0.17953  0.81768     O
O      0.23195  0.82047  0.31768     O
O      0.23352  0.35648  0.96732     O
O      0.23352  0.64352  0.46732     O
C      0.23919  0.43274  0.31805     C
C      0.23919  0.56726  0.81805     C
C      0.24994   0.4324   0.9429     C
C      0.24994   0.5676   0.4429     C
C      0.25006   0.0676   0.0571     C
C      0.25006   0.9324   0.5571     C
C      0.26081  0.06726  0.68195     C
C      0.26081  0.93274  0.18195     C
O      0.26648  0.14352  0.03268     O
O      0.26648  0.85648  0.53268     O
O      0.26805  0.32047  0.18232     O
O      0.26805  0.67953  0.68232     O
C      0.26903    0.194   0.8184     C
C      0.26903    0.806   0.3184     C
C      0.27741  0.00772  0.62078     C
C      0.27741  0.99228  0.12078     C
C      0.28593  0.13567  0.74396     C
C      0.28593  0.86433  0.24396     C
O      0.28787  0.44598   0.9675     O
O      0.28787  0.55402   0.4675     O
O      0.29333  0.25192  0.87414     O
O      0.29333  0.74808  0.37414     O
La     0.31208   0.2874  0.06137    La
La     0.31208   0.7126  0.56137    La
C      0.31873  0.01675  0.61686     C
C      0.31873  0.98325  0.11686     C
C      0.32701  0.14593  0.73914     C
C      0.32701  0.85407  0.23914     C
C      0.34361   0.0899   0.6749     C
C      0.34361   0.9101   0.1749     C
O      0.36644  0.17089  0.02088     O
O      0.36644  0.82911  0.52088     O
O      0.38019  0.32605  0.01709     O
O      0.38019  0.67395  0.51709     O
C      0.38593  0.10765  0.66327     C
C      0.38593  0.89235  0.16327     C
C      0.38851   0.2383   0.0045     C
C      0.38851   0.7617   0.5045     C
C      0.40163  0.20177  0.67347     C
C      0.40163  0.79823  0.17347     C
C      0.41001  0.03437  0.63907     C
C      0.41001  0.96563  0.13907     C
C      0.42611  0.21684  0.96648     C
C      0.42611  0.78316  0.46648     C
C      0.43216  0.12439  0.93367     C
C      0.43216  0.87561  0.43367     C
C      0.43955  0.22227  0.65487     C
C      0.43955  0.77773  0.15487     C
C      0.44812  0.05554  0.61824     C
C      0.44812  0.94446  0.11824     C
C      0.45567  0.28786  0.96861     C
C      0.45567  0.71214  0.46861     C
C      0.46335  0.15092  0.62428     C
C      0.46335  0.84908  0.12428     C
C      0.46776  0.10295    0.903     C
C      0.46776  0.89705    0.403     C
C      0.49127  0.26642  0.93794     C
C      0.49127  0.73358  0.43794     C
C      0.49732  0.17397  0.90513     C
C      0.49732  0.82603  0.40513     C
C      0.50268  0.17397  0.59487     C
C      0.50268  0.82603  0.09487     C
C      0.50873  0.26642  0.56206     C
C      0.50873  0.73358  0.06206     C
C      0.53224  0.10295    0.597     C
C      0.53224  0.89705    0.097     C
C      0.53665  0.15092  0.87572     C
C      0.53665  0.84908  0.37572     C
C      0.54433  0.28786  0.53139     C
C      0.54433  0.71214  0.03139     C
C      0.55188  0.05554  0.88176     C
C      0.55188  0.94446  0.38176     C
C      0.56045  0.22227  0.84513     C
C      0.56045  0.77773  0.34513     C
C      0.56784  0.12439  0.56633     C
C      0.56784  0.87561  0.06633     C
C      0.57389  0.21684  0.53352     C
C      0.57389  0.78316  0.03352     C
C      0.58999  0.03437  0.86093     C
C      0.58999  0.96563  0.36093     C
C      0.59837  0.20177  0.82653     C
C      0.59837  0.79823  0.32653     C
C      0.61149   0.2383   0.4955     C
C      0.61149   0.7617   0.9955     C
C      0.61407  0.10765  0.83673     C
C      0.61407  0.89235  0.33673     C
O      0.61981  0.32605  0.48291     O
O      0.61981  0.67395  0.98291     O
O      0.63356  0.17089  0.47912     O
O      0.63356  0.82911  0.97912     O
C      0.65639   0.0899   0.8251     C
C      0.65639   0.9101   0.3251     C
C      0.67299  0.14593  0.76086     C
C      0.67299  0.85407  0.26086     C
C      0.68127  0.01675  0.88314     C
C      0.68127  0.98325  0.38314     C
La     0.68792   0.2874  0.43863    La
La     0.68792   0.7126  0.93863    La
O      0.70667  0.25192  0.62586     O
O      0.70667  0.74808  0.12586     O
O      0.71213  0.44598   0.5325     O
O      0.71213  0.55402   0.0325     O
C      0.71407  0.13567  0.75604     C
C      0.71407  0.86433  0.25604     C
C      0.72259  0.00772  0.87922     C
C      0.72259  0.99228  0.37922     C
C      0.73097    0.194   0.6816     C
C      0.73097    0.806   0.1816     C
O      0.73195  0.32047  0.31768     O
O      0.73195  0.67953  0.81768     O
O      0.73352  0.14352  0.46732     O
O      0.73352  0.85648  0.96732     O
C      0.73919  0.06726  0.81805     C
C      0.73919  0.93274  0.31805     C
C      0.74994   0.0676   0.4429     C
C      0.74994   0.9324   0.9429     C
C      0.75006   0.4324   0.5571     C
C      0.75006   0.5676   0.0571     C
C      0.76081  0.43274  0.18195     C
C      0.76081  0.56726  0.68195     C
O      0.76648  0.35648  0.53268     O
O      0.76648  0.64352  0.03268     O
O      0.76805  0.17953  0.68232     O
O      0.76805  0.82047  0.18232     O
C      0.76903    0.306   0.3184     C
C      0.76903    0.694   0.8184     C
C      0.77741  0.49228  0.12078     C
C      0.77741  0.50772  0.62078     C
C      0.78593  0.36433  0.24396     C
C      0.78593  0.63567  0.74396     C
O      0.78787  0.05402   0.4675     O
O      0.78787  0.94598   0.9675     O
O      0.79333  0.24808  0.37414     O
O      0.79333  0.75192  0.87414     O
La     0.81208   0.2126  0.56137    La
La     0.81208   0.7874  0.06137    La
C      0.81873  0.48325  0.11686     C
C      0.81873  0.51675  0.61686     C
C      0.82701  0.35407  0.23914     C
C      0.82701  0.64593  0.73914     C
C      0.84361   0.4101   0.1749     C
C      0.84361   0.5899   0.6749     C
O      0.86644  0.32911  0.52088     O
O      0.86644  0.67089  0.02088     O
O      0.88019  0.17395  0.51709     O
O      0.88019  0.82605  0.01709     O
C      0.88593  0.39235  0.16327     C
C      0.88593  0.60765  0.66327     C
C      0.88851   0.2617   0.5045     C
C      0.88851   0.7383   0.0045     C
C      0.90163  0.29823  0.17347     C
C      0.90163  0.70177  0.67347     C
C      0.91001  0.46563  0.13907     C
C      0.91001  0.53437  0.63907     C
C      0.92611  0.28316  0.46648     C
C      0.92611  0.71684  0.96648     C
C      0.93216  0.37561  0.43367     C
C      0.93216  0.62439  0.93367     C
C      0.93955  0.27773  0.15487     C
C      0.93955  0.72227  0.65487     C
C      0.94812  0.44446  0.11824     C
C      0.94812  0.55554  0.61824     C
C      0.95567  0.21214  0.46861     C
C      0.95567  0.78786  0.96861     C
C      0.96335  0.34908  0.12428     C
C      0.96335  0.65092  0.62428     C
C      0.96776  0.39705    0.403     C
C      0.96776  0.60295    0.903     C
C      0.99127  0.23358  0.43794     C
C      0.99127  0.76642  0.93794     C
C      0.99732  0.32603  0.40513     C
C      0.99732  0.67397  0.90513     C
