data_I
_chemical_name_common  '/home/zhangsd/repos/MofS-CGCNN/ML/data/TSD/clean_cifs/YUSWIU_clean'
_cell_length_a 18.46500
_cell_length_b  9.24420
_cell_length_c 19.69900
_cell_angle_alpha 90.00000
_cell_angle_beta  102.18000
_cell_angle_gamma 90.00000
_space_group_name_H-M_alt      'P 1'


loop_
_space_group_symop_operation_xyz
  'x, y, z' 

loop_
_atom_site_label
_atom_site_fract_x
_atom_site_fract_y
_atom_site_fract_z
_atom_site_type_symbol
O          0.0    0.038     0.75     O
O          0.0    0.962     0.25     O
C       0.0009   0.1892   0.2863     C
C       0.0009   0.8108   0.7863     C
H       0.0014   0.2695   0.3149     H
H       0.0014   0.7305   0.8149     H
C       0.0017   0.0486   0.3053     C
C       0.0017   0.9514   0.8053     C
O       0.0027   0.0627   0.4239     O
O       0.0027   0.9373   0.9239     O
C       0.0083   0.0172   0.8738     C
C       0.0083   0.9828   0.3738     C
O       0.0205   0.1494   0.8795     O
O       0.0205   0.8506   0.3795     O
Dy     0.02077  0.21845  0.99515    Dy
Dy     0.02077  0.78155  0.49515    Dy
O       0.0347   0.3847   0.4425     O
O       0.0347   0.6153   0.9425     O
C       0.0902   0.4698   0.4485     C
C       0.0902   0.5302   0.9485     C
O        0.092   0.4006   0.9646     O
O        0.092   0.5994   0.4646     O
O       0.0987   0.1427   0.5458     O
O       0.0987   0.8573   0.0458     O
O       0.1308   0.0731   0.0087     O
O       0.1308   0.9269   0.5087     O
H       0.1402   0.2041   0.3919     H
H       0.1402   0.7959   0.8919     H
C       0.1423   0.0526   0.5348     C
C       0.1423   0.9474   0.0348     C
C       0.1586   0.4058   0.4361     C
C       0.1586   0.5942   0.9361     C
C       0.1741   0.2763   0.4095     C
C       0.1741   0.7237   0.9095     C
C       0.2211   0.0991   0.5575     C
C       0.2211   0.9009   0.0575     C
H       0.2218   0.3028   0.6002     H
H       0.2218   0.6972   0.1002     H
O        0.223   0.4838   0.4576     O
O        0.223   0.5162   0.9576     O
C       0.2487   0.2275   0.5862     C
C       0.2487   0.7725   0.0862     C
C       0.2513   0.2725   0.4138     C
C       0.2513   0.7275   0.9138     C
O        0.277   0.0162   0.5424     O
O        0.277   0.9838   0.0424     O
H       0.2782   0.1972   0.3998     H
H       0.2782   0.8028   0.8998     H
C       0.2789   0.4009   0.4425     C
C       0.2789   0.5991   0.9425     C
C       0.3259   0.2237   0.5905     C
C       0.3259   0.7763   0.0905     C
C       0.3414   0.0942   0.5639     C
C       0.3414   0.9058   0.0639     C
C       0.3577   0.4474   0.4652     C
C       0.3577   0.5526   0.9652     C
H       0.3598   0.2959   0.6081     H
H       0.3598   0.7041   0.1081     H
O       0.3692   0.4269   0.9913     O
O       0.3692   0.5731   0.4913     O
O       0.4013   0.3573   0.4542     O
O       0.4013   0.6427   0.9542     O
O        0.408   0.0994   0.0354     O
O        0.408   0.9006   0.5354     O
C       0.4098   0.0302   0.5515     C
C       0.4098   0.9698   0.0515     C
O       0.4653   0.1153   0.5575     O
O       0.4653   0.8847   0.0575     O
Dy     0.47923  0.28155  0.00485    Dy
Dy     0.47923  0.71845  0.50485    Dy
O       0.4795   0.3506   0.1205     O
O       0.4795   0.6494   0.6205     O
C       0.4917   0.4828   0.1262     C
C       0.4917   0.5172   0.6262     C
O       0.4973   0.4373   0.5761     O
O       0.4973   0.5627   0.0761     O
C       0.4983   0.4514   0.6947     C
C       0.4983   0.5486   0.1947     C
H       0.4986   0.2305   0.6851     H
H       0.4986   0.7695   0.1851     H
C       0.4991   0.3108   0.7137     C
C       0.4991   0.6892   0.2137     C
O          0.5    0.462     0.25     O
O          0.5    0.538     0.75     O
C       0.5009   0.3108   0.7863     C
C       0.5009   0.6892   0.2863     C
H       0.5014   0.2305   0.8149     H
H       0.5014   0.7695   0.3149     H
C       0.5017   0.4514   0.8053     C
C       0.5017   0.5486   0.3053     C
O       0.5027   0.4373   0.9239     O
O       0.5027   0.5627   0.4239     O
C       0.5083   0.4828   0.3738     C
C       0.5083   0.5172   0.8738     C
O       0.5205   0.3506   0.3795     O
O       0.5205   0.6494   0.8795     O
Dy     0.52077  0.28155  0.49515    Dy
Dy     0.52077  0.71845  0.99515    Dy
O       0.5347   0.1153   0.9425     O
O       0.5347   0.8847   0.4425     O
C       0.5902   0.0302   0.9485     C
C       0.5902   0.9698   0.4485     C
O        0.592   0.0994   0.4646     O
O        0.592   0.9006   0.9646     O
O       0.5987   0.3573   0.0458     O
O       0.5987   0.6427   0.5458     O
O       0.6308   0.4269   0.5087     O
O       0.6308   0.5731   0.0087     O
H       0.6402   0.2959   0.8919     H
H       0.6402   0.7041   0.3919     H
C       0.6423   0.4474   0.0348     C
C       0.6423   0.5526   0.5348     C
C       0.6586   0.0942   0.9361     C
C       0.6586   0.9058   0.4361     C
C       0.6741   0.2237   0.9095     C
C       0.6741   0.7763   0.4095     C
C       0.7211   0.4009   0.0575     C
C       0.7211   0.5991   0.5575     C
H       0.7218   0.1972   0.1002     H
H       0.7218   0.8028   0.6002     H
O        0.723   0.0162   0.9576     O
O        0.723   0.9838   0.4576     O
C       0.7487   0.2725   0.0862     C
C       0.7487   0.7275   0.5862     C
C       0.7513   0.2275   0.9138     C
C       0.7513   0.7725   0.4138     C
O        0.777   0.4838   0.0424     O
O        0.777   0.5162   0.5424     O
H       0.7782   0.3028   0.8998     H
H       0.7782   0.6972   0.3998     H
C       0.7789   0.0991   0.9425     C
C       0.7789   0.9009   0.4425     C
C       0.8259   0.2763   0.0905     C
C       0.8259   0.7237   0.5905     C
C       0.8414   0.4058   0.0639     C
C       0.8414   0.5942   0.5639     C
C       0.8577   0.0526   0.9652     C
C       0.8577   0.9474   0.4652     C
H       0.8598   0.2041   0.1081     H
H       0.8598   0.7959   0.6081     H
O       0.8692   0.0731   0.4913     O
O       0.8692   0.9269   0.9913     O
O       0.9013   0.1427   0.9542     O
O       0.9013   0.8573   0.4542     O
O        0.908   0.4006   0.5354     O
O        0.908   0.5994   0.0354     O
C       0.9098   0.4698   0.0515     C
C       0.9098   0.5302   0.5515     C
O       0.9653   0.3847   0.0575     O
O       0.9653   0.6153   0.5575     O
Dy     0.97923  0.21845  0.50485    Dy
Dy     0.97923  0.78155  0.00485    Dy
O       0.9795   0.1494   0.6205     O
O       0.9795   0.8506   0.1205     O
C       0.9917   0.0172   0.6262     C
C       0.9917   0.9828   0.1262     C
O       0.9973   0.0627   0.0761     O
O       0.9973   0.9373   0.5761     O
C       0.9983   0.0486   0.1947     C
C       0.9983   0.9514   0.6947     C
H       0.9986   0.2695   0.1851     H
H       0.9986   0.7305   0.6851     H
C       0.9991   0.1892   0.2137     C
C       0.9991   0.8108   0.7137     C
