data_I
_chemical_name_common  '/home/zhangsd/repos/MofS-CGCNN/ML/data/TSD/clean_cifs/YUWHOO_SL'
_cell_length_a 12.19450
_cell_length_b 12.19450
_cell_length_c 12.16900
_cell_angle_alpha 119.48200
_cell_angle_beta  119.48200
_cell_angle_gamma 52.67820
_space_group_name_H-M_alt      'P 1'


loop_
_space_group_symop_operation_xyz
  'x, y, z' 

loop_
_atom_site_label
_atom_site_fract_x
_atom_site_fract_y
_atom_site_fract_z
_atom_site_type_symbol
Ga         0.0      0.5      0.5    Ga
H        0.003    0.791    0.728     H
H        0.013    0.525     0.25     H
H        0.014    0.694    0.961     H
C      0.06818  0.27678   0.0244     C
H        0.075    0.221    0.551     H
N       0.0803   0.3579   0.9882     N
C       0.0829   0.7159   0.7574     C
C      0.08561  0.52441   0.3146     C
N      0.10724  0.57604   0.6934     N
N      0.11678  0.50998   0.4322     N
C      0.15304  0.19504   0.5331     C
N      0.15532  0.28852   0.5029     N
H        0.191    0.553     0.26     H
C      0.19409  0.71649   0.8684     C
C      0.19504  0.15304   0.0331     C
C      0.19538  0.52858    0.315     C
H        0.205    0.791    0.567     H
H        0.209    0.795    0.933     H
H        0.209    0.997    0.772     H
C      0.21312  0.28112   0.9764     C
H        0.221    0.075    0.051     H
C      0.23125  0.49885   0.7705     C
H        0.235    0.749    0.136     H
C      0.24526  0.50466   0.4998     C
H        0.248    0.306    0.946     H
H        0.251    0.765    0.364     H
H        0.272    0.396    0.744     H
C      0.27678  0.06818   0.5244     C
C      0.28112  0.21312   0.4764     C
C      0.28351  0.80591   0.6316     C
C       0.2841   0.9171   0.7426     C
H        0.286    0.496    0.581     H
N      0.28852  0.15532   0.0029     N
N      0.29035  0.57735   0.8771     N
N      0.29927  0.51427   0.4343     N
H        0.306    0.248    0.446     H
H        0.306    0.986    0.539     H
C      0.30621  0.68621   0.1908     C
C      0.31379  0.69379   0.3092     C
N       0.3579   0.0803   0.4882     N
H        0.396    0.272    0.244     H
H        0.419    0.581     0.75     H
N      0.42265  0.70965   0.6229     N
N      0.42396  0.89276   0.8066     N
N      0.42529  0.56429   0.1528     N
N      0.43571  0.57471   0.3472     N
H        0.447    0.809     0.24     H
H      0.46472  0.00699  0.46903     H
C      0.47142  0.80462    0.185     C
H        0.475    0.987     0.25     H
C      0.47559  0.91439   0.1854     C
N      0.48573  0.70073   0.0657     N
N      0.49002  0.88322   0.0678     N
C      0.49534  0.75474   0.0002     C
H        0.496    0.286    0.081     H
C       0.4977   0.5023     0.25     C
C      0.49885  0.23125   0.2705     C
Ga         0.5      0.0     -0.0    Ga
Ga         0.5      0.5      0.0    Ga
Ga         0.5      0.5      0.5    Ga
C      0.50115  0.76875   0.7295     C
C       0.5023   0.4977     0.75     C
H        0.504    0.714    0.919     H
C      0.50466  0.24526   0.9998     C
N      0.50998  0.11678   0.9322     N
N      0.51427  0.29927   0.9343     N
C      0.52441  0.08561   0.8146     C
H        0.525    0.013     0.75     H
C      0.52858  0.19538    0.815     C
H        0.553    0.191     0.76     H
N      0.56429  0.42529   0.6528     N
N      0.57471  0.43571   0.8472     N
N      0.57604  0.10724   0.1934     N
N      0.57735  0.29035   0.3771     N
H        0.581    0.419     0.25     H
H        0.604    0.728    0.756     H
N       0.6421   0.9197   0.5118     N
C      0.68621  0.30621   0.6908     C
C      0.69379  0.31379   0.8092     C
H        0.694    0.014    0.461     H
H        0.694    0.752    0.554     H
N      0.70073  0.48573   0.5657     N
N      0.70965  0.42265   0.1229     N
N      0.71148  0.84468   0.9971     N
H        0.714    0.504    0.419     H
C       0.7159   0.0829   0.2574     C
C      0.71649  0.19409   0.3684     C
C      0.71888  0.78688   0.5236     C
C      0.72322  0.93182   0.4756     C
H        0.728    0.604    0.256     H
H        0.749    0.235    0.636     H
H        0.752    0.694    0.054     H
C      0.75474  0.49534   0.5002     C
H        0.765    0.251    0.864     H
C      0.76875  0.50115   0.2295     C
H        0.779    0.925    0.949     H
C      0.78688  0.71888   0.0236     C
H        0.791    0.003    0.228     H
H        0.791    0.205    0.067     H
H        0.795    0.209    0.433     H
C      0.80462  0.47142    0.685     C
C      0.80496  0.84696   0.9669     C
C      0.80591  0.28351   0.1316     C
H        0.809    0.447     0.74     H
N      0.84468  0.71148   0.4971     N
C      0.84696  0.80496   0.4669     C
N      0.88322  0.49002   0.5678     N
N      0.89276  0.42396   0.3066     N
C      0.91439  0.47559   0.6854     C
C       0.9171   0.2841   0.2426     C
N       0.9197   0.6421   0.0118     N
H        0.925    0.779    0.449     H
C      0.93182  0.72322   0.9756     C
H        0.986    0.306    0.039     H
H        0.987    0.475     0.75     H
H      0.99301  0.53528  0.03097     H
H        0.997    0.209    0.272     H
