data_I
_chemical_name_common  '/home/zhangsd/repos/MofS-CGCNN/ML/data/TSD/clean_cifs/YUWKEH_clean'
_cell_length_a 10.16180
_cell_length_b 21.97470
_cell_length_c 14.11400
_cell_angle_alpha 91.53300
_cell_angle_beta  90.00000
_cell_angle_gamma 90.00000
_space_group_name_H-M_alt      'P 1'


loop_
_space_group_symop_operation_xyz
  'x, y, z' 

loop_
_atom_site_label
_atom_site_fract_x
_atom_site_fract_y
_atom_site_fract_z
_atom_site_type_symbol
C       0.0054  0.54021   0.5763     C
H       0.0059   0.1579   0.7874     H
O       0.0069  0.36709  0.21723     O
H       0.0084   0.5672   0.6282     H
H       0.0121   0.6854   0.2417     H
O       0.0198  0.14646  0.29496     O
C       0.0207  0.01367   0.0948     C
C       0.0227  0.40141   0.8097     C
C       0.0264  0.67021    0.516     C
O       0.0265  0.21703   0.1066     O
C       0.0331  0.07958   0.7072     C
H       0.0351   0.0224   0.1589     H
C       0.0351  0.16485   0.0643     C
C       0.0367  0.94325   0.9614     C
H       0.0382   0.4113   0.0293     H
H       0.0418   0.0947   0.4861     H
C       0.0485  0.51674   0.4134     C
C       0.0489  0.02994   0.3805     C
O       0.0495  0.69366  0.59604     O
C       0.0515  0.48243    0.124     C
C       0.0552  0.55803   0.4899     C
C       0.0571  0.95753   0.0563     C
Nd     0.05949  0.25944  0.26765    Nd
C       0.0646  0.33827   0.7771     C
O        0.067  0.31542  0.53542     O
O       0.0696  0.28324  0.92075     O
C       0.0711  0.88133   0.9211     C
C       0.0781  0.50427   0.8577     C
C       0.0794  0.13861   0.7546     C
C       0.0798  0.14553   0.3706     C
O       0.0802  0.18703  0.60573     O
H       0.0808   0.5278   0.3546     H
C       0.0839  0.98212   0.6351     C
C       0.0851  0.36881   0.1507     C
H       0.0877   0.8844   0.8537     H
C       0.0926  0.08881   0.4284     C
C       0.0929  0.42099   0.0839     C
H       0.0959    0.929   0.0949     H
C       0.0977  0.93175   0.3096     C
C       0.1089  0.58472   0.1729     C
C       0.1151  0.44693   0.8244     C
C       0.1172  0.62019   0.4791     C
H       0.1225   0.3409   0.7228     H
C       0.1231  0.03626   0.6786     C
O       0.1309  0.15324  0.01216     O
O        0.133  0.19456  0.40227     O
C       0.1349  0.30754   0.8566     C
C       0.1352  0.18198   0.6847     C
H       0.1363   0.6265   0.4127     H
C       0.1373  0.98621   0.3535     C
H       0.1418   0.5341   0.8676     H
C       0.1441  0.52727   0.1401     C
H        0.146   0.1296   0.8014     H
H       0.1468   0.9536    0.616     H
H       0.1515   0.8674   0.9506     H
H       0.1604   0.9028   0.2916     H
O       0.1633  0.32461  0.13516     O
H       0.1733   0.6142   0.1835     H
H       0.1829   0.4241   0.0617     H
H       0.1841   0.0845   0.4467     H
H       0.1996    0.622   0.5138     H
H       0.2033   0.4389   0.8119     H
H       0.2123   0.0435   0.6888     H
H       0.2264   0.9929   0.3647     H
H       0.2323   0.5187   0.1286     H
O       0.2341  0.21452  0.70486     O
O       0.2407  0.30802  0.36164     O
Nd     0.24962  0.24928  0.52553    Nd
Nd     0.25038  0.24928  0.02553    Nd
O       0.2593  0.30802  0.86164     O
O       0.2659  0.21452  0.20486     O
H       0.2677   0.5187   0.6286     H
H       0.2736   0.9929   0.8647     H
H       0.2877   0.0435   0.1888     H
H       0.2967   0.4389   0.3119     H
H       0.3004    0.622   0.0138     H
H       0.3159   0.0845   0.9467     H
H       0.3171   0.4241   0.5617     H
H       0.3267   0.6142   0.6835     H
O       0.3367  0.32461  0.63516     O
H       0.3396   0.9028   0.7916     H
H       0.3485   0.8674   0.4506     H
H       0.3532   0.9536    0.116     H
H        0.354   0.1296   0.3014     H
C       0.3559  0.52727   0.6401     C
H       0.3582   0.5341   0.3676     H
C       0.3627  0.98621   0.8535     C
H       0.3637   0.6265   0.9127     H
C       0.3648  0.18198   0.1847     C
C       0.3651  0.30754   0.3566     C
O        0.367  0.19456  0.90227     O
O       0.3691  0.15324  0.51216     O
C       0.3769  0.03626   0.1786     C
H       0.3775   0.3409   0.2228     H
C       0.3828  0.62019   0.9791     C
C       0.3849  0.44693   0.3244     C
C       0.3911  0.58472   0.6729     C
C       0.4023  0.93175   0.8096     C
H       0.4041    0.929   0.5949     H
C       0.4071  0.42099   0.5839     C
C       0.4074  0.08881   0.9284     C
H       0.4123   0.8844   0.3537     H
C       0.4149  0.36881   0.6507     C
C       0.4161  0.98212   0.1351     C
H       0.4192   0.5278   0.8546     H
O       0.4198  0.18703  0.10573     O
C       0.4202  0.14553   0.8706     C
C       0.4206  0.13861   0.2546     C
C       0.4219  0.50427   0.3577     C
C       0.4289  0.88133   0.4211     C
O       0.4304  0.28324  0.42075     O
O        0.433  0.31542  0.03542     O
C       0.4354  0.33827   0.2771     C
Nd     0.44051  0.25944  0.76765    Nd
C       0.4429  0.95753   0.5563     C
C       0.4448  0.55803   0.9899     C
C       0.4485  0.48243    0.624     C
O       0.4505  0.69366  0.09604     O
C       0.4511  0.02994   0.8805     C
C       0.4515  0.51674   0.9134     C
H       0.4582   0.0947   0.9861     H
H       0.4618   0.4113   0.5293     H
C       0.4633  0.94325   0.4614     C
H       0.4649   0.0224   0.6589     H
C       0.4649  0.16485   0.5643     C
C       0.4669  0.07958   0.2072     C
O       0.4735  0.21703   0.6066     O
C       0.4736  0.67021    0.016     C
C       0.4773  0.40141   0.3097     C
C       0.4793  0.01367   0.5948     C
O       0.4802  0.14646  0.79496     O
H       0.4879   0.6854   0.7417     H
H       0.4916   0.5672   0.1282     H
O       0.4931  0.36709  0.71723     O
H       0.4941   0.1579   0.2874     H
C       0.4946  0.54021   0.0763     C
C       0.5054  0.45979   0.9237     C
H       0.5059   0.8421   0.7126     H
O       0.5069  0.63291  0.28277     O
H       0.5084   0.4328   0.8718     H
H       0.5121   0.3146   0.2583     H
O       0.5198  0.85354  0.20504     O
C       0.5207  0.98633   0.4052     C
C       0.5227  0.59859   0.6903     C
C       0.5264  0.32979    0.984     C
O       0.5265  0.78297   0.3934     O
C       0.5331  0.92042   0.7928     C
C       0.5351  0.83515   0.4357     C
H       0.5351   0.9776   0.3411     H
C       0.5367  0.05675   0.5386     C
H       0.5382   0.5887   0.4707     H
H       0.5418   0.9053   0.0139     H
C       0.5485  0.48326   0.0866     C
C       0.5489  0.97006   0.1195     C
O       0.5495  0.30634  0.90396     O
C       0.5515  0.51757    0.376     C
C       0.5552  0.44197   0.0101     C
C       0.5571  0.04247   0.4437     C
Nd     0.55949  0.74056  0.23235    Nd
C       0.5646  0.66173   0.7229     C
O        0.567  0.68458  0.96458     O
O       0.5696  0.71676  0.57925     O
C       0.5711  0.11867   0.5789     C
C       0.5781  0.49573   0.6423     C
C       0.5794  0.86139   0.7454     C
C       0.5798  0.85447   0.1294     C
O       0.5802  0.81297  0.89427     O
H       0.5808   0.4722   0.1454     H
C       0.5839  0.01788   0.8649     C
C       0.5851  0.63119   0.3493     C
H       0.5877   0.1156   0.6463     H
C       0.5926  0.91119   0.0716     C
C       0.5929  0.57901   0.4161     C
H       0.5959    0.071   0.4051     H
C       0.5977  0.06825   0.1904     C
C       0.6089  0.41528   0.3271     C
C       0.6151  0.55307   0.6756     C
C       0.6172  0.37981   0.0209     C
H       0.6225   0.6591   0.7772     H
C       0.6231  0.96374   0.8214     C
O       0.6309  0.84676  0.48784     O
O        0.633  0.80544  0.09773     O
C       0.6349  0.69246   0.6434     C
C       0.6352  0.81802   0.8153     C
H       0.6363   0.3735   0.0873     H
C       0.6373  0.01379   0.1465     C
H       0.6418   0.4659   0.6324     H
C       0.6441  0.47273   0.3599     C
H        0.646   0.8704   0.6986     H
H       0.6468   0.0464    0.884     H
H       0.6515   0.1326   0.5494     H
H       0.6604   0.0972   0.2084     H
O       0.6633  0.67539  0.36484     O
H       0.6733   0.3858   0.3165     H
H       0.6829   0.5759   0.4383     H
H       0.6841   0.9155   0.0533     H
H       0.6996    0.378   0.9862     H
H       0.7033   0.5611   0.6881     H
H       0.7123   0.9565   0.8112     H
H       0.7264   0.0071   0.1353     H
H       0.7323   0.4813   0.3714     H
O       0.7341  0.78548  0.79514     O
O       0.7407  0.69198  0.13836     O
Nd     0.74962  0.75072  0.97447    Nd
Nd     0.75038  0.75072  0.47447    Nd
O       0.7593  0.69198  0.63836     O
O       0.7659  0.78548  0.29514     O
H       0.7677   0.4813   0.8714     H
H       0.7736   0.0071   0.6353     H
H       0.7877   0.9565   0.3112     H
H       0.7967   0.5611   0.1881     H
H       0.8004    0.378   0.4862     H
H       0.8159   0.9155   0.5533     H
H       0.8171   0.5759   0.9383     H
H       0.8267   0.3858   0.8165     H
O       0.8367  0.67539  0.86484     O
H       0.8396   0.0972   0.7084     H
H       0.8485   0.1326   0.0494     H
H       0.8532   0.0464    0.384     H
H        0.854   0.8704   0.1986     H
C       0.8559  0.47273   0.8599     C
H       0.8582   0.4659   0.1324     H
C       0.8627  0.01379   0.6465     C
H       0.8637   0.3735   0.5873     H
C       0.8648  0.81802   0.3153     C
C       0.8651  0.69246   0.1434     C
O        0.867  0.80544  0.59773     O
O       0.8691  0.84676  0.98784     O
C       0.8769  0.96374   0.3214     C
H       0.8775   0.6591   0.2772     H
C       0.8828  0.37981   0.5209     C
C       0.8849  0.55307   0.1756     C
C       0.8911  0.41528   0.8271     C
C       0.9023  0.06825   0.6904     C
H       0.9041    0.071   0.9051     H
C       0.9071  0.57901   0.9161     C
C       0.9074  0.91119   0.5716     C
H       0.9123   0.1156   0.1463     H
C       0.9149  0.63119   0.8493     C
C       0.9161  0.01788   0.3649     C
H       0.9192   0.4722   0.6454     H
O       0.9198  0.81297  0.39427     O
C       0.9202  0.85447   0.6294     C
C       0.9206  0.86139   0.2454     C
C       0.9219  0.49573   0.1423     C
C       0.9289  0.11867   0.0789     C
O       0.9304  0.71676  0.07925     O
O        0.933  0.68458  0.46458     O
C       0.9354  0.66173   0.2229     C
Nd     0.94051  0.74056  0.73235    Nd
C       0.9429  0.04247   0.9437     C
C       0.9448  0.44197   0.5101     C
C       0.9485  0.51757    0.876     C
O       0.9505  0.30634  0.40396     O
C       0.9511  0.97006   0.6195     C
C       0.9515  0.48326   0.5866     C
H       0.9582   0.9053   0.5139     H
H       0.9618   0.5887   0.9707     H
C       0.9633  0.05675   0.0386     C
C       0.9649  0.83515   0.9357     C
H       0.9649   0.9776   0.8411     H
C       0.9669  0.92042   0.2928     C
O       0.9735  0.78297   0.8934     O
C       0.9736  0.32979    0.484     C
C       0.9773  0.59859   0.1903     C
C       0.9793  0.98633   0.9052     C
O       0.9802  0.85354  0.70504     O
H       0.9879   0.3146   0.7583     H
H       0.9916   0.4328   0.3718     H
O       0.9931  0.63291  0.78277     O
H       0.9941   0.8421   0.2126     H
C       0.9946  0.45979   0.4237     C
