data_I
_chemical_name_common  '/home/zhangsd/repos/MofS-CGCNN/ML/data/TSD/clean_cifs/YUYGOQ_clean'
_cell_length_a 14.58300
_cell_length_b 23.24100
_cell_length_c 15.63380
_cell_angle_alpha 90.00000
_cell_angle_beta  106.99000
_cell_angle_gamma 90.00000
_space_group_name_H-M_alt      'P 1'


loop_
_space_group_symop_operation_xyz
  'x, y, z' 

loop_
_atom_site_label
_atom_site_fract_x
_atom_site_fract_y
_atom_site_fract_z
_atom_site_type_symbol
Cd         0.0      0.0      0.0    Cd
Cd         0.0      0.5      0.5    Cd
C       0.0019   0.1734   0.1967     C
C       0.0019   0.3266   0.6967     C
C       0.0132   0.6525   0.3883     C
C       0.0132   0.8475   0.8883     C
H        0.019   0.7204   0.0343     H
H        0.019   0.7796   0.5343     H
C       0.0202   0.6862   0.0036     C
C       0.0202   0.8138   0.5036     C
C       0.0283   0.5864   0.9144     C
C       0.0283   0.9136   0.4144     C
H       0.0292   0.5664   0.1306     H
H       0.0292   0.9336   0.6306     H
H       0.0324   0.5529   0.8831     H
H       0.0324   0.9471   0.3831     H
H       0.0359   0.5425   0.2738     H
H       0.0359   0.9575   0.7738     H
C       0.0391   0.1273   0.6242     C
C       0.0391   0.3727   0.1242     C
O       0.0403  0.09464   0.0124     O
O       0.0403  0.40536   0.5124     O
C        0.047   0.1774   0.5798     C
C        0.047   0.3226   0.0798     C
H       0.0562   0.7145   0.2188     H
H       0.0562   0.7855   0.7188     H
C       0.0609  0.12139   0.0827     C
C       0.0609  0.37861   0.5827     C
H       0.0621   0.1691   0.2378     H
H       0.0621   0.3309   0.7378     H
C       0.0686   0.7005   0.2768     C
C       0.0686   0.7995   0.7768     C
H       0.0801   0.1211   0.6813     H
H       0.0801   0.3789   0.1813     H
C       0.0834   0.5478   0.1663     C
C       0.0834   0.9522   0.6663     C
H       0.0857   0.5964   0.7425     H
H       0.0857   0.9036   0.2425     H
C       0.0859   0.6462   0.0395     C
C       0.0859   0.8538   0.5395     C
C        0.087   0.5333   0.2521     C
C        0.087   0.9667   0.7521     C
C       0.0894   0.5944   0.9985     C
C       0.0894   0.9056   0.4985     C
C       0.1036    0.659   0.4479     C
C       0.1036    0.841   0.9479     C
O       0.1088  0.51696   0.6358     O
O       0.1088  0.98304   0.1358     O
H       0.1093   0.6834   0.8166     H
H       0.1093   0.8166   0.3166     H
O       0.1109  0.51543   0.4332     O
O       0.1109  0.98457   0.9332     O
H       0.1161   0.6448   0.5058     H
H       0.1161   0.8552   0.0058     H
C       0.1249   0.2208   0.6192     C
C       0.1249   0.2792   0.1192     C
H       0.1309   0.6537   0.0942     H
H       0.1309   0.8463   0.5942     H
C       0.1348   0.6205   0.7379     C
C       0.1348   0.8795   0.2379     C
H       0.1401   0.0624   0.5431     H
H       0.1401   0.4376   0.0431     H
O       0.1469  0.12388   0.1347     O
O       0.1469  0.37612   0.6347     O
C       0.1473   0.6733   0.7804     C
C       0.1473   0.8267   0.2804     C
O       0.1499  0.24575   0.0677     O
O       0.1499  0.25425   0.5677     O
N       0.1537  0.55012   0.0432     N
N       0.1537  0.94988   0.5432     N
C       0.1562    0.536   0.1322     C
C       0.1562    0.964   0.6322     C
C       0.1571   0.7066   0.3366     C
C       0.1571   0.7934   0.8366     C
O        0.163  0.22015   0.7014     O
O        0.163  0.27985   0.2014     O
C       0.1665   0.5048   0.3071     C
C       0.1665   0.9952   0.8071     C
C       0.1685   0.0121   0.8998     C
C       0.1685   0.4879   0.3998     C
C       0.1705     0.05   0.5018     C
C       0.1705     0.45   0.0018     C
C       0.1756   0.6863   0.4226     C
C       0.1756   0.8137   0.9226     C
C       0.1832   0.5444   0.6489     C
C       0.1832   0.9556   0.1489     C
C       0.1857   0.5076   0.9912     C
C       0.1857   0.9924   0.4912     C
C       0.1935   0.6037   0.6893     C
C       0.1935   0.8963   0.1893     C
H       0.1945   0.1281   0.4586     H
H       0.1945   0.3719   0.9586     H
C       0.2018   0.0891   0.4492     C
C       0.2018   0.4109   0.9492     C
C       0.2173   0.7116   0.7692     C
C       0.2173   0.7884   0.2692     C
O       0.2237   0.0504   0.9388     O
O       0.2237   0.4496   0.4388     O
C       0.2268   0.5243   0.9257     C
C       0.2268   0.9757   0.4257     C
N       0.2333  0.73473   0.3108     N
N       0.2333  0.76527   0.8108     N
H       0.2359   0.5632   0.9169     H
H       0.2359   0.9368   0.4169     H
H        0.236   0.6909   0.4633     H
H        0.236   0.8091   0.9633     H
Cd     0.23637  0.06237  0.08375    Cd
Cd     0.23637  0.43763  0.58375    Cd
C       0.2371   0.5089   0.1869     C
C       0.2371   0.9911   0.6869     C
O       0.2377   0.1688   0.3283     O
O       0.2377   0.3312   0.8283     O
C        0.238   0.0079   0.7727     C
C        0.238   0.4921   0.2727     C
C       0.2417   0.0737    0.386     C
C       0.2417   0.4263    0.886     C
C       0.2539   0.0153   0.3744     C
C       0.2539   0.4847   0.8744     C
Cd     0.25806  0.19894   0.1964    Cd
Cd     0.25806  0.30106   0.6964    Cd
O       0.2595  0.52532   0.6333     O
O       0.2595  0.97468   0.1333     O
C        0.261   0.6411   0.6759     C
C        0.261   0.8589   0.1759     C
C       0.2669   0.1173    0.325     C
C       0.2669   0.3827    0.825     C
C       0.2725   0.6947   0.7127     C
C       0.2725   0.8053   0.2127     C
H       0.2768   0.6286   0.3028     H
H       0.2768   0.8714   0.8028     H
H        0.281   0.0031   0.3306     H
H        0.281   0.4969   0.8306     H
H         0.29    0.502   0.1665     H
H         0.29    0.998   0.6665     H
H       0.2902   0.0287   0.8073     H
H       0.2902   0.4713   0.3073     H
H       0.2996   0.6295   0.6411     H
H       0.2996   0.8705   0.1411     H
O       0.3128   0.1022   0.2739     O
O       0.3128   0.3978   0.7739     O
H       0.3165   0.7201   0.7006     H
H       0.3165   0.7799   0.2006     H
C       0.3237   0.7085   0.3331     C
C       0.3237   0.7915   0.8331     C
O       0.3278  0.15888   0.0954     O
O       0.3278  0.34112   0.5954     O
C        0.332   0.6508   0.3222     C
C        0.332   0.8492   0.8222     C
O       0.3968  0.07644   0.1113     O
O       0.3968  0.42356   0.6113     O
C       0.4014   0.1294   0.1103     C
C       0.4014   0.3706   0.6103     C
H       0.4029   0.7203   0.8801     H
H       0.4029   0.7797   0.3801     H
C       0.4071   0.7407   0.3682     C
C       0.4071   0.7593   0.8682     C
C       0.4203   0.6246   0.3393     C
C       0.4203   0.8754   0.8393     C
H       0.4243   0.5854   0.3289     H
H       0.4243   0.9146   0.8289     H
H       0.4475   0.2362   0.0938     H
H       0.4475   0.2638   0.5938     H
C       0.4969   0.7144   0.3856     C
C       0.4969   0.7856   0.8856     C
C       0.4971   0.1569   0.1279     C
C       0.4971   0.3431   0.6279     C
C       0.5029   0.6569   0.3721     C
C       0.5029   0.8431   0.8721     C
C       0.5031   0.2144   0.1144     C
C       0.5031   0.2856   0.6144     C
H       0.5525   0.7362   0.4062     H
H       0.5525   0.7638   0.9062     H
H       0.5757   0.0854   0.1711     H
H       0.5757   0.4146   0.6711     H
C       0.5797   0.1246   0.1607     C
C       0.5797   0.3754   0.6607     C
C       0.5929   0.2407   0.1318     C
C       0.5929   0.2593   0.6318     C
H       0.5971   0.2203   0.6199     H
H       0.5971   0.2797   0.1199     H
C       0.5986   0.6294   0.3897     C
C       0.5986   0.8706   0.8897     C
O       0.6032  0.57644   0.3887     O
O       0.6032  0.92356   0.8887     O
C        0.668   0.1508   0.1778     C
C        0.668   0.3492   0.6778     C
O       0.6722  0.65888   0.4046     O
O       0.6722  0.84112   0.9046     O
C       0.6763   0.2085   0.1669     C
C       0.6763   0.2915   0.6669     C
H       0.6835   0.2201   0.7994     H
H       0.6835   0.2799   0.2994     H
O       0.6872   0.6022   0.2261     O
O       0.6872   0.8978   0.7261     O
H       0.7004   0.1295   0.8589     H
H       0.7004   0.3705   0.3589     H
H       0.7098   0.5287   0.6927     H
H       0.7098   0.9713   0.1927     H
H         0.71    0.002   0.3335     H
H         0.71    0.498   0.8335     H
H        0.719   0.5031   0.1694     H
H        0.719   0.9969   0.6694     H
H       0.7232   0.1286   0.1972     H
H       0.7232   0.3714   0.6972     H
C       0.7275   0.1947   0.7873     C
C       0.7275   0.3053   0.2873     C
C       0.7331   0.6173    0.175     C
C       0.7331   0.8827    0.675     C
C        0.739   0.1411   0.8241     C
C        0.739   0.3589   0.3241     C
O       0.7405  0.02532   0.8667     O
O       0.7405  0.47468   0.3667     O
Cd     0.74194  0.69894   0.3036    Cd
Cd     0.74194  0.80106   0.8036    Cd
C       0.7461   0.5153   0.1256     C
C       0.7461   0.9847   0.6256     C
C       0.7583   0.5737    0.114     C
C       0.7583   0.9263    0.614     C
C        0.762   0.5079   0.7273     C
C        0.762   0.9921   0.2273     C
O       0.7623   0.6688   0.1717     O
O       0.7623   0.8312   0.6717     O
C       0.7629   0.0089   0.3131     C
C       0.7629   0.4911   0.8131     C
Cd     0.76363  0.56237  0.41625    Cd
Cd     0.76363  0.93763  0.91625    Cd
H        0.764   0.1909   0.0367     H
H        0.764   0.3091   0.5367     H
H       0.7641   0.0632   0.5831     H
H       0.7641   0.4368   0.0831     H
N       0.7667  0.23473   0.1892     N
N       0.7667  0.26527   0.6892     N
C       0.7732   0.0243   0.5743     C
C       0.7732   0.4757   0.0743     C
O       0.7763   0.5504   0.5612     O
O       0.7763   0.9496   0.0612     O
C       0.7827   0.2116   0.7308     C
C       0.7827   0.2884   0.2308     C
C       0.7982   0.5891   0.0508     C
C       0.7982   0.9109   0.5508     C
H       0.8055   0.6281   0.0414     H
H       0.8055   0.8719   0.5414     H
C       0.8065   0.1037   0.8107     C
C       0.8065   0.3963   0.3107     C
C       0.8143   0.0076   0.5088     C
C       0.8143   0.4924   0.0088     C
C       0.8168   0.0444   0.8511     C
C       0.8168   0.4556   0.3511     C
C       0.8244   0.1863   0.0774     C
C       0.8244   0.3137   0.5774     C
C       0.8295     0.55   0.9982     C
C       0.8295     0.95   0.4982     C
C       0.8315   0.5121   0.6002     C
C       0.8315   0.9879   0.1002     C
C       0.8335   0.0048   0.1929     C
C       0.8335   0.4952   0.6929     C
O        0.837  0.72015   0.7986     O
O        0.837  0.77985   0.2986     O
C       0.8429   0.2066   0.1634     C
C       0.8429   0.2934   0.6634     C
C       0.8438    0.036   0.3678     C
C       0.8438    0.464   0.8678     C
N       0.8463  0.05012   0.4568     N
N       0.8463  0.44988   0.9568     N
O       0.8501  0.74575   0.4323     O
O       0.8501  0.75425   0.9323     O
C       0.8527   0.1733   0.7196     C
C       0.8527   0.3267   0.2196     C
O       0.8531  0.62388   0.3653     O
O       0.8531  0.87612   0.8653     O
H       0.8599   0.5624   0.9569     H
H       0.8599   0.9376   0.4569     H
C       0.8652   0.1205   0.7621     C
C       0.8652   0.3795   0.2621     C
H       0.8691   0.1537   0.4058     H
H       0.8691   0.3463   0.9058     H
C       0.8751   0.7208   0.8808     C
C       0.8751   0.7792   0.3808     C
H       0.8839   0.1448   0.9942     H
H       0.8839   0.3552   0.4942     H
O       0.8891  0.01543   0.0668     O
O       0.8891  0.48457   0.5668     O
H       0.8907   0.1834   0.6834     H
H       0.8907   0.3166   0.1834     H
O       0.8912  0.01696   0.8642     O
O       0.8912  0.48304   0.3642     O
C       0.8964    0.159   0.0521     C
C       0.8964    0.341   0.5521     C
C       0.9106   0.0944   0.5015     C
C       0.9106   0.4056   0.0015     C
C        0.913   0.0333   0.2479     C
C        0.913   0.4667   0.7479     C
C       0.9141   0.1462   0.4605     C
C       0.9141   0.3538   0.9605     C
H       0.9143   0.0964   0.7575     H
H       0.9143   0.4036   0.2575     H
C       0.9166   0.0478   0.3337     C
C       0.9166   0.4522   0.8337     C
H       0.9199   0.6211   0.8187     H
H       0.9199   0.8789   0.3187     H
C       0.9314   0.2005   0.2232     C
C       0.9314   0.2995   0.7232     C
H       0.9379   0.6691   0.2622     H
H       0.9379   0.8309   0.7622     H
C       0.9391  0.62139   0.4173     C
C       0.9391  0.87861   0.9173     C
H       0.9438   0.2145   0.2812     H
H       0.9438   0.2855   0.7812     H
C        0.953   0.6774   0.9202     C
C        0.953   0.8226   0.4202     C
O       0.9597  0.59464   0.4876     O
O       0.9597  0.90536   0.9876     O
C       0.9609   0.6273   0.8758     C
C       0.9609   0.8727   0.3758     C
H       0.9641   0.0425   0.2262     H
H       0.9641   0.4575   0.7262     H
H       0.9676   0.0529   0.6169     H
H       0.9676   0.4471   0.1169     H
H       0.9708   0.0664   0.3694     H
H       0.9708   0.4336   0.8694     H
C       0.9717   0.0864   0.5856     C
C       0.9717   0.4136   0.0856     C
C       0.9798   0.1862   0.4964     C
C       0.9798   0.3138   0.9964     C
H        0.981   0.2204   0.4657     H
H        0.981   0.2796   0.9657     H
C       0.9868   0.1525   0.1117     C
C       0.9868   0.3475   0.6117     C
C       0.9981   0.6734   0.3033     C
C       0.9981   0.8266   0.8033     C
