data_I
_chemical_name_common  '/home/zhangsd/repos/MofS-CGCNN/ML/data/TSD/clean_cifs/YUZRAO_clean'
_cell_length_a 11.57910
_cell_length_b 15.26230
_cell_length_c 19.24830
_cell_angle_alpha 70.39400
_cell_angle_beta  76.58700
_cell_angle_gamma 82.73200
_space_group_name_H-M_alt      'P 1'


loop_
_space_group_symop_operation_xyz
  'x, y, z' 

loop_
_atom_site_label
_atom_site_fract_x
_atom_site_fract_y
_atom_site_fract_z
_atom_site_type_symbol
H       0.0015   0.5635   0.4295     H
H       0.0052   0.5953   0.7955     H
C        0.008   0.6066   0.7445     C
C       0.0137   0.3848   0.6104     C
C        0.021   0.5927   0.9813     C
C       0.0231   0.6331    0.596     C
H       0.0266   0.6423   0.5453     H
H       0.0355   0.6553   0.9686     H
C       0.0527   0.7573   0.2944     C
C        0.056   0.2333   0.7267     C
C       0.0615   0.3149   0.3679     C
C       0.0693    0.327   0.2923     C
C       0.0729   0.6799   0.3551     C
H        0.074   0.1818    0.766     H
C       0.0904   0.5568   0.7045     C
C       0.0936   0.4326    0.008     C
H       0.0983   0.8724    0.153     H
N       0.0998   0.5705  0.63101     N
H        0.113   0.2719   0.3945     H
C       0.1156   0.5262   0.9892     C
N       0.1176    0.377  0.63131     N
C        0.138   0.3018   0.6887     C
H       0.1412   0.5119   0.7302     H
H       0.1435   0.6718   0.3722     H
C       0.1456   0.8268   0.2548     C
C       0.1528   0.8795   0.1791     C
H       0.1558   0.3874   0.0133     H
C       0.1572   0.2719   0.2531     C
H       0.1584   0.1541   0.3422     H
H       0.1879   0.3693   0.1501     H
C       0.1926   0.1804   0.2917     C
O       0.1927  0.49504  0.47036     O
H       0.2003   0.5041   0.3323     H
H       0.2102   0.2949   0.7038     H
C       0.2104    0.309   0.1771     C
H       0.2251   0.8028   0.3427     H
C       0.2289   0.8378   0.2924     C
O       0.2306   0.7054   0.4751     O
Co     0.23144  0.49192  0.57801    Co
C       0.2399   0.5574   0.9775     C
C       0.2412   0.9425   0.1429     C
H       0.2449   0.9779   0.0926     H
O       0.2512   0.6435  0.94777     O
C       0.2709   0.4686   0.3253     C
H       0.2765    0.483   0.2169     H
C       0.2767   0.1289   0.2563     C
C       0.2889   0.4509   0.4569     C
C       0.2957   0.2579   0.1411     C
H       0.2986   0.0685   0.2833     H
H       0.3082   0.1212   0.8535     H
O       0.3125  0.44503  0.66791     O
H       0.3141   0.4435   0.7999     H
C       0.3153   0.4549   0.2567     C
C       0.3172   0.9001   0.2558     C
O       0.3195  0.49573  0.99773     O
H       0.3218   0.7171    0.179     H
C       0.3243   0.9533   0.1809     C
C         0.33   0.1663   0.1799     C
H       0.3307   0.2846   0.0907     H
C       0.3313   0.4296  0.38426     C
C       0.3324    0.677   0.4838     C
O       0.3334  0.73766  0.03886     O
H       0.3396   0.9142   0.9579     H
H       0.3494    0.207   0.8671     H
O       0.3559  0.42227  0.50633     O
O       0.3577  0.59278  0.52447     O
H       0.3725   0.9064   0.2818     H
C       0.3756   0.1504   0.8554     C
H       0.3797   0.4058   0.9109     H
H       0.3825   0.6699   0.2926     H
H       0.3837   0.0746   0.9637     H
Co     0.38495  0.73003  0.91813    Co
C       0.3886   0.4135   0.8036     C
C       0.3931   0.6823   0.1841     C
C       0.4146   0.9195   0.9268     C
C       0.4166   0.0223   0.1431     C
C       0.4191   0.3985   0.2469     C
C       0.4199   0.6801   0.0527     C
C        0.421   0.1109   0.1431     C
H       0.4212   0.7909   0.4704     H
C       0.4216   0.4253   0.6673     C
C       0.4271   0.3902   0.8702     C
H       0.4296   0.1643   0.8075     H
C       0.4307   0.6555   0.2515     C
H        0.432   0.7707   0.3944     H
C       0.4322    0.743   0.4472     C
C       0.4345   0.3735   0.3745     C
C       0.4374   0.0859   0.9151     C
O       0.4476  0.44966  0.11387     O
H       0.4541    0.679   0.6997     H
C       0.4604   0.3926   0.7413     C
C       0.4635   0.6566   0.1233     C
O       0.4687   0.6906  0.82748     O
C       0.4705   0.3855    0.171     C
N       0.4725   0.8525  0.90111     N
H       0.4744   0.3464   0.4139     H
O       0.4757  0.64329  0.00171     O
C        0.477   0.3586   0.3065     C
N       0.4777   0.9961   0.9022     N
H       0.4931   0.2908   0.5466     H
H       0.4944   0.8843   0.0834     H
O       0.4982  0.57045  0.39067     O
Co         0.5      0.5      0.0    Co
Co         0.5      0.5      0.5    Co
O       0.5018  0.42955  0.60933     O
H       0.5056   0.1157   0.9166     H
H       0.5069   0.7092   0.4534     H
N       0.5223   0.0039   0.0978     N
C        0.523   0.6414   0.6935     C
O       0.5243  0.35671  0.99829     O
H       0.5256   0.6536   0.5861     H
N       0.5275   0.1475  0.09889     N
C       0.5295   0.6145    0.829     C
O       0.5313   0.3094  0.17252     O
C       0.5365   0.3434   0.8767     C
C       0.5396   0.6074   0.2587     C
H       0.5459    0.321   0.3003     H
O       0.5524  0.55034  0.88613     O
C       0.5626   0.9141   0.0849     C
C       0.5655   0.6265   0.6255     C
C       0.5678    0.257   0.5528     C
H        0.568   0.2293   0.6056     H
C       0.5693   0.3445   0.7485     C
H       0.5704   0.8357   0.1925     H
C       0.5729   0.6098   0.1298     C
C       0.5784   0.5747   0.3327     C
H       0.5788   0.2091   0.5296     H
C        0.579   0.8891   0.8569     C
C       0.5801   0.3199   0.9473     C
C       0.5809   0.6015   0.7531     C
C       0.5834   0.9777   0.8569     C
C       0.5854   0.0805   0.0732     C
C       0.6069   0.3177   0.8159     C
C       0.6114   0.5865   0.1964     C
Co     0.61505  0.26997  0.08187    Co
H       0.6163   0.9254   0.0363     H
H       0.6175   0.3301   0.7074     H
H       0.6203   0.5942   0.0891     H
C       0.6244   0.8496   0.1446     C
H       0.6275   0.0936   0.7182     H
O       0.6423  0.40722  0.47553     O
O       0.6441  0.57773  0.49367     O
H       0.6506    0.793   0.1329     H
H       0.6604   0.0858   0.0421     H
O       0.6666  0.26234  0.96114     O
C       0.6676    0.323   0.5162     C
C       0.6687   0.5704  0.61574     C
H       0.6693   0.7154   0.9093     H
C         0.67   0.8337   0.8201     C
C       0.6757   0.0467   0.8191     C
H       0.6782   0.2829    0.821     H
O       0.6805  0.50427  0.00227     O
C       0.6828   0.0999   0.7442     C
C       0.6847   0.5451   0.7433     C
H       0.6859   0.5565   0.2001     H
O       0.6875  0.55497  0.33209     O
H       0.6918   0.8788   0.1465     H
H       0.7014   0.9315   0.7167     H
C       0.7043   0.7421   0.8589     C
C       0.7111   0.5491   0.5431     C
C       0.7233   0.8711   0.7437     C
H       0.7235    0.517   0.7831     H
C       0.7291   0.5314   0.6747     C
O       0.7488   0.3565  0.05223     O
H       0.7551   0.0221   0.9074     H
C       0.7588   0.0575   0.8571     C
C       0.7601   0.4426   0.0225     C
Co     0.76856  0.50808  0.42199    Co
O       0.7694   0.2946   0.5249     O
C       0.7711   0.1622   0.7076     C
H       0.7749   0.1972   0.6573     H
C       0.7896    0.691   0.8229     C
H       0.7898   0.7051   0.2962     H
H       0.7997   0.4959   0.6677     H
O       0.8073  0.50496  0.52964     O
C       0.8074   0.8196   0.7083     C
H       0.8121   0.6307   0.8499     H
H       0.8416   0.8459   0.6578     H
C       0.8428   0.7281   0.7469     C
H       0.8442   0.6126   0.9867     H
C       0.8472   0.1205   0.8209     C
C       0.8544   0.1732   0.7452     C
H       0.8565   0.3282   0.6278     H
H       0.8588   0.4881   0.2698     H
C        0.862   0.6982   0.3113     C
N       0.8824    0.623  0.36869     N
C       0.8844   0.4738   0.0108     C
H        0.887   0.7281   0.6055     H
N       0.9002   0.4295  0.36899     N
H       0.9017   0.1276    0.847     H
C       0.9064   0.5674    0.992     C
C       0.9096   0.4432   0.2955     C
H        0.926   0.8182    0.234     H
C       0.9271   0.3201   0.6449     C
C       0.9307    0.673   0.7077     C
C       0.9385   0.6851   0.6321     C
C        0.944   0.7667   0.2733     C
C       0.9473   0.2427   0.7056     C
H       0.9645   0.3447   0.0314     H
H       0.9734   0.3577   0.4547     H
C       0.9769   0.3669    0.404     C
C        0.979   0.4073   0.0187     C
C       0.9863   0.6152   0.3896     C
C        0.992   0.3934   0.2555     C
H       0.9948   0.4047   0.2045     H
H       0.9985   0.4365   0.5705     H
