data_I
_chemical_name_common  '/home/zhangsd/repos/MofS-CGCNN/ML/data/TSD/clean_cifs/YUZXAT_clean'
_cell_length_a  9.34020
_cell_length_b 13.73910
_cell_length_c 20.09000
_cell_angle_alpha 86.13720
_cell_angle_beta  78.56890
_cell_angle_gamma 70.12840
_space_group_name_H-M_alt      'P 1'


loop_
_space_group_symop_operation_xyz
  'x, y, z' 

loop_
_atom_site_label
_atom_site_fract_x
_atom_site_fract_y
_atom_site_fract_z
_atom_site_type_symbol
C      0.00689  0.77882  0.80004     C
O      0.00796  0.76588  0.97176     O
H       0.0175    0.615   0.7456     H
H        0.019    0.871    0.066     H
C      0.02091  0.91458  0.41978     C
H       0.0226   0.4218   0.3759     H
H       0.0264   0.6846   0.6804     H
H       0.0277   0.2622   0.1632     H
C      0.02884  0.00032    0.383     C
C      0.02916  0.99968    0.883     C
C      0.03591  0.06658  0.13738     C
C        0.039   0.4382  0.58093     C
C      0.04119  0.58882  0.99869     C
H       0.0506   0.5462   0.4371     H
C      0.05496  0.51388  0.61739     C
O      0.06251  0.85178  0.82555     O
C      0.06451  0.91458  0.08022     C
C       0.0744   0.4132  0.03586     C
H        0.079   0.1856   0.2228     H
C      0.08493  0.64354  0.71339     C
O      0.08571  0.85178  0.67445     O
C      0.08585   0.6847   0.9959     C
Zn     0.09781  0.24342   0.5136    Zn
C      0.10249  0.93342  0.63738     C
N      0.10846  0.11028  0.56355     N
H         0.11    0.871    0.434     H
C      0.11263  0.50214   0.0335     C
O      0.12048  0.67384  0.47964     O
H       0.1218   0.0138   0.3719     H
H       0.1245   0.3556   0.0599     H
H       0.1356   0.9862   0.8719     H
C      0.14496  0.71008     0.75     C
N      0.14565   0.3425  0.56959     N
C      0.18502  0.49336  0.64327     C
H       0.1895   0.5034   0.0563     H
C      0.19623  0.04474  0.11916     C
O      0.19727  0.25246  0.41963     O
O      0.20568  0.67384  0.02036     O
C      0.21429  0.77882  0.69996     C
O      0.21623  0.56194  0.68004     O
N      0.21874  0.88972  0.06355     N
O      0.22183  0.56194  0.81996     O
O      0.22616  0.76588  0.52824     O
C      0.22945   0.6847   0.5041     C
H       0.2305   0.3804   0.8506     H
C      0.23711  0.04478  0.58311     C
C      0.24097  0.95526  0.61916     C
H       0.2433   0.0892    0.131     H
H       0.2646   0.8144   0.7228     H
C      0.27153  0.64354  0.78661     C
C      0.27765   0.3257   0.5952     C
C      0.28189  0.95522  0.08311     C
H       0.2866   0.3274   0.3074     H
H        0.289   0.6846   0.8196     H
H       0.2899   0.7378   0.6632     H
C      0.29686  0.17008  0.39447     C
C      0.29887  0.39626  0.63178     C
C      0.30487  0.39626  0.86822     C
H       0.3071   0.5034   0.4437     H
C      0.32162  0.49336  0.85673     C
H        0.328   0.0608   0.5717     H
H       0.3325   0.9108    0.631     H
C      0.33882  0.26496  0.28447     C
Zn     0.34123  0.75658   0.0136    Zn
O      0.34638  0.09144  0.42832     O
H       0.3564   0.2622   0.5868     H
C      0.35903  0.17174  0.31961     C
H       0.3675    0.615   0.7544     H
C      0.36999  0.58882  0.50131     C
H       0.3814   0.2622   0.9132     H
C      0.38523  0.50214   0.4665     C
H        0.386   0.3274   0.1926     H
H       0.3888   0.9392   0.0717     H
H       0.3891   0.3804   0.6494     H
C      0.39622  0.26496  0.21553     C
C      0.39665   0.3257   0.9048     C
H       0.4032   0.5462   0.0629     H
C      0.43116  0.51388  0.88261     C
C      0.43584  0.07692   0.2853     C
O      0.43782  0.90856  0.92832     O
H       0.4444   0.5782   0.8759     H
O      0.44973  0.74754  0.91963     O
H       0.4524   0.0148   0.3091     H
C      0.46694  0.82992  0.89447     C
H       0.4672   0.9852   0.8091     H
C      0.46923  0.17174  0.18039     C
C       0.4772   0.5618  0.08093     C
H       0.4801   0.6444   0.5599     H
C      0.48724  0.07692   0.2147     C
C       0.4876   0.5868  0.53586     C
N      0.48815   0.6575  0.06959     N
N      0.51185   0.3425  0.93041     N
C       0.5124   0.4132  0.46414     C
C      0.51276  0.92308   0.7853     C
H       0.5199   0.3556   0.4401     H
C       0.5228   0.4382  0.91907     C
C      0.53077  0.82826  0.81961     C
H       0.5328   0.0148   0.1909     H
C      0.53306  0.17008  0.10553     C
H       0.5476   0.9852   0.6909     H
O      0.55027  0.25246  0.08037     O
H       0.5556   0.4218   0.1241     H
O      0.56218  0.09144  0.07168     O
C      0.56416  0.92308   0.7147     C
C      0.56884  0.48612  0.11739     C
H       0.5968   0.4538   0.9371     H
C      0.60335   0.6743   0.0952     C
C      0.60378  0.73504  0.78447     C
H       0.6109   0.6196   0.3506     H
H       0.6112   0.0608   0.9283     H
H        0.614   0.6726   0.8074     H
C      0.61477  0.49786   0.5335     C
H       0.6186   0.7378   0.0868     H
C      0.63001  0.41118  0.49869     C
H       0.6325    0.385   0.2456     H
C      0.64097  0.82826  0.68039     C
H       0.6436   0.7378   0.4132     H
O      0.65362  0.90856  0.57168     O
Zn     0.65877  0.24342   0.9864    Zn
C      0.66118  0.73504  0.71553     C
H       0.6675   0.0892    0.369     H
H        0.672   0.9392   0.4283     H
C      0.67838  0.50664  0.14327     C
H       0.6929   0.4966   0.5563     H
C      0.69513  0.60374  0.13178     C
C      0.70113  0.60374  0.36822     C
C      0.70314  0.82992  0.60553     C
H       0.7101   0.2622   0.3368     H
H        0.711   0.3154   0.1804     H
H       0.7134   0.6726   0.6926     H
C      0.71811  0.04478  0.91689     C
C      0.72235   0.6743   0.4048     C
C      0.72847  0.35646  0.21339     C
H       0.7354   0.1856   0.2772     H
H       0.7567   0.9108    0.869     H
C      0.75903  0.04474  0.38084     C
C      0.76289  0.95522  0.41689     C
H       0.7695   0.6196   0.1494     H
C      0.77055   0.3153   0.4959     C
O      0.77384  0.23412  0.47176     O
O      0.77817  0.43806  0.18004     O
N      0.78126  0.11028  0.93645     N
O      0.78377  0.43806  0.31996     O
C      0.78571  0.22118  0.30004     C
O      0.79432  0.32616  0.97964     O
O      0.80273  0.74754  0.58037     O
C      0.80377  0.95526  0.88084     C
H       0.8105   0.4966   0.9437     H
C      0.81498  0.50664  0.35673     C
N      0.85435   0.6575  0.43041     N
C      0.85504  0.28992     0.25     C
H       0.8644   0.0138   0.1281     H
H       0.8755   0.6444   0.9401     H
H       0.8782   0.9862   0.6281     H
O      0.87952  0.32616  0.52036     O
C      0.88737  0.49786   0.9665     C
H         0.89    0.129    0.566     H
N      0.89154  0.88972  0.43645     N
C      0.89751  0.06658  0.36262     C
Zn     0.90219  0.75658   0.4864    Zn
C      0.91415   0.3153   0.0041     C
O      0.91429  0.14822  0.32555     O
C      0.91507  0.35646  0.28661     C
H        0.921   0.8144   0.7772     H
C       0.9256   0.5868  0.96414     C
C      0.93549  0.08542  0.91978     C
O      0.93749  0.14822  0.17445     O
C      0.94504  0.48612  0.38261     C
H       0.9494   0.4538   0.5629     H
C      0.95881  0.41118  0.00131     C
C        0.961   0.5618  0.41907     C
C      0.96409  0.93342  0.86262     C
C      0.97084  0.00032    0.117     C
C      0.97116  0.99968    0.617     C
H       0.9723   0.7378   0.8368     H
H       0.9736   0.3154   0.3196     H
H       0.9774   0.5782   0.6241     H
C      0.97909  0.08542  0.58022     C
H        0.981    0.129    0.934     H
H       0.9825    0.385   0.2544     H
O      0.99204  0.23412  0.02824     O
C      0.99311  0.22118  0.19996     C
