data_I
_chemical_name_common  '/home/zhangsd/repos/MofS-CGCNN/ML/data/TSD/clean_cifs/ZACHIX_clean'
_cell_length_a 26.23200
_cell_length_b 26.23200
_cell_length_c 26.23200
_cell_angle_alpha 90.00000
_cell_angle_beta  90.00000
_cell_angle_gamma 90.00000
_space_group_name_H-M_alt      'P 1'


loop_
_space_group_symop_operation_xyz
  'x, y, z' 

loop_
_atom_site_label
_atom_site_fract_x
_atom_site_fract_y
_atom_site_fract_z
_atom_site_type_symbol
Cu         0.0  0.21488  0.21488    Cu
Cu         0.0  0.21488  0.78512    Cu
Cu         0.0  0.28512  0.28512    Cu
Cu         0.0  0.28512  0.71488    Cu
Cu         0.0  0.71488  0.28512    Cu
Cu         0.0  0.71488  0.71488    Cu
Cu         0.0  0.78512  0.21488    Cu
Cu         0.0  0.78512  0.78512    Cu
O       0.0524    0.183   0.2568     O
O       0.0524    0.183   0.7432     O
O       0.0524   0.2432    0.317     O
O       0.0524   0.2432    0.683     O
O       0.0524   0.2568    0.183     O
O       0.0524   0.2568    0.817     O
O       0.0524    0.317   0.2432     O
O       0.0524    0.317   0.7568     O
O       0.0524    0.683   0.2432     O
O       0.0524    0.683   0.7568     O
O       0.0524   0.7432    0.183     O
O       0.0524   0.7432    0.817     O
O       0.0524   0.7568    0.317     O
O       0.0524   0.7568    0.683     O
O       0.0524    0.817   0.2568     O
O       0.0524    0.817   0.7432     O
C       0.0675   0.2024   0.2976     C
C       0.0675   0.2024   0.7024     C
C       0.0675   0.2976   0.2024     C
C       0.0675   0.2976   0.7976     C
C       0.0675   0.7024   0.2024     C
C       0.0675   0.7024   0.7976     C
C       0.0675   0.7976   0.2976     C
C       0.0675   0.7976   0.7024     C
C       0.1109   0.1766   0.3234     C
C       0.1109   0.1766   0.6766     C
C       0.1109   0.3234   0.1766     C
C       0.1109   0.3234   0.8234     C
C       0.1109   0.6766   0.1766     C
C       0.1109   0.6766   0.8234     C
C       0.1109   0.8234   0.3234     C
C       0.1109   0.8234   0.6766     C
H       0.1191   0.1191   0.2714     H
H       0.1191   0.1191   0.7286     H
H       0.1191   0.2286   0.3809     H
H       0.1191   0.2286   0.6191     H
H       0.1191   0.2714   0.1191     H
H       0.1191   0.2714   0.8809     H
H       0.1191   0.3809   0.2286     H
H       0.1191   0.3809   0.7714     H
H       0.1191   0.6191   0.2286     H
H       0.1191   0.6191   0.7714     H
H       0.1191   0.7286   0.1191     H
H       0.1191   0.7286   0.8809     H
H       0.1191   0.7714   0.3809     H
H       0.1191   0.7714   0.6191     H
H       0.1191   0.8809   0.2714     H
H       0.1191   0.8809   0.7286     H
C        0.133    0.133   0.3008     C
C        0.133    0.133   0.6992     C
C        0.133   0.1992    0.367     C
C        0.133   0.1992    0.633     C
C        0.133   0.3008    0.133     C
C        0.133   0.3008    0.867     C
C        0.133    0.367   0.1992     C
C        0.133    0.367   0.8008     C
C        0.133    0.633   0.1992     C
C        0.133    0.633   0.8008     C
C        0.133   0.6992    0.133     C
C        0.133   0.6992    0.867     C
C        0.133   0.8008    0.367     C
C        0.133   0.8008    0.633     C
C        0.133    0.867   0.3008     C
C        0.133    0.867   0.6992     C
C       0.1766   0.1109   0.3234     C
C       0.1766   0.1109   0.6766     C
C       0.1766   0.1766   0.3891     C
C       0.1766   0.1766   0.6109     C
C       0.1766   0.3234   0.1109     C
C       0.1766   0.3234   0.8891     C
C       0.1766   0.3891   0.1766     C
C       0.1766   0.3891   0.8234     C
C       0.1766   0.6109   0.1766     C
C       0.1766   0.6109   0.8234     C
C       0.1766   0.6766   0.1109     C
C       0.1766   0.6766   0.8891     C
C       0.1766   0.8234   0.3891     C
C       0.1766   0.8234   0.6109     C
C       0.1766   0.8891   0.3234     C
C       0.1766   0.8891   0.6766     C
O        0.183   0.0524   0.2568     O
O        0.183   0.0524   0.7432     O
O        0.183   0.2432   0.4476     O
O        0.183   0.2432   0.5524     O
O        0.183   0.2568   0.0524     O
O        0.183   0.2568   0.9476     O
O        0.183   0.4476   0.2432     O
O        0.183   0.4476   0.7568     O
O        0.183   0.5524   0.2432     O
O        0.183   0.5524   0.7568     O
O        0.183   0.7432   0.0524     O
O        0.183   0.7432   0.9476     O
O        0.183   0.7568   0.4476     O
O        0.183   0.7568   0.5524     O
O        0.183   0.9476   0.2568     O
O        0.183   0.9476   0.7432     O
C       0.1992    0.133    0.367     C
C       0.1992    0.133    0.633     C
C       0.1992    0.367    0.133     C
C       0.1992    0.367    0.867     C
C       0.1992    0.633    0.133     C
C       0.1992    0.633    0.867     C
C       0.1992    0.867    0.367     C
C       0.1992    0.867    0.633     C
C       0.2024   0.0675   0.2976     C
C       0.2024   0.0675   0.7024     C
C       0.2024   0.2024   0.4325     C
C       0.2024   0.2024   0.5675     C
C       0.2024   0.2976   0.0675     C
C       0.2024   0.2976   0.9325     C
C       0.2024   0.4325   0.2024     C
C       0.2024   0.4325   0.7976     C
C       0.2024   0.5675   0.2024     C
C       0.2024   0.5675   0.7976     C
C       0.2024   0.7024   0.0675     C
C       0.2024   0.7024   0.9325     C
C       0.2024   0.7976   0.4325     C
C       0.2024   0.7976   0.5675     C
C       0.2024   0.9325   0.2976     C
C       0.2024   0.9325   0.7024     C
Cu     0.21488      0.0  0.21488    Cu
Cu     0.21488      0.0  0.78512    Cu
Cu     0.21488  0.21488      0.0    Cu
Cu     0.21488  0.28512      0.5    Cu
Cu     0.21488      0.5  0.28512    Cu
Cu     0.21488      0.5  0.71488    Cu
Cu     0.21488  0.71488      0.5    Cu
Cu     0.21488  0.78512      0.0    Cu
H       0.2286   0.1191   0.3809     H
H       0.2286   0.1191   0.6191     H
H       0.2286   0.3809   0.1191     H
H       0.2286   0.3809   0.8809     H
H       0.2286   0.6191   0.1191     H
H       0.2286   0.6191   0.8809     H
H       0.2286   0.8809   0.3809     H
H       0.2286   0.8809   0.6191     H
O       0.2432   0.0524    0.317     O
O       0.2432   0.0524    0.683     O
O       0.2432    0.183   0.4476     O
O       0.2432    0.183   0.5524     O
O       0.2432    0.317   0.0524     O
O       0.2432    0.317   0.9476     O
O       0.2432   0.4476    0.183     O
O       0.2432   0.4476    0.817     O
O       0.2432   0.5524    0.183     O
O       0.2432   0.5524    0.817     O
O       0.2432    0.683   0.0524     O
O       0.2432    0.683   0.9476     O
O       0.2432    0.817   0.4476     O
O       0.2432    0.817   0.5524     O
O       0.2432   0.9476    0.317     O
O       0.2432   0.9476    0.683     O
O       0.2568   0.0524    0.183     O
O       0.2568   0.0524    0.817     O
O       0.2568    0.183   0.0524     O
O       0.2568    0.183   0.9476     O
O       0.2568    0.317   0.4476     O
O       0.2568    0.317   0.5524     O
O       0.2568   0.4476    0.317     O
O       0.2568   0.4476    0.683     O
O       0.2568   0.5524    0.317     O
O       0.2568   0.5524    0.683     O
O       0.2568    0.683   0.4476     O
O       0.2568    0.683   0.5524     O
O       0.2568    0.817   0.0524     O
O       0.2568    0.817   0.9476     O
O       0.2568   0.9476    0.183     O
O       0.2568   0.9476    0.817     O
H       0.2714   0.1191   0.1191     H
H       0.2714   0.1191   0.8809     H
H       0.2714   0.3809   0.3809     H
H       0.2714   0.3809   0.6191     H
H       0.2714   0.6191   0.3809     H
H       0.2714   0.6191   0.6191     H
H       0.2714   0.8809   0.1191     H
H       0.2714   0.8809   0.8809     H
Cu     0.28512      0.0  0.28512    Cu
Cu     0.28512      0.0  0.71488    Cu
Cu     0.28512  0.21488      0.5    Cu
Cu     0.28512  0.28512      0.0    Cu
Cu     0.28512      0.5  0.21488    Cu
Cu     0.28512      0.5  0.78512    Cu
Cu     0.28512  0.71488      0.0    Cu
Cu     0.28512  0.78512      0.5    Cu
C       0.2976   0.0675   0.2024     C
C       0.2976   0.0675   0.7976     C
C       0.2976   0.2024   0.0675     C
C       0.2976   0.2024   0.9325     C
C       0.2976   0.2976   0.4325     C
C       0.2976   0.2976   0.5675     C
C       0.2976   0.4325   0.2976     C
C       0.2976   0.4325   0.7024     C
C       0.2976   0.5675   0.2976     C
C       0.2976   0.5675   0.7024     C
C       0.2976   0.7024   0.4325     C
C       0.2976   0.7024   0.5675     C
C       0.2976   0.7976   0.0675     C
C       0.2976   0.7976   0.9325     C
C       0.2976   0.9325   0.2024     C
C       0.2976   0.9325   0.7976     C
C       0.3008    0.133    0.133     C
C       0.3008    0.133    0.867     C
C       0.3008    0.367    0.367     C
C       0.3008    0.367    0.633     C
C       0.3008    0.633    0.367     C
C       0.3008    0.633    0.633     C
C       0.3008    0.867    0.133     C
C       0.3008    0.867    0.867     C
O        0.317   0.0524   0.2432     O
O        0.317   0.0524   0.7568     O
O        0.317   0.2432   0.0524     O
O        0.317   0.2432   0.9476     O
O        0.317   0.2568   0.4476     O
O        0.317   0.2568   0.5524     O
O        0.317   0.4476   0.2568     O
O        0.317   0.4476   0.7432     O
O        0.317   0.5524   0.2568     O
O        0.317   0.5524   0.7432     O
O        0.317   0.7432   0.4476     O
O        0.317   0.7432   0.5524     O
O        0.317   0.7568   0.0524     O
O        0.317   0.7568   0.9476     O
O        0.317   0.9476   0.2432     O
O        0.317   0.9476   0.7568     O
C       0.3234   0.1109   0.1766     C
C       0.3234   0.1109   0.8234     C
C       0.3234   0.1766   0.1109     C
C       0.3234   0.1766   0.8891     C
C       0.3234   0.3234   0.3891     C
C       0.3234   0.3234   0.6109     C
C       0.3234   0.3891   0.3234     C
C       0.3234   0.3891   0.6766     C
C       0.3234   0.6109   0.3234     C
C       0.3234   0.6109   0.6766     C
C       0.3234   0.6766   0.3891     C
C       0.3234   0.6766   0.6109     C
C       0.3234   0.8234   0.1109     C
C       0.3234   0.8234   0.8891     C
C       0.3234   0.8891   0.1766     C
C       0.3234   0.8891   0.8234     C
C        0.367    0.133   0.1992     C
C        0.367    0.133   0.8008     C
C        0.367   0.1992    0.133     C
C        0.367   0.1992    0.867     C
C        0.367   0.3008    0.367     C
C        0.367   0.3008    0.633     C
C        0.367    0.367   0.3008     C
C        0.367    0.367   0.6992     C
C        0.367    0.633   0.3008     C
C        0.367    0.633   0.6992     C
C        0.367   0.6992    0.367     C
C        0.367   0.6992    0.633     C
C        0.367   0.8008    0.133     C
C        0.367   0.8008    0.867     C
C        0.367    0.867   0.1992     C
C        0.367    0.867   0.8008     C
H       0.3809   0.1191   0.2286     H
H       0.3809   0.1191   0.7714     H
H       0.3809   0.2286   0.1191     H
H       0.3809   0.2286   0.8809     H
H       0.3809   0.2714   0.3809     H
H       0.3809   0.2714   0.6191     H
H       0.3809   0.3809   0.2714     H
H       0.3809   0.3809   0.7286     H
H       0.3809   0.6191   0.2714     H
H       0.3809   0.6191   0.7286     H
H       0.3809   0.7286   0.3809     H
H       0.3809   0.7286   0.6191     H
H       0.3809   0.7714   0.1191     H
H       0.3809   0.7714   0.8809     H
H       0.3809   0.8809   0.2286     H
H       0.3809   0.8809   0.7714     H
C       0.3891   0.1766   0.1766     C
C       0.3891   0.1766   0.8234     C
C       0.3891   0.3234   0.3234     C
C       0.3891   0.3234   0.6766     C
C       0.3891   0.6766   0.3234     C
C       0.3891   0.6766   0.6766     C
C       0.3891   0.8234   0.1766     C
C       0.3891   0.8234   0.8234     C
C       0.4325   0.2024   0.2024     C
C       0.4325   0.2024   0.7976     C
C       0.4325   0.2976   0.2976     C
C       0.4325   0.2976   0.7024     C
C       0.4325   0.7024   0.2976     C
C       0.4325   0.7024   0.7024     C
C       0.4325   0.7976   0.2024     C
C       0.4325   0.7976   0.7976     C
O       0.4476    0.183   0.2432     O
O       0.4476    0.183   0.7568     O
O       0.4476   0.2432    0.183     O
O       0.4476   0.2432    0.817     O
O       0.4476   0.2568    0.317     O
O       0.4476   0.2568    0.683     O
O       0.4476    0.317   0.2568     O
O       0.4476    0.317   0.7432     O
O       0.4476    0.683   0.2568     O
O       0.4476    0.683   0.7432     O
O       0.4476   0.7432    0.317     O
O       0.4476   0.7432    0.683     O
O       0.4476   0.7568    0.183     O
O       0.4476   0.7568    0.817     O
O       0.4476    0.817   0.2432     O
O       0.4476    0.817   0.7568     O
Cu         0.5  0.21488  0.28512    Cu
Cu         0.5  0.21488  0.71488    Cu
Cu         0.5  0.28512  0.21488    Cu
Cu         0.5  0.28512  0.78512    Cu
Cu         0.5  0.71488  0.21488    Cu
Cu         0.5  0.71488  0.78512    Cu
Cu         0.5  0.78512  0.28512    Cu
Cu         0.5  0.78512  0.71488    Cu
O       0.5524    0.183   0.2432     O
O       0.5524    0.183   0.7568     O
O       0.5524   0.2432    0.183     O
O       0.5524   0.2432    0.817     O
O       0.5524   0.2568    0.317     O
O       0.5524   0.2568    0.683     O
O       0.5524    0.317   0.2568     O
O       0.5524    0.317   0.7432     O
O       0.5524    0.683   0.2568     O
O       0.5524    0.683   0.7432     O
O       0.5524   0.7432    0.317     O
O       0.5524   0.7432    0.683     O
O       0.5524   0.7568    0.183     O
O       0.5524   0.7568    0.817     O
O       0.5524    0.817   0.2432     O
O       0.5524    0.817   0.7568     O
C       0.5675   0.2024   0.2024     C
C       0.5675   0.2024   0.7976     C
C       0.5675   0.2976   0.2976     C
C       0.5675   0.2976   0.7024     C
C       0.5675   0.7024   0.2976     C
C       0.5675   0.7024   0.7024     C
C       0.5675   0.7976   0.2024     C
C       0.5675   0.7976   0.7976     C
C       0.6109   0.1766   0.1766     C
C       0.6109   0.1766   0.8234     C
C       0.6109   0.3234   0.3234     C
C       0.6109   0.3234   0.6766     C
C       0.6109   0.6766   0.3234     C
C       0.6109   0.6766   0.6766     C
C       0.6109   0.8234   0.1766     C
C       0.6109   0.8234   0.8234     C
H       0.6191   0.1191   0.2286     H
H       0.6191   0.1191   0.7714     H
H       0.6191   0.2286   0.1191     H
H       0.6191   0.2286   0.8809     H
H       0.6191   0.2714   0.3809     H
H       0.6191   0.2714   0.6191     H
H       0.6191   0.3809   0.2714     H
H       0.6191   0.3809   0.7286     H
H       0.6191   0.6191   0.2714     H
H       0.6191   0.6191   0.7286     H
H       0.6191   0.7286   0.3809     H
H       0.6191   0.7286   0.6191     H
H       0.6191   0.7714   0.1191     H
H       0.6191   0.7714   0.8809     H
H       0.6191   0.8809   0.2286     H
H       0.6191   0.8809   0.7714     H
C        0.633    0.133   0.1992     C
C        0.633    0.133   0.8008     C
C        0.633   0.1992    0.133     C
C        0.633   0.1992    0.867     C
C        0.633   0.3008    0.367     C
C        0.633   0.3008    0.633     C
C        0.633    0.367   0.3008     C
C        0.633    0.367   0.6992     C
C        0.633    0.633   0.3008     C
C        0.633    0.633   0.6992     C
C        0.633   0.6992    0.367     C
C        0.633   0.6992    0.633     C
C        0.633   0.8008    0.133     C
C        0.633   0.8008    0.867     C
C        0.633    0.867   0.1992     C
C        0.633    0.867   0.8008     C
C       0.6766   0.1109   0.1766     C
C       0.6766   0.1109   0.8234     C
C       0.6766   0.1766   0.1109     C
C       0.6766   0.1766   0.8891     C
C       0.6766   0.3234   0.3891     C
C       0.6766   0.3234   0.6109     C
C       0.6766   0.3891   0.3234     C
C       0.6766   0.3891   0.6766     C
C       0.6766   0.6109   0.3234     C
C       0.6766   0.6109   0.6766     C
C       0.6766   0.6766   0.3891     C
C       0.6766   0.6766   0.6109     C
C       0.6766   0.8234   0.1109     C
C       0.6766   0.8234   0.8891     C
C       0.6766   0.8891   0.1766     C
C       0.6766   0.8891   0.8234     C
O        0.683   0.0524   0.2432     O
O        0.683   0.0524   0.7568     O
O        0.683   0.2432   0.0524     O
O        0.683   0.2432   0.9476     O
O        0.683   0.2568   0.4476     O
O        0.683   0.2568   0.5524     O
O        0.683   0.4476   0.2568     O
O        0.683   0.4476   0.7432     O
O        0.683   0.5524   0.2568     O
O        0.683   0.5524   0.7432     O
O        0.683   0.7432   0.4476     O
O        0.683   0.7432   0.5524     O
O        0.683   0.7568   0.0524     O
O        0.683   0.7568   0.9476     O
O        0.683   0.9476   0.2432     O
O        0.683   0.9476   0.7568     O
C       0.6992    0.133    0.133     C
C       0.6992    0.133    0.867     C
C       0.6992    0.367    0.367     C
C       0.6992    0.367    0.633     C
C       0.6992    0.633    0.367     C
C       0.6992    0.633    0.633     C
C       0.6992    0.867    0.133     C
C       0.6992    0.867    0.867     C
C       0.7024   0.0675   0.2024     C
C       0.7024   0.0675   0.7976     C
C       0.7024   0.2024   0.0675     C
C       0.7024   0.2024   0.9325     C
C       0.7024   0.2976   0.4325     C
C       0.7024   0.2976   0.5675     C
C       0.7024   0.4325   0.2976     C
C       0.7024   0.4325   0.7024     C
C       0.7024   0.5675   0.2976     C
C       0.7024   0.5675   0.7024     C
C       0.7024   0.7024   0.4325     C
C       0.7024   0.7024   0.5675     C
C       0.7024   0.7976   0.0675     C
C       0.7024   0.7976   0.9325     C
C       0.7024   0.9325   0.2024     C
C       0.7024   0.9325   0.7976     C
Cu     0.71488      0.0  0.28512    Cu
Cu     0.71488      0.0  0.71488    Cu
Cu     0.71488  0.21488      0.5    Cu
Cu     0.71488  0.28512      0.0    Cu
Cu     0.71488      0.5  0.21488    Cu
Cu     0.71488      0.5  0.78512    Cu
Cu     0.71488  0.71488      0.0    Cu
Cu     0.71488  0.78512      0.5    Cu
H       0.7286   0.1191   0.1191     H
H       0.7286   0.1191   0.8809     H
H       0.7286   0.3809   0.3809     H
H       0.7286   0.3809   0.6191     H
H       0.7286   0.6191   0.3809     H
H       0.7286   0.6191   0.6191     H
H       0.7286   0.8809   0.1191     H
H       0.7286   0.8809   0.8809     H
O       0.7432   0.0524    0.183     O
O       0.7432   0.0524    0.817     O
O       0.7432    0.183   0.0524     O
O       0.7432    0.183   0.9476     O
O       0.7432    0.317   0.4476     O
O       0.7432    0.317   0.5524     O
O       0.7432   0.4476    0.317     O
O       0.7432   0.4476    0.683     O
O       0.7432   0.5524    0.317     O
O       0.7432   0.5524    0.683     O
O       0.7432    0.683   0.4476     O
O       0.7432    0.683   0.5524     O
O       0.7432    0.817   0.0524     O
O       0.7432    0.817   0.9476     O
O       0.7432   0.9476    0.183     O
O       0.7432   0.9476    0.817     O
O       0.7568   0.0524    0.317     O
O       0.7568   0.0524    0.683     O
O       0.7568    0.183   0.4476     O
O       0.7568    0.183   0.5524     O
O       0.7568    0.317   0.0524     O
O       0.7568    0.317   0.9476     O
O       0.7568   0.4476    0.183     O
O       0.7568   0.4476    0.817     O
O       0.7568   0.5524    0.183     O
O       0.7568   0.5524    0.817     O
O       0.7568    0.683   0.0524     O
O       0.7568    0.683   0.9476     O
O       0.7568    0.817   0.4476     O
O       0.7568    0.817   0.5524     O
O       0.7568   0.9476    0.317     O
O       0.7568   0.9476    0.683     O
H       0.7714   0.1191   0.3809     H
H       0.7714   0.1191   0.6191     H
H       0.7714   0.3809   0.1191     H
H       0.7714   0.3809   0.8809     H
H       0.7714   0.6191   0.1191     H
H       0.7714   0.6191   0.8809     H
H       0.7714   0.8809   0.3809     H
H       0.7714   0.8809   0.6191     H
Cu     0.78512      0.0  0.21488    Cu
Cu     0.78512      0.0  0.78512    Cu
Cu     0.78512  0.21488      0.0    Cu
Cu     0.78512  0.28512      0.5    Cu
Cu     0.78512      0.5  0.28512    Cu
Cu     0.78512      0.5  0.71488    Cu
Cu     0.78512  0.71488      0.5    Cu
Cu     0.78512  0.78512      0.0    Cu
C       0.7976   0.0675   0.2976     C
C       0.7976   0.0675   0.7024     C
C       0.7976   0.2024   0.4325     C
C       0.7976   0.2024   0.5675     C
C       0.7976   0.2976   0.0675     C
C       0.7976   0.2976   0.9325     C
C       0.7976   0.4325   0.2024     C
C       0.7976   0.4325   0.7976     C
C       0.7976   0.5675   0.2024     C
C       0.7976   0.5675   0.7976     C
C       0.7976   0.7024   0.0675     C
C       0.7976   0.7024   0.9325     C
C       0.7976   0.7976   0.4325     C
C       0.7976   0.7976   0.5675     C
C       0.7976   0.9325   0.2976     C
C       0.7976   0.9325   0.7024     C
C       0.8008    0.133    0.367     C
C       0.8008    0.133    0.633     C
C       0.8008    0.367    0.133     C
C       0.8008    0.367    0.867     C
C       0.8008    0.633    0.133     C
C       0.8008    0.633    0.867     C
C       0.8008    0.867    0.367     C
C       0.8008    0.867    0.633     C
O        0.817   0.0524   0.2568     O
O        0.817   0.0524   0.7432     O
O        0.817   0.2432   0.4476     O
O        0.817   0.2432   0.5524     O
O        0.817   0.2568   0.0524     O
O        0.817   0.2568   0.9476     O
O        0.817   0.4476   0.2432     O
O        0.817   0.4476   0.7568     O
O        0.817   0.5524   0.2432     O
O        0.817   0.5524   0.7568     O
O        0.817   0.7432   0.0524     O
O        0.817   0.7432   0.9476     O
O        0.817   0.7568   0.4476     O
O        0.817   0.7568   0.5524     O
O        0.817   0.9476   0.2568     O
O        0.817   0.9476   0.7432     O
C       0.8234   0.1109   0.3234     C
C       0.8234   0.1109   0.6766     C
C       0.8234   0.1766   0.3891     C
C       0.8234   0.1766   0.6109     C
C       0.8234   0.3234   0.1109     C
C       0.8234   0.3234   0.8891     C
C       0.8234   0.3891   0.1766     C
C       0.8234   0.3891   0.8234     C
C       0.8234   0.6109   0.1766     C
C       0.8234   0.6109   0.8234     C
C       0.8234   0.6766   0.1109     C
C       0.8234   0.6766   0.8891     C
C       0.8234   0.8234   0.3891     C
C       0.8234   0.8234   0.6109     C
C       0.8234   0.8891   0.3234     C
C       0.8234   0.8891   0.6766     C
C        0.867    0.133   0.3008     C
C        0.867    0.133   0.6992     C
C        0.867   0.1992    0.367     C
C        0.867   0.1992    0.633     C
C        0.867   0.3008    0.133     C
C        0.867   0.3008    0.867     C
C        0.867    0.367   0.1992     C
C        0.867    0.367   0.8008     C
C        0.867    0.633   0.1992     C
C        0.867    0.633   0.8008     C
C        0.867   0.6992    0.133     C
C        0.867   0.6992    0.867     C
C        0.867   0.8008    0.367     C
C        0.867   0.8008    0.633     C
C        0.867    0.867   0.3008     C
C        0.867    0.867   0.6992     C
H       0.8809   0.1191   0.2714     H
H       0.8809   0.1191   0.7286     H
H       0.8809   0.2286   0.3809     H
H       0.8809   0.2286   0.6191     H
H       0.8809   0.2714   0.1191     H
H       0.8809   0.2714   0.8809     H
H       0.8809   0.3809   0.2286     H
H       0.8809   0.3809   0.7714     H
H       0.8809   0.6191   0.2286     H
H       0.8809   0.6191   0.7714     H
H       0.8809   0.7286   0.1191     H
H       0.8809   0.7286   0.8809     H
H       0.8809   0.7714   0.3809     H
H       0.8809   0.7714   0.6191     H
H       0.8809   0.8809   0.2714     H
H       0.8809   0.8809   0.7286     H
C       0.8891   0.1766   0.3234     C
C       0.8891   0.1766   0.6766     C
C       0.8891   0.3234   0.1766     C
C       0.8891   0.3234   0.8234     C
C       0.8891   0.6766   0.1766     C
C       0.8891   0.6766   0.8234     C
C       0.8891   0.8234   0.3234     C
C       0.8891   0.8234   0.6766     C
C       0.9325   0.2024   0.2976     C
C       0.9325   0.2024   0.7024     C
C       0.9325   0.2976   0.2024     C
C       0.9325   0.2976   0.7976     C
C       0.9325   0.7024   0.2024     C
C       0.9325   0.7024   0.7976     C
C       0.9325   0.7976   0.2976     C
C       0.9325   0.7976   0.7024     C
O       0.9476    0.183   0.2568     O
O       0.9476    0.183   0.7432     O
O       0.9476   0.2432    0.317     O
O       0.9476   0.2432    0.683     O
O       0.9476   0.2568    0.183     O
O       0.9476   0.2568    0.817     O
O       0.9476    0.317   0.2432     O
O       0.9476    0.317   0.7568     O
O       0.9476    0.683   0.2432     O
O       0.9476    0.683   0.7568     O
O       0.9476   0.7432    0.183     O
O       0.9476   0.7432    0.817     O
O       0.9476   0.7568    0.317     O
O       0.9476   0.7568    0.683     O
O       0.9476    0.817   0.2568     O
O       0.9476    0.817   0.7432     O
