data_I
_chemical_name_common  '/home/zhangsd/repos/MofS-CGCNN/ML/data/TSD/clean_cifs/ZARLEL_clean'
_cell_length_a 20.26900
_cell_length_b 20.26900
_cell_length_c 39.64500
_cell_angle_alpha 90.00000
_cell_angle_beta  90.00000
_cell_angle_gamma 90.00000
_space_group_name_H-M_alt      'P 1'


loop_
_space_group_symop_operation_xyz
  'x, y, z' 

loop_
_atom_site_label
_atom_site_fract_x
_atom_site_fract_y
_atom_site_fract_z
_atom_site_type_symbol
Zn         0.0  0.16811      0.5    Zn
Zn         0.0  0.83189      0.0    Zn
C      0.00774  0.12591  0.36093     C
C      0.00774  0.87409  0.13907     C
H       0.0082   0.1024   0.6882     H
H       0.0082   0.8976   0.8118     H
C      0.01127   0.1654  0.84572     C
C      0.01127   0.8346  0.65428     C
C      0.01224   0.1021  0.83275     C
C      0.01224   0.8979  0.66725     C
C      0.01444  0.15612  0.42218     C
C      0.01444  0.84388  0.07782     C
H       0.0152   0.0484   0.2071     H
H       0.0152   0.9516   0.2929     H
O       0.0158  0.16968  0.55166     O
O       0.0158  0.83032  0.94834     O
C      0.01694  0.09076  0.19755     C
C      0.01694  0.90924  0.30245     C
H       0.0175   0.2592   0.1626     H
H       0.0175   0.7408   0.3374     H
C       0.0176   0.2163  0.17163     C
C       0.0176   0.7837  0.32837     C
C      0.02579   0.1442   0.6096     C
C      0.02579   0.8558   0.8904     C
C       0.0296  0.11407  0.66808     C
C       0.0296  0.88593  0.83192     C
H       0.0327   0.0676   0.8447     H
H       0.0327   0.9324   0.6553     H
C      0.03613  0.18147  0.87946     C
C      0.03613  0.81853  0.62054     C
H       0.0392   0.4486   0.5471     H
H       0.0392   0.5514   0.9529     H
C      0.04664   0.2042  0.20201     C
C      0.04664   0.7958  0.29799     C
H       0.0484   0.0152   0.5429     H
H       0.0484   0.9848   0.9571     H
C      0.05026   0.1426  0.21496     C
C      0.05026   0.8574  0.28504     C
H       0.0516   0.3402    0.536     H
H       0.0516   0.6598    0.964     H
C       0.0518  0.19707  0.90655     C
C       0.0518  0.80293  0.59345     C
H       0.0539   0.1217   0.3607     H
H       0.0539   0.8783   0.1393     H
H       0.0646   0.2396   0.2143     H
H       0.0646   0.7604   0.2857     H
H       0.0659   0.3195   0.9237     H
C       0.0659   0.4348  0.52902     C
C       0.0659   0.5652  0.97098     C
H       0.0659   0.6805   0.5763     H
H       0.0676   0.0327   0.9053     H
H       0.0676   0.9673   0.5947     H
C      0.06817   0.2243  0.93967     C
C      0.06817   0.7757  0.56033     C
O       0.0692  0.09326  0.49296     O
O       0.0692  0.90674  0.00704     O
O       0.0715  0.23936  0.50008     O
O       0.0715  0.76064  0.99992     O
C      0.07166   0.2922   0.9427     C
C      0.07166   0.7078   0.5573     C
C       0.0717   0.3717  0.52198     C
C       0.0717   0.6283  0.97802     C
H       0.0758   0.1354   0.9648     H
H       0.0758   0.8646   0.5352     H
O      0.07614  0.15036  0.41866     O
O      0.07614  0.84964  0.08134     O
C      0.07736  0.18149  0.96737     C
C      0.07736  0.81851  0.53263     C
C       0.0843   0.3204  0.97555     C
C       0.0843   0.6796  0.52445     C
C       0.0867   0.1262  0.24735     C
C       0.0867   0.8738  0.25265     C
C      0.08904   0.2107  0.99908     C
C      0.08904   0.7893  0.50092     C
C       0.0906   0.3848  0.97893     C
C       0.0906   0.6152  0.52107     C
C      0.09076  0.01694  0.55245     C
C      0.09076  0.98306  0.94755     C
C       0.0924  0.14981  0.60882     C
C       0.0924  0.85019  0.89118     C
C       0.0925    0.444   0.9831     C
C       0.0925    0.556   0.5169     C
O      0.09326   0.0692  0.25704     O
O      0.09326   0.9308  0.24296     O
C        0.094   0.2784  0.00244     C
C        0.094   0.7216  0.49756     C
C       0.0974  0.11923  0.66751     C
C       0.0974  0.88077  0.83249     C
C      0.09925   0.1685  0.02792     C
C      0.09925   0.8315  0.47208     C
C        0.101   0.4833  0.50869     C
C        0.101   0.5167  0.99131     C
C       0.1021  0.01224  0.91725     C
C       0.1021  0.98776  0.58275     C
H       0.1024   0.0082   0.0618     H
H       0.1024   0.9918   0.4382     H
H       0.1043   0.2963   0.0237     H
H       0.1043   0.7037   0.4763     H
C      0.10723  0.13635  0.05212     C
C      0.10723  0.86365  0.44788     C
C      0.10756    0.351  0.49374     C
C      0.10756    0.649  0.00626     C
O      0.10922  0.17329  0.26274     O
O      0.10922  0.82671  0.23726     O
C       0.1105   0.2777  0.48359     C
C       0.1105   0.7223  0.01641     C
H       0.1134   0.1619   0.5886     H
H       0.1134   0.8381   0.9114     H
C      0.11407   0.0296  0.08192     C
C      0.11407   0.9704  0.41808     C
C      0.11923   0.0974  0.08249     C
C      0.11923   0.9026  0.41751     C
H       0.1217   0.0539   0.3893     H
H       0.1217   0.9461   0.1107     H
C      0.12591  0.00774  0.38907     C
C      0.12591  0.99226  0.11093     C
C       0.1262   0.0867  0.50265     C
C       0.1262   0.9133  0.99735     C
C      0.13015  0.13795  0.63735     C
C      0.13015  0.86205  0.86265     C
H       0.1354   0.0758   0.7852     H
H       0.1354   0.9242   0.7148     H
C      0.13635  0.10723  0.69788     C
C      0.13635  0.89277  0.80212     C
C       0.1371   0.4625  0.48198     C
C       0.1371   0.5375  0.01802     C
C      0.13795  0.13015  0.11265     C
C      0.13795  0.86985  0.38735     C
C       0.1403   0.3971  0.47463     C
C       0.1403   0.6029  0.02537     C
H       0.1422   0.1763   0.1133     H
H       0.1422   0.8237   0.3867     H
C       0.1426  0.05026  0.53504     C
C       0.1426  0.94974  0.96496     C
C       0.1442  0.02579   0.1404     C
C       0.1442  0.97421   0.3596     C
Zn     0.14543  0.16808  0.45088    Zn
Zn     0.14543  0.83192  0.04912    Zn
O      0.14902  0.26315  0.46111     O
O      0.14902  0.73685  0.03889     O
C      0.14981   0.0924  0.14118     C
C      0.14981   0.9076  0.35882     C
O      0.15036  0.07614  0.33134     O
O      0.15036  0.92386  0.16866     O
C      0.15612  0.01444  0.32782     C
C      0.15612  0.98556  0.17218     C
H       0.1598   0.4932   0.4685     H
H       0.1598   0.5068   0.0315     H
H       0.1619   0.1134   0.1614     H
H       0.1619   0.8866   0.3386     H
C       0.1654  0.01127  0.90428     C
C       0.1654  0.98873  0.59572     C
H       0.1656   0.3831   0.4561     H
H       0.1656   0.6169   0.0439     H
Zn     0.16808  0.14543  0.29912    Zn
Zn     0.16808  0.85457  0.20088    Zn
Zn     0.16811      0.0     0.25    Zn
C       0.1685  0.09925  0.72208     C
C       0.1685  0.90075  0.77792     C
O      0.16968   0.0158  0.19834     O
O      0.16968   0.9842  0.30166     O
O      0.17329  0.10922  0.48726     O
O      0.17329  0.89078  0.01274     O
H       0.1763   0.1422   0.6367     H
H       0.1763   0.8578   0.8633     H
C      0.18147  0.03613  0.87054     C
C      0.18147  0.96387  0.62946     C
C      0.18149  0.07736  0.78263     C
C      0.18149  0.92264  0.71737     C
C      0.19707   0.0518  0.84345     C
C      0.19707   0.9482  0.65655     C
C       0.2042  0.04664  0.54799     C
C       0.2042  0.95336  0.95201     C
C       0.2107  0.08904  0.75092     C
C       0.2107  0.91096  0.74908     C
C       0.2163   0.0176  0.57837     C
C       0.2163   0.9824  0.92163     C
C       0.2243  0.06817  0.81033     C
C       0.2243  0.93183  0.68967     C
O      0.23936   0.0715  0.24992     O
O      0.23936   0.9285  0.25008     O
H       0.2396   0.0646   0.5357     H
H       0.2396   0.9354   0.9643     H
H       0.2592   0.0175   0.5874     H
H       0.2592   0.9825   0.9126     H
O      0.26315  0.14902  0.28889     O
O      0.26315  0.85098  0.21111     O
C       0.2777   0.1105  0.26641     C
C       0.2777   0.8895  0.23359     C
C       0.2784    0.094  0.74756     C
C       0.2784    0.906  0.75244     C
C       0.2922  0.07166   0.8073     C
C       0.2922  0.92834   0.6927     C
H       0.2963   0.1043   0.7263     H
H       0.2963   0.8957   0.7737     H
H       0.3195   0.0659   0.8263     H
H       0.3195   0.9341   0.6737     H
C       0.3204   0.0843  0.77445     C
C       0.3204   0.9157  0.72555     C
H       0.3402   0.0516    0.214     H
H       0.3402   0.9484    0.286     H
C        0.351  0.10756  0.25626     C
C        0.351  0.89244  0.24374     C
C       0.3717   0.0717  0.22802     C
C       0.3717   0.9283  0.27198     C
H       0.3831   0.1656   0.2939     H
H       0.3831   0.8344   0.2061     H
C       0.3848   0.0906  0.77107     C
C       0.3848   0.9094  0.72893     C
C       0.3971   0.1403  0.27537     C
C       0.3971   0.8597  0.22463     C
C       0.4348   0.0659  0.22098     C
C       0.4348   0.9341  0.27902     C
C        0.444   0.0925   0.7669     C
C        0.444   0.9075   0.7331     C
H       0.4486   0.0392   0.2029     H
H       0.4486   0.9608   0.2971     H
C       0.4625   0.1371  0.26802     C
C       0.4625   0.8629  0.23198     C
C       0.4833    0.101  0.24131     C
C       0.4833    0.899  0.25869     C
H       0.4932   0.1598   0.2815     H
H       0.4932   0.8402   0.2185     H
H       0.5068   0.1598   0.7185     H
H       0.5068   0.8402   0.7815     H
C       0.5167    0.101  0.75869     C
C       0.5167    0.899  0.74131     C
C       0.5375   0.1371  0.73198     C
C       0.5375   0.8629  0.76802     C
H       0.5514   0.0392   0.7971     H
H       0.5514   0.9608   0.7029     H
C        0.556   0.0925   0.2331     C
C        0.556   0.9075   0.2669     C
C       0.5652   0.0659  0.77902     C
C       0.5652   0.9341  0.72098     C
C       0.6029   0.1403  0.72463     C
C       0.6029   0.8597  0.77537     C
C       0.6152   0.0906  0.22893     C
C       0.6152   0.9094  0.27107     C
H       0.6169   0.1656   0.7061     H
H       0.6169   0.8344   0.7939     H
C       0.6283   0.0717  0.77198     C
C       0.6283   0.9283  0.72802     C
C        0.649  0.10756  0.74374     C
C        0.649  0.89244  0.75626     C
H       0.6598   0.0516    0.786     H
H       0.6598   0.9484    0.714     H
C       0.6796   0.0843  0.22555     C
C       0.6796   0.9157  0.27445     C
H       0.6805   0.0659   0.1737     H
H       0.6805   0.9341   0.3263     H
H       0.7037   0.1043   0.2737     H
H       0.7037   0.8957   0.2263     H
C       0.7078  0.07166   0.1927     C
C       0.7078  0.92834   0.3073     C
C       0.7216    0.094  0.25244     C
C       0.7216    0.906  0.24756     C
C       0.7223   0.1105  0.73359     C
C       0.7223   0.8895  0.76641     C
O      0.73685  0.14902  0.71111     O
O      0.73685  0.85098  0.78889     O
H       0.7408   0.0175   0.4126     H
H       0.7408   0.9825   0.0874     H
H       0.7604   0.0646   0.4643     H
H       0.7604   0.9354   0.0357     H
O      0.76064   0.0715  0.75008     O
O      0.76064   0.9285  0.74992     O
C       0.7757  0.06817  0.18967     C
C       0.7757  0.93183  0.31033     C
C       0.7837   0.0176  0.42163     C
C       0.7837   0.9824  0.07837     C
C       0.7893  0.08904  0.24908     C
C       0.7893  0.91096  0.25092     C
C       0.7958  0.04664  0.45201     C
C       0.7958  0.95336  0.04799     C
C      0.80293   0.0518  0.15655     C
C      0.80293   0.9482  0.34345     C
C      0.81851  0.07736  0.21737     C
C      0.81851  0.92264  0.28263     C
C      0.81853  0.03613  0.12946     C
C      0.81853  0.96387  0.37054     C
H       0.8237   0.1422   0.3633     H
H       0.8237   0.8578   0.1367     H
O      0.82671  0.10922  0.51274     O
O      0.82671  0.89078  0.98726     O
O      0.83032   0.0158  0.80166     O
O      0.83032   0.9842  0.69834     O
C       0.8315  0.09925  0.27792     C
C       0.8315  0.90075  0.22208     C
Zn     0.83189      0.0     0.75    Zn
Zn     0.83192  0.14543  0.70088    Zn
Zn     0.83192  0.85457  0.79912    Zn
H       0.8344   0.3831   0.5439     H
H       0.8344   0.6169   0.9561     H
C       0.8346  0.01127  0.09572     C
C       0.8346  0.98873  0.40428     C
H       0.8381   0.1134   0.8386     H
H       0.8381   0.8866   0.6614     H
H       0.8402   0.4932   0.5315     H
H       0.8402   0.5068   0.9685     H
C      0.84388  0.01444  0.67218     C
C      0.84388  0.98556  0.82782     C
O      0.84964  0.07614  0.66866     O
O      0.84964  0.92386  0.83134     O
C      0.85019   0.0924  0.85882     C
C      0.85019   0.9076  0.64118     C
O      0.85098  0.26315  0.53889     O
O      0.85098  0.73685  0.96111     O
Zn     0.85457  0.16808  0.54912    Zn
Zn     0.85457  0.83192  0.95088    Zn
C       0.8558  0.02579   0.8596     C
C       0.8558  0.97421   0.6404     C
C       0.8574  0.05026  0.46496     C
C       0.8574  0.94974  0.03504     C
H       0.8578   0.1763   0.8867     H
H       0.8578   0.8237   0.6133     H
C       0.8597   0.3971  0.52537     C
C       0.8597   0.6029  0.97463     C
C      0.86205  0.13015  0.88735     C
C      0.86205  0.86985  0.61265     C
C       0.8629   0.4625  0.51802     C
C       0.8629   0.5375  0.98198     C
C      0.86365  0.10723  0.30212     C
C      0.86365  0.89277  0.19788     C
H       0.8646   0.0758   0.2148     H
H       0.8646   0.9242   0.2852     H
C      0.86985  0.13795  0.36265     C
C      0.86985  0.86205  0.13735     C
C       0.8738   0.0867  0.49735     C
C       0.8738   0.9133  0.00265     C
C      0.87409  0.00774  0.61093     C
C      0.87409  0.99226  0.88907     C
H       0.8783   0.0539   0.6107     H
H       0.8783   0.9461   0.8893     H
C      0.88077   0.0974  0.91751     C
C      0.88077   0.9026  0.58249     C
C      0.88593   0.0296  0.91808     C
C      0.88593   0.9704  0.58192     C
H       0.8866   0.1619   0.4114     H
H       0.8866   0.8381   0.0886     H
C       0.8895   0.2777  0.51641     C
C       0.8895   0.7223  0.98359     C
O      0.89078  0.17329  0.73726     O
O      0.89078  0.82671  0.76274     O
C      0.89244    0.351  0.50626     C
C      0.89244    0.649  0.99374     C
C      0.89277  0.13635  0.94788     C
C      0.89277  0.86365  0.55212     C
H       0.8957   0.2963   0.9763     H
H       0.8957   0.7037   0.5237     H
H       0.8976   0.0082   0.9382     H
H       0.8976   0.9918   0.5618     H
C       0.8979  0.01224  0.08275     C
C       0.8979  0.98776  0.41725     C
C        0.899   0.4833  0.49131     C
C        0.899   0.5167  0.00869     C
C      0.90075   0.1685  0.97208     C
C      0.90075   0.8315  0.52792     C
C       0.9026  0.11923  0.33249     C
C       0.9026  0.88077  0.16751     C
C        0.906   0.2784  0.99756     C
C        0.906   0.7216  0.50244     C
O      0.90674   0.0692  0.74296     O
O      0.90674   0.9308  0.75704     O
C       0.9075    0.444   0.0169     C
C       0.9075    0.556   0.4831     C
C       0.9076  0.14981  0.39118     C
C       0.9076  0.85019  0.10882     C
C      0.90924  0.01694  0.44755     C
C      0.90924  0.98306  0.05245     C
C       0.9094   0.3848  0.02107     C
C       0.9094   0.6152  0.47893     C
C      0.91096   0.2107  0.00092     C
C      0.91096   0.7893  0.49908     C
C       0.9133   0.1262  0.75265     C
C       0.9133   0.8738  0.74735     C
C       0.9157   0.3204  0.02445     C
C       0.9157   0.6796  0.47555     C
C      0.92264  0.18149  0.03263     C
C      0.92264  0.81851  0.46737     C
O      0.92386  0.15036  0.58134     O
O      0.92386  0.84964  0.91866     O
H       0.9242   0.1354   0.0352     H
H       0.9242   0.8646   0.4648     H
C       0.9283   0.3717  0.47802     C
C       0.9283   0.6283  0.02198     C
C      0.92834   0.2922   0.0573     C
C      0.92834   0.7078   0.4427     C
O       0.9285  0.23936  0.49992     O
O       0.9285  0.76064    8e-05     O
O       0.9308  0.09326  0.50704     O
O       0.9308  0.90674  0.99296     O
C      0.93183   0.2243  0.06033     C
C      0.93183   0.7757  0.43967     C
H       0.9324   0.0327   0.0947     H
H       0.9324   0.9673   0.4053     H
H       0.9341   0.3195   0.0763     H
C       0.9341   0.4348  0.47098     C
C       0.9341   0.5652  0.02902     C
H       0.9341   0.6805   0.4237     H
H       0.9354   0.2396   0.7857     H
H       0.9354   0.7604   0.7143     H
H       0.9461   0.1217   0.6393     H
H       0.9461   0.8783   0.8607     H
C       0.9482  0.19707  0.09345     C
C       0.9482  0.80293  0.40655     C
H       0.9484   0.3402    0.464     H
H       0.9484   0.6598    0.036     H
C      0.94974   0.1426  0.78504     C
C      0.94974   0.8574  0.71496     C
H       0.9516   0.0152   0.4571     H
H       0.9516   0.9848   0.0429     H
C      0.95336   0.2042  0.79799     C
C      0.95336   0.7958  0.70201     C
H       0.9608   0.4486   0.4529     H
H       0.9608   0.5514   0.0471     H
C      0.96387  0.18147  0.12054     C
C      0.96387  0.81853  0.37946     C
H       0.9673   0.0676   0.1553     H
H       0.9673   0.9324   0.3447     H
C       0.9704  0.11407  0.33192     C
C       0.9704  0.88593  0.16808     C
C      0.97421   0.1442   0.3904     C
C      0.97421   0.8558   0.1096     C
C       0.9824   0.2163  0.82837     C
C       0.9824   0.7837  0.67163     C
H       0.9825   0.2592   0.8374     H
H       0.9825   0.7408   0.6626     H
C      0.98306  0.09076  0.80245     C
C      0.98306  0.90924  0.69755     C
O       0.9842  0.16968  0.44834     O
O       0.9842  0.83032  0.05166     O
H       0.9848   0.0484   0.7929     H
H       0.9848   0.9516   0.7071     H
C      0.98556  0.15612  0.57782     C
C      0.98556  0.84388  0.92218     C
C      0.98776   0.1021  0.16725     C
C      0.98776   0.8979  0.33275     C
C      0.98873   0.1654  0.15428     C
C      0.98873   0.8346  0.34572     C
H       0.9918   0.1024   0.3118     H
H       0.9918   0.8976   0.1882     H
C      0.99226  0.12591  0.63907     C
C      0.99226  0.87409  0.86093     C
