data_I
_chemical_name_common  '/home/zhangsd/repos/MofS-CGCNN/ML/data/TSD/clean_cifs/ZASJAG_clean'
_cell_length_a  7.54400
_cell_length_b 14.72970
_cell_length_c 14.72970
_cell_angle_alpha 116.91600
_cell_angle_beta  104.42800
_cell_angle_gamma 75.57210
_space_group_name_H-M_alt      'P 1'


loop_
_space_group_symop_operation_xyz
  'x, y, z' 

loop_
_atom_site_label
_atom_site_fract_x
_atom_site_fract_y
_atom_site_fract_z
_atom_site_type_symbol
C       0.0095   0.4699   0.7961     C
C       0.0266   0.1949   0.9177     C
C       0.0281   0.6109   0.9655     C
H        0.031   0.2894   0.6322     H
C        0.032   0.9445   0.3367     C
H        0.033    0.055   0.8018     H
O       0.0533   0.8459   0.9127     O
H       0.0585   0.8732   0.3018     H
H       0.0771   0.3245   0.0489     H
C       0.0824   0.0916   0.8702     C
O       0.0827   0.7685   0.1147     O
C       0.0863    0.095   0.4934     C
C       0.1085   0.2531   0.0181     C
C       0.1198   0.9898   0.4356     C
C       0.1202   0.2497   0.6613     C
C        0.141   0.4051   0.8331     C
C       0.1627   0.5451   0.0039     C
C       0.1729   0.1464   0.6022     C
C       0.1994   0.2948   0.7642     C
H       0.2042   0.9487   0.4649     H
H       0.2141   0.5697   0.0733     H
C       0.2151    0.039    0.924     C
C       0.2168   0.4453   0.9381     C
C       0.2418    0.199   0.0714     C
H       0.2498   0.9679   0.8913     H
Cd     0.25157  0.86738   0.0811    Cd
C       0.2928   0.0922    0.024     C
H       0.2955   0.2355   0.1389     H
H       0.2967   0.6922    0.863     H
C       0.3028   0.0909   0.6499     C
O       0.3057   0.9858   0.2392     O
H       0.3063   0.4028   0.9638     H
N       0.3269   0.2385   0.8093     N
H       0.3378   0.0205   0.6129     H
H       0.3614   0.1611   0.3847     H
C       0.3794   0.6597   0.9019     C
C       0.3816   0.1383   0.7515     C
N       0.4116   0.7124   0.0036     N
H       0.4376   0.5243   0.7783     H
C       0.4435   0.0373   0.0779     C
C       0.4522    0.136    0.427     C
O       0.4578   0.9393   0.0405     O
H       0.4587   0.2735   0.5543     H
C        0.464   0.5575   0.8497     C
C       0.4643    0.963   0.2794     C
C       0.5095   0.2039   0.5301     C
C       0.5266   0.0823   0.8051     C
C       0.5281   0.0345   0.3891     C
H        0.531   0.3678   0.7106     H
C        0.532   0.6633   0.0555     C
H        0.533   0.1982    0.945     H
O       0.5533   0.0873   0.1541     O
H       0.5585   0.6982   0.1268     H
H       0.5771   0.9511   0.6755     H
C       0.5824   0.1298   0.9084     C
O       0.5827   0.8853   0.2315     O
C       0.5863   0.5066    0.905     C
C       0.6085   0.9819   0.7469     C
C       0.6198   0.5644   0.0102     C
C       0.6202   0.3387   0.7503     C
C        0.641   0.1669   0.5949     C
C       0.6627   0.9961   0.4549     C
C       0.6729   0.3978   0.8536     C
C       0.6994   0.2358   0.7052     C
H       0.7042   0.5351   0.0513     H
H       0.7141   0.9267   0.4303     H
C       0.7151    0.076    0.961     C
C       0.7168   0.0619   0.5547     C
C       0.7418   0.9286    0.801     C
H       0.7498   0.1087   0.0321     H
Cd     0.75157   0.9189  0.13262    Cd
C       0.7928    0.976   0.9078     C
H       0.7955   0.8611   0.7645     H
H       0.7967    0.137   0.3078     H
C       0.8028   0.3501   0.9091     C
O       0.8057   0.7608   0.0142     O
H       0.8063   0.0362   0.5972     H
N       0.8269   0.1907   0.7615     N
H       0.8378   0.3871   0.9795     H
H       0.8614   0.6153   0.8389     H
C       0.8794   0.0981   0.3403     C
C       0.8816   0.2485   0.8617     C
N       0.9116   0.9964   0.2876     N
H       0.9376   0.2217   0.4757     H
C       0.9435   0.9221   0.9627     C
C       0.9522    0.573    0.864     C
O       0.9578   0.9595   0.0607     O
H       0.9587   0.4457   0.7265     H
C        0.964   0.1503   0.4425     C
C       0.9643   0.7206    0.037     C
