data_I
_chemical_name_common  '/home/zhangsd/repos/MofS-CGCNN/ML/data/TSD/clean_cifs/ZASTUK_clean'
_cell_length_a  9.53160
_cell_length_b 12.82670
_cell_length_c 15.85370
_cell_angle_alpha 66.13810
_cell_angle_beta  89.11590
_cell_angle_gamma 87.81410
_space_group_name_H-M_alt      'P 1'


loop_
_space_group_symop_operation_xyz
  'x, y, z' 

loop_
_atom_site_label
_atom_site_fract_x
_atom_site_fract_y
_atom_site_fract_z
_atom_site_type_symbol
Mn         0.0      0.5      0.0    Mn
H       0.0067   0.8095   0.2248     H
C       0.0168  0.85302  0.16196     C
C       0.0272  0.62091  0.59038     C
C       0.0342  0.46453  0.54074     C
C       0.0432  0.31048  0.49204     C
C       0.0479  0.98198  0.97364     C
C       0.0482  0.49723  0.80954     C
H        0.049   0.6508    0.633     H
C       0.0622  0.04813  0.87854     C
C       0.0632  0.51043  0.60734     C
H        0.069   0.2355   0.5026     H
C       0.0745  0.35021  0.55658     C
O      0.07735  0.50401  0.21214     O
O      0.09219  0.51931  0.87378     O
H        0.108    0.272   0.9642     H
C       0.1117  0.81574  0.11172     C
H       0.1215   0.3034   0.6104     H
O       0.1238  0.43319  0.68636     O
H       0.1248   0.0248   0.8436     H
O      0.12811  0.63679  0.00402     O
C        0.129    0.879   0.0195     C
H       0.1508   0.1799   0.0616     H
H       0.1634   0.7478    0.141     H
C       0.1636  0.46977  0.75526     C
O      0.16903  0.36881  0.07426     O
C       0.1869  0.23818  0.00544     C
O      0.21805  0.85105  0.96334     O
H       0.2186   0.5373    0.726     H
H       0.2248   0.4109   0.7984     H
C       0.2488  0.64138  0.02896     C
Mn        0.25   0.4062   0.1876    Mn
C       0.2512  0.32966  0.02896     C
H       0.2752   0.7907   0.7984     H
H       0.2814   0.7367    0.726     H
O      0.28195  0.18561  0.96334     O
C       0.3131  0.75638  0.00544     C
O      0.33097  0.55693  0.07426     O
C       0.3364  0.77497  0.75526     C
H       0.3366   0.1112    0.141     H
H       0.3492   0.7585   0.0616     H
C        0.371   0.1015   0.0195     C
O      0.37189  0.35919  0.00402     O
H       0.3752   0.1316   0.8436     H
O       0.3762  0.88045  0.68636     O
H       0.3785   0.0862   0.6104     H
C       0.3883  0.07254  0.11172     C
H        0.392   0.7638   0.9642     H
O      0.40781  0.60691  0.87378     O
O      0.42265  0.28385  0.21214     O
C       0.4255  0.09321  0.55658     C
H        0.431   0.2619   0.5026     H
C       0.4368  0.88223  0.60734     C
C       0.4378  0.07333  0.87854     C
H        0.451   0.7162    0.633     H
C       0.4518  0.69323  0.80954     C
C       0.4521  0.04438  0.97364     C
C       0.4568  0.19748  0.49204     C
C       0.4658  0.99473  0.54074     C
C       0.4728  0.78871  0.59038     C
C       0.4832  0.98502  0.16196     C
H       0.4933   0.9657   0.2248     H
Mn         0.5      0.5      0.0    Mn
H       0.5067   0.0343   0.7752     H
C       0.5168  0.01498  0.83804     C
C       0.5272  0.21129  0.40962     C
C       0.5342  0.00527  0.45926     C
C       0.5432  0.80252  0.50796     C
C       0.5479  0.95562  0.02636     C
C       0.5482  0.30677  0.19046     C
H        0.549   0.2838    0.367     H
C       0.5622  0.92667  0.12146     C
C       0.5632  0.11777  0.39266     C
H        0.569   0.7381   0.4974     H
C       0.5745  0.90679  0.44342     C
O      0.57735  0.71615  0.78786     O
O      0.59219  0.39309  0.12622     O
H        0.608   0.2362   0.0358     H
C       0.6117  0.92746  0.88828     C
H       0.6215   0.9138   0.3896     H
O       0.6238  0.11955  0.31364     O
H       0.6248   0.8684   0.1564     H
O      0.62811  0.64081  0.99598     O
C        0.629   0.8985   0.9805     C
H       0.6508   0.2415   0.9384     H
H       0.6634   0.8888    0.859     H
C       0.6636  0.22503  0.24474     C
O      0.66903  0.44307  0.92574     O
C       0.6869  0.24362  0.99456     C
O      0.71805  0.81439  0.03666     O
H       0.7186   0.2633    0.274     H
H       0.7248   0.2093   0.2016     H
C       0.7488  0.67034  0.97104     C
Mn        0.75   0.5938   0.8124    Mn
C       0.7512  0.35862  0.97104     C
H       0.7752   0.5891   0.2016     H
H       0.7814   0.4627    0.274     H
O      0.78195  0.14895  0.03666     O
C       0.8131  0.76182  0.99456     C
O      0.83097  0.63119  0.92574     O
C       0.8364  0.53023  0.24474     C
H       0.8366   0.2522    0.859     H
H       0.8492   0.8201   0.9384     H
C        0.871    0.121   0.9805     C
O      0.87189  0.36321  0.99598     O
H       0.8752   0.9752   0.1564     H
O       0.8762  0.56681  0.31364     O
H       0.8785   0.6966   0.3896     H
C       0.8883  0.18426  0.88828     C
H        0.892    0.728   0.0358     H
O      0.90781  0.48069  0.12622     O
O      0.92265  0.49599  0.78786     O
C       0.9255  0.64979  0.44342     C
H        0.931   0.7645   0.4974     H
C       0.9368  0.48957  0.39266     C
C       0.9378  0.95187  0.12146     C
H        0.951   0.3492    0.367     H
C       0.9518  0.50277  0.19046     C
C       0.9521  0.01802  0.02636     C
C       0.9568  0.68952  0.50796     C
C       0.9658  0.53547  0.45926     C
C       0.9728  0.37909  0.40962     C
C       0.9832  0.14698  0.83804     C
H       0.9933   0.1905   0.7752     H
