data_I
_chemical_name_common  '/home/zhangsd/repos/MofS-CGCNN/ML/data/TSD/clean_cifs/ZAVQIY_clean'
_cell_length_a 23.56190
_cell_length_b 15.67140
_cell_length_c 16.11580
_cell_angle_alpha 90.00000
_cell_angle_beta  124.23800
_cell_angle_gamma 90.00000
_space_group_name_H-M_alt      'P 1'


loop_
_space_group_symop_operation_xyz
  'x, y, z' 

loop_
_atom_site_label
_atom_site_fract_x
_atom_site_fract_y
_atom_site_fract_z
_atom_site_type_symbol
O      0.00242   0.3422   0.1374     O
O      0.00242   0.6578   0.6374     O
H       0.0048   0.4995   0.3993     H
H       0.0048   0.5005   0.8993     H
C       0.0186   0.3087   0.0733     C
C       0.0186   0.6913   0.5733     C
C       0.0215   0.2387   0.5823     C
C       0.0215   0.7613   0.0823     C
C       0.0333   0.4878    0.167     C
C       0.0333   0.5122    0.667     C
C       0.0343   0.2723   0.5142     C
C       0.0343   0.7277   0.0142     C
C       0.0444   0.2414   0.9388     C
C       0.0444   0.7586   0.4388     C
C       0.0464   0.4053   0.2021     C
C       0.0464   0.5947   0.7021     C
H        0.053   0.2197   0.8918     H
H        0.053   0.7803   0.3918     H
H        0.066   0.3894    0.702     H
H        0.066   0.6106    0.202     H
O      0.06901  0.17856   0.7444     O
O      0.06901  0.82144   0.2444     O
C       0.0752    0.446   0.7275     C
C       0.0752    0.554   0.2275     C
H       0.0792   0.2701   0.5281     H
H       0.0792   0.7299   0.0281     H
C         0.08    0.203   0.6795     C
C         0.08    0.797   0.1795     C
C       0.0848   0.3108   0.0959     C
C       0.0848   0.6892   0.5959     C
O       0.0944   0.2424    0.288     O
O       0.0944   0.7576    0.788     O
C       0.0975   0.2759   0.0289     C
C       0.0975   0.7241   0.5289     C
C       0.1008   0.3896   0.3009     C
C       0.1008   0.6104   0.8009     C
N       0.1168   0.3038   0.3438     N
N       0.1168   0.6962   0.8438     N
H        0.121    0.336   0.1566     H
H        0.121    0.664   0.6566     H
C       0.1307   0.4617   0.8252     C
C       0.1307   0.5383   0.3252     C
O      0.13855   0.1999   0.6959     O
O      0.13855   0.8001   0.1959     O
C       0.1423   0.4556   0.3619     C
C       0.1423   0.5444   0.8619     C
O       0.1526   0.2974   0.4358     O
O       0.1526   0.7026   0.9358     O
C       0.1703   0.2766   0.0579     C
C       0.1703   0.7234   0.5579     C
O      0.17049  0.32157   0.8451     O
O      0.17049  0.67843   0.3451     O
C       0.1785   0.3906    0.889     C
C       0.1785   0.6094    0.389     C
H       0.1789   0.4443   0.4293     H
H       0.1789   0.5557   0.9293     H
O      0.18544  0.23732   0.0045     O
O      0.18544  0.76268   0.5045     O
Gd      0.1897  0.17213  0.87776    Gd
Gd      0.1897  0.82787  0.37776    Gd
O       0.2141   0.3164   0.1353     O
O       0.2141   0.6836   0.6353     O
O      0.22179  0.40648   0.9804     O
O      0.22179  0.59352   0.4804     O
O      0.27821  0.09352   0.0196     O
O      0.27821  0.90648   0.5196     O
O       0.2859   0.1836   0.8647     O
O       0.2859   0.8164   0.3647     O
Gd      0.3103  0.32787  0.12224    Gd
Gd      0.3103  0.67213  0.62224    Gd
O      0.31456  0.26268   0.9955     O
O      0.31456  0.73732   0.4955     O
H       0.3211   0.0557   0.5707     H
H       0.3211   0.9443   0.0707     H
C       0.3215   0.1094    0.111     C
C       0.3215   0.8906    0.611     C
O      0.32951  0.17843   0.1549     O
O      0.32951  0.82157   0.6549     O
C       0.3297   0.2234   0.9421     C
C       0.3297   0.7766   0.4421     C
O       0.3474   0.2026   0.5642     O
O       0.3474   0.7974   0.0642     O
C       0.3577   0.0444   0.6381     C
C       0.3577   0.9556   0.1381     C
O      0.36145   0.3001   0.3041     O
O      0.36145   0.6999   0.8041     O
C       0.3693   0.0383   0.1748     C
C       0.3693   0.9617   0.6748     C
H        0.379    0.164   0.8434     H
H        0.379    0.836   0.3434     H
N       0.3832   0.1962   0.6562     N
N       0.3832   0.8038   0.1562     N
C       0.3992   0.1104   0.6991     C
C       0.3992   0.8896   0.1991     C
C       0.4025   0.2241   0.9711     C
C       0.4025   0.7759   0.4711     C
O       0.4056   0.2576    0.712     O
O       0.4056   0.7424    0.212     O
C       0.4152   0.1892   0.9041     C
C       0.4152   0.8108   0.4041     C
C         0.42    0.297   0.3205     C
C         0.42    0.703   0.8205     C
H       0.4208   0.2299   0.4719     H
H       0.4208   0.7701   0.9719     H
C       0.4248    0.054   0.2725     C
C       0.4248    0.946   0.7725     C
O      0.43099  0.32144   0.2556     O
O      0.43099  0.67856   0.7556     O
H        0.434   0.1106    0.298     H
H        0.434   0.8894    0.798     H
H        0.447   0.2803   0.1082     H
H        0.447   0.7197   0.6082     H
C       0.4536   0.0947   0.7979     C
C       0.4536   0.9053   0.2979     C
C       0.4556   0.2586   0.0612     C
C       0.4556   0.7414   0.5612     C
C       0.4657   0.2277   0.4858     C
C       0.4657   0.7723   0.9858     C
C       0.4667   0.0122    0.833     C
C       0.4667   0.9878    0.333     C
C       0.4785   0.2613   0.4177     C
C       0.4785   0.7387   0.9177     C
C       0.4814   0.1913   0.9267     C
C       0.4814   0.8087   0.4267     C
H       0.4952   0.0005   0.6007     H
H       0.4952   0.9995   0.1007     H
O      0.49758   0.1578   0.8626     O
O      0.49758   0.8422   0.3626     O
O      0.50242   0.1578   0.6374     O
O      0.50242   0.8422   0.1374     O
H       0.5048   0.0005   0.8993     H
H       0.5048   0.9995   0.3993     H
C       0.5186   0.1913   0.5733     C
C       0.5186   0.8087   0.0733     C
C       0.5215   0.2613   0.0823     C
C       0.5215   0.7387   0.5823     C
C       0.5333   0.0122    0.667     C
C       0.5333   0.9878    0.167     C
C       0.5343   0.2277   0.0142     C
C       0.5343   0.7723   0.5142     C
C       0.5444   0.2586   0.4388     C
C       0.5444   0.7414   0.9388     C
C       0.5464   0.0947   0.7021     C
C       0.5464   0.9053   0.2021     C
H        0.553   0.2803   0.3918     H
H        0.553   0.7197   0.8918     H
H        0.566   0.1106    0.202     H
H        0.566   0.8894    0.702     H
O      0.56901  0.32144   0.2444     O
O      0.56901  0.67856   0.7444     O
C       0.5752    0.054   0.2275     C
C       0.5752    0.946   0.7275     C
H       0.5792   0.2299   0.0281     H
H       0.5792   0.7701   0.5281     H
C         0.58    0.297   0.1795     C
C         0.58    0.703   0.6795     C
C       0.5848   0.1892   0.5959     C
C       0.5848   0.8108   0.0959     C
O       0.5944   0.2576    0.788     O
O       0.5944   0.7424    0.288     O
C       0.5975   0.2241   0.5289     C
C       0.5975   0.7759   0.0289     C
C       0.6008   0.1104   0.8009     C
C       0.6008   0.8896   0.3009     C
N       0.6168   0.1962   0.8438     N
N       0.6168   0.8038   0.3438     N
H        0.621    0.164   0.6566     H
H        0.621    0.836   0.1566     H
C       0.6307   0.0383   0.3252     C
C       0.6307   0.9617   0.8252     C
O      0.63855   0.3001   0.1959     O
O      0.63855   0.6999   0.6959     O
C       0.6423   0.0444   0.8619     C
C       0.6423   0.9556   0.3619     C
O       0.6526   0.2026   0.9358     O
O       0.6526   0.7974   0.4358     O
C       0.6703   0.2234   0.5579     C
C       0.6703   0.7766   0.0579     C
O      0.67049  0.17843   0.3451     O
O      0.67049  0.82157   0.8451     O
C       0.6785   0.1094    0.389     C
C       0.6785   0.8906    0.889     C
H       0.6789   0.0557   0.9293     H
H       0.6789   0.9443   0.4293     H
O      0.68544  0.26268   0.5045     O
O      0.68544  0.73732   0.0045     O
Gd      0.6897  0.32787  0.37776    Gd
Gd      0.6897  0.67213  0.87776    Gd
O       0.7141   0.1836   0.6353     O
O       0.7141   0.8164   0.1353     O
O      0.72179  0.09352   0.4804     O
O      0.72179  0.90648   0.9804     O
O      0.77821  0.40648   0.5196     O
O      0.77821  0.59352   0.0196     O
O       0.7859   0.3164   0.3647     O
O       0.7859   0.6836   0.8647     O
Gd      0.8103  0.17213  0.62224    Gd
Gd      0.8103  0.82787  0.12224    Gd
O      0.81456  0.23732   0.4955     O
O      0.81456  0.76268   0.9955     O
H       0.8211   0.4443   0.0707     H
H       0.8211   0.5557   0.5707     H
C       0.8215   0.3906    0.611     C
C       0.8215   0.6094    0.111     C
O      0.82951  0.32157   0.6549     O
O      0.82951  0.67843   0.1549     O
C       0.8297   0.2766   0.4421     C
C       0.8297   0.7234   0.9421     C
O       0.8474   0.2974   0.0642     O
O       0.8474   0.7026   0.5642     O
C       0.8577   0.4556   0.1381     C
C       0.8577   0.5444   0.6381     C
O      0.86145   0.1999   0.8041     O
O      0.86145   0.8001   0.3041     O
C       0.8693   0.4617   0.6748     C
C       0.8693   0.5383   0.1748     C
H        0.879    0.336   0.3434     H
H        0.879    0.664   0.8434     H
N       0.8832   0.3038   0.1562     N
N       0.8832   0.6962   0.6562     N
C       0.8992   0.3896   0.1991     C
C       0.8992   0.6104   0.6991     C
C       0.9025   0.2759   0.4711     C
C       0.9025   0.7241   0.9711     C
O       0.9056   0.2424    0.212     O
O       0.9056   0.7576    0.712     O
C       0.9152   0.3108   0.4041     C
C       0.9152   0.6892   0.9041     C
C         0.92    0.203   0.8205     C
C         0.92    0.797   0.3205     C
H       0.9208   0.2701   0.9719     H
H       0.9208   0.7299   0.4719     H
C       0.9248    0.446   0.7725     C
C       0.9248    0.554   0.2725     C
O      0.93099  0.17856   0.7556     O
O      0.93099  0.82144   0.2556     O
H        0.934   0.3894    0.798     H
H        0.934   0.6106    0.298     H
H        0.947   0.2197   0.6082     H
H        0.947   0.7803   0.1082     H
C       0.9536   0.4053   0.2979     C
C       0.9536   0.5947   0.7979     C
C       0.9556   0.2414   0.5612     C
C       0.9556   0.7586   0.0612     C
C       0.9657   0.2723   0.9858     C
C       0.9657   0.7277   0.4858     C
C       0.9667   0.4878    0.333     C
C       0.9667   0.5122    0.833     C
C       0.9785   0.2387   0.9177     C
C       0.9785   0.7613   0.4177     C
C       0.9814   0.3087   0.4267     C
C       0.9814   0.6913   0.9267     C
H       0.9952   0.4995   0.1007     H
H       0.9952   0.5005   0.6007     H
O      0.99758   0.3422   0.3626     O
O      0.99758   0.6578   0.8626     O
