data_I
_chemical_name_common  '/home/zhangsd/repos/MofS-CGCNN/ML/data/TSD/clean_cifs/ZEDHIB_clean'
_cell_length_a  9.42720
_cell_length_b 18.66200
_cell_length_c 20.46100
_cell_angle_alpha 90.00000
_cell_angle_beta  90.00000
_cell_angle_gamma 90.00000
_space_group_name_H-M_alt      'P 1'


loop_
_space_group_symop_operation_xyz
  'x, y, z' 

loop_
_atom_site_label
_atom_site_fract_x
_atom_site_fract_y
_atom_site_fract_z
_atom_site_type_symbol
O       0.0019   0.3275   0.9262     O
O       0.0019   0.6725   0.0738     O
H       0.0143   0.0551   0.6279     H
H       0.0143   0.9449   0.3721     H
O        0.016   0.3605    0.381     O
O        0.016   0.6395    0.619     O
C       0.0206   0.4421   0.9735     C
C       0.0206   0.5579   0.0265     C
N       0.0245    0.166    0.509     N
N       0.0245    0.834    0.491     N
H         0.03   0.0277   0.2695     H
H         0.03   0.9723   0.7305     H
C       0.0348   0.3168   0.1739     C
C       0.0348   0.6832   0.8261     C
H       0.0402   0.3658    0.088     H
H       0.0402   0.6342    0.912     H
C       0.0403   0.4572   0.4554     C
C       0.0403   0.5428   0.5446     C
H       0.0441   0.4859   0.7659     H
H       0.0441   0.5141   0.2341     H
O       0.0587   0.1119   0.3606     O
O       0.0587   0.8881   0.6394     O
C       0.0603   0.1107   0.5461     C
C       0.0603   0.8893   0.4539     C
O       0.0893     0.07    0.804     O
O       0.0893     0.93    0.196     O
H       0.1227   0.2191   0.1755     H
H       0.1227   0.7809   0.8245     H
H       0.1367   0.0823   0.5337     H
H       0.1367   0.9177   0.4663     H
C       0.1426   0.4832   0.7667     C
C       0.1426   0.5168   0.2333     C
Zn     0.14399  0.17736  0.42404    Zn
Zn     0.14399  0.82264  0.57596    Zn
O       0.1525  0.21606   0.8637     O
O       0.1525  0.78394   0.1363     O
H       0.1531    0.398   0.8275     H
H       0.1531    0.602   0.1725     H
C       0.1552   0.2668    0.164     C
C       0.1552   0.7332    0.836     C
C       0.1672   0.4421   0.9736     C
C       0.1672   0.5579   0.0264     C
H       0.1749   0.4329    0.293     H
H       0.1749   0.5671    0.707     H
H         0.18    0.286    0.379     H
H         0.18    0.714    0.621     H
C       0.1883   0.4571   0.4556     C
C       0.1883   0.5429   0.5444     C
H       0.1885   0.2326   0.0713     H
H       0.1885   0.7674   0.9287     H
H         0.19   0.2575    0.863     H
H         0.19   0.7425    0.137     H
C       0.2075   0.4304   0.8038     C
C       0.2075   0.5696   0.1962     C
H       0.2165   0.4035   0.9561     H
H       0.2165   0.5965   0.0439     H
C       0.2204   0.4683   0.2689     C
C       0.2204   0.5317   0.7311     C
N       0.2205   0.2625   0.0997     N
N       0.2205   0.7375   0.9003     N
H       0.2288   0.2796    0.195     H
H       0.2288   0.7204    0.805     H
H       0.2349   0.0644   0.7061     H
H       0.2349   0.9356   0.2939     H
H       0.2385   0.4286   0.4264     H
H       0.2385   0.5714   0.5736     H
C       0.2413      0.5      0.0     C
O       0.2415   0.2596   0.3971     O
O       0.2415   0.7404   0.6029     O
Zn     0.24652  0.13447  0.83262    Zn
Zn     0.24652  0.86553  0.16738    Zn
C       0.2591      0.5      0.5     C
O       0.3026   0.1138   0.4501     O
O       0.3026   0.8862   0.5499     O
C       0.3121   0.0943   0.6984     C
C       0.3121   0.9057   0.3016     C
H       0.3271   0.3754   0.1589     H
H       0.3271   0.6246   0.8411     H
O       0.3333   0.0668   0.8945     O
O       0.3333   0.9332   0.1055     O
C       0.3346   0.3065   0.0839     C
C       0.3346   0.6935   0.9161     C
H       0.3399      0.5      0.0     H
H       0.3492      0.0      0.5     H
H        0.353   0.0584   0.6072     H
H        0.353   0.9416   0.3928     H
C       0.3531   0.4264   0.8052     C
C       0.3531   0.5736   0.1948     C
N       0.3542     0.14    0.745     N
N       0.3542     0.86    0.255     N
H       0.3577      0.5      0.5     H
H       0.3667      0.0      0.0     H
O       0.3679   0.3211   0.8706     O
O       0.3679   0.6789   0.1294     O
C       0.3684   0.4726   0.2687     C
C       0.3684   0.5274   0.7313     C
C       0.3762   0.3644   0.1208     C
C       0.3762   0.6356   0.8792     C
C       0.3816   0.0909    0.639     C
C       0.3816   0.9091    0.361     C
H       0.3852   0.2572   0.9996     H
H       0.3852   0.7428   0.0004     H
O       0.3978   0.3698   0.3348     O
O       0.3978   0.6302   0.6652     O
C       0.4127   0.2947   0.0268     C
C       0.4127   0.7053   0.9732     C
C       0.4283   0.3733   0.8483     C
C       0.4283   0.6267   0.1517     C
C       0.4315   0.4751   0.7687     C
C       0.4315   0.5249   0.2313     C
C       0.4358   0.1205   0.4473     C
C       0.4358   0.8795   0.5527     C
C       0.4478      0.0      0.5     C
Zn     0.44865  0.27238  0.38352    Zn
Zn     0.44865  0.72762  0.61648    Zn
C       0.4574   0.4196   0.3054     C
C       0.4574   0.5804   0.6946     C
C       0.4606    0.087   0.9066     C
C       0.4606    0.913   0.0934     C
C       0.4644    0.183   0.7334     C
C       0.4644    0.817   0.2666     C
C       0.4654      0.0      0.0     C
C       0.4874   0.4058   0.1026     C
C       0.4874   0.5942   0.8974     C
C       0.4927    0.136   0.6279     C
C       0.4927    0.864   0.3721     C
H        0.495   0.2138   0.7663     H
H        0.495   0.7862   0.2337     H
O       0.5019   0.1725   0.4262     O
O       0.5019   0.8275   0.5738     O
H       0.5143   0.4449   0.1279     H
H       0.5143   0.5551   0.8721     H
O        0.516   0.1395    0.881     O
O        0.516   0.8605    0.119     O
C       0.5206   0.0579   0.4735     C
C       0.5206   0.9421   0.5265     C
N       0.5245    0.334    0.009     N
N       0.5245    0.666    0.991     N
H         0.53   0.4723   0.7695     H
H         0.53   0.5277   0.2305     H
C       0.5348   0.1832   0.6739     C
C       0.5348   0.8168   0.3261     C
H       0.5402   0.1342    0.588     H
H       0.5402   0.8658    0.412     H
C       0.5403   0.0428   0.9554     C
C       0.5403   0.9572   0.0446     C
H       0.5441   0.0141   0.2659     H
H       0.5441   0.9859   0.7341     H
O       0.5587   0.3881   0.8606     O
O       0.5587   0.6119   0.1394     O
C       0.5603   0.3893   0.0461     C
C       0.5603   0.6107   0.9539     C
O       0.5893     0.43    0.304     O
O       0.5893     0.57    0.696     O
H       0.6227   0.2809   0.6755     H
H       0.6227   0.7191   0.3245     H
H       0.6367   0.4177   0.0337     H
H       0.6367   0.5823   0.9663     H
C       0.6426   0.0168   0.2667     C
C       0.6426   0.9832   0.7333     C
Zn     0.64399  0.32264  0.92404    Zn
Zn     0.64399  0.67736  0.07596    Zn
O       0.6525  0.28394   0.3637     O
O       0.6525  0.71606   0.6363     O
H       0.6531    0.102   0.3275     H
H       0.6531    0.898   0.6725     H
C       0.6552   0.2332    0.664     C
C       0.6552   0.7668    0.336     C
C       0.6672   0.0579   0.4736     C
C       0.6672   0.9421   0.5264     C
H       0.6749   0.0671    0.793     H
H       0.6749   0.9329    0.207     H
H         0.68    0.214    0.879     H
H         0.68    0.786    0.121     H
C       0.6883   0.0429   0.9556     C
C       0.6883   0.9571   0.0444     C
H       0.6885   0.2674   0.5713     H
H       0.6885   0.7326   0.4287     H
H         0.69   0.2425    0.363     H
H         0.69   0.7575    0.637     H
C       0.7075   0.0696   0.3038     C
C       0.7075   0.9304   0.6962     C
H       0.7165   0.0965   0.4561     H
H       0.7165   0.9035   0.5439     H
C       0.7204   0.0317   0.7689     C
C       0.7204   0.9683   0.2311     C
N       0.7205   0.2375   0.5997     N
N       0.7205   0.7625   0.4003     N
H       0.7288   0.2204    0.695     H
H       0.7288   0.7796    0.305     H
H       0.7349   0.4356   0.2061     H
H       0.7349   0.5644   0.7939     H
H       0.7385   0.0714   0.9264     H
H       0.7385   0.9286   0.0736     H
C       0.7413      0.0      0.5     C
O       0.7415   0.2404   0.8971     O
O       0.7415   0.7596   0.1029     O
Zn     0.74652  0.36553  0.33262    Zn
Zn     0.74652  0.63447  0.66738    Zn
C       0.7591      0.0      0.0     C
O       0.8026   0.3862   0.9501     O
O       0.8026   0.6138   0.0499     O
C       0.8121   0.4057   0.1984     C
C       0.8121   0.5943   0.8016     C
H       0.8271   0.1246   0.6589     H
H       0.8271   0.8754   0.3411     H
O       0.8333   0.4332   0.3945     O
O       0.8333   0.5668   0.6055     O
C       0.8346   0.1935   0.5839     C
C       0.8346   0.8065   0.4161     C
H       0.8399      0.0      0.5     H
H       0.8492      0.5      0.0     H
H        0.853   0.4416   0.1072     H
H        0.853   0.5584   0.8928     H
C       0.8531   0.0736   0.3052     C
C       0.8531   0.9264   0.6948     C
N       0.8542     0.36    0.245     N
N       0.8542     0.64    0.755     N
H       0.8577      0.0      0.0     H
H       0.8667      0.5      0.5     H
O       0.8679   0.1789   0.3706     O
O       0.8679   0.8211   0.6294     O
C       0.8684   0.0274   0.7687     C
C       0.8684   0.9726   0.2313     C
C       0.8762   0.1356   0.6208     C
C       0.8762   0.8644   0.3792     C
C       0.8816   0.4091    0.139     C
C       0.8816   0.5909    0.861     C
H       0.8852   0.2428   0.4996     H
H       0.8852   0.7572   0.5004     H
O       0.8978   0.1302   0.8348     O
O       0.8978   0.8698   0.1652     O
C       0.9127   0.2053   0.5268     C
C       0.9127   0.7947   0.4732     C
C       0.9283   0.1267   0.3483     C
C       0.9283   0.8733   0.6517     C
C       0.9315   0.0249   0.2687     C
C       0.9315   0.9751   0.7313     C
C       0.9358   0.3795   0.9473     C
C       0.9358   0.6205   0.0527     C
C       0.9478      0.5      0.0     C
Zn     0.94865  0.22762  0.88352    Zn
Zn     0.94865  0.77238  0.11648    Zn
C       0.9574   0.0804   0.8054     C
C       0.9574   0.9196   0.1946     C
C       0.9606    0.413   0.4066     C
C       0.9606    0.587   0.5934     C
C       0.9644    0.317   0.2334     C
C       0.9644    0.683   0.7666     C
C       0.9654      0.5      0.5     C
C       0.9874   0.0942   0.6026     C
C       0.9874   0.9058   0.3974     C
C       0.9927    0.364   0.1279     C
C       0.9927    0.636   0.8721     C
H        0.995   0.2862   0.2663     H
H        0.995   0.7138   0.7337     H
