data_I
_chemical_name_common  '/home/zhangsd/repos/MofS-CGCNN/ML/data/TSD/clean_cifs/ZEDLOL_clean'
_cell_length_a  9.86330
_cell_length_b 16.44090
_cell_length_c 18.21870
_cell_angle_alpha 90.00000
_cell_angle_beta  94.19700
_cell_angle_gamma 90.00000
_space_group_name_H-M_alt      'P 1'


loop_
_space_group_symop_operation_xyz
  'x, y, z' 

loop_
_atom_site_label
_atom_site_fract_x
_atom_site_fract_y
_atom_site_fract_z
_atom_site_type_symbol
O       0.0081   0.2781   0.4806     O
O       0.0081   0.7219   0.9806     O
O       0.0438   0.3586   0.1116     O
O       0.0438   0.6414   0.6116     O
C       0.0496   0.2905   0.0799     C
C       0.0496   0.7095   0.5799     C
C        0.088    0.152    0.099     C
C        0.088    0.848    0.599     C
O       0.0978   0.4605   0.9538     O
O       0.0978   0.5395   0.4538     O
Cd     0.10043  0.40827  0.49601    Cd
Cd     0.10043  0.59173  0.99601    Cd
H       0.1084    0.343    0.863     H
H       0.1084    0.657    0.363     H
H       0.1278   0.2632    0.221     H
H       0.1278   0.7368    0.721     H
C       0.1314   0.2245   0.1178     C
C       0.1314   0.7755   0.6178     C
C       0.1581   0.2212   0.1922     C
C       0.1581   0.7788   0.6922     C
H       0.1647   0.4853   0.6653     H
H       0.1647   0.5147   0.1653     H
C        0.181   0.0708    0.123     C
C        0.181   0.9292    0.623     C
N       0.1836    0.382   0.6126     N
N       0.1836    0.618   0.1126     N
C        0.191   0.3215   0.8819     C
C        0.191   0.6785   0.3819     C
C       0.1952   0.1701   0.0767     C
C       0.1952   0.8299   0.5767     C
H       0.2051   0.2261   0.8072     H
H       0.2051   0.7739   0.3072     H
C       0.2117   0.4365   0.6625     C
C       0.2117   0.5635   0.1625     C
C       0.2127   0.4308   0.9769     C
C       0.2127   0.5692   0.4769     C
C       0.2279   0.1579   0.2255     C
C       0.2279   0.8421   0.7255     C
H       0.2298   0.2581   0.3834     H
H       0.2298   0.7419   0.8834     H
H       0.2426   0.1571   0.2765     H
H       0.2426   0.8429   0.7765     H
C        0.249    0.252   0.8477     C
C        0.249    0.748   0.3477     C
C       0.2577   0.3546   0.9413     C
C       0.2577   0.6454   0.4413     C
C       0.2721   0.3197   0.6285     C
C       0.2721   0.6803   0.1285     C
H        0.274   0.2712   0.6025     H
H        0.274   0.7288   0.1025     H
C       0.2748   0.0982   0.1867     C
C       0.2748   0.9018   0.6867     C
C       0.2749   0.1058    0.114     C
C       0.2749   0.8942    0.614     C
N         0.28   0.3685    0.428     N
N         0.28   0.6315    0.928     N
C       0.2864   0.3033    0.383     C
C       0.2864   0.6967    0.883     C
O       0.2894   0.4651   0.0245     O
O       0.2894   0.5349   0.5245     O
H       0.3068   0.4985   0.2857     H
H       0.3068   0.5015   0.7857     H
H        0.311   0.0997   0.8011     H
H        0.311   0.9003   0.3011     H
N       0.3148   0.4153   0.7092     N
N       0.3148   0.5847   0.2092     N
O       0.3418   0.0363   0.2279     O
O       0.3418   0.9637   0.7279     O
C       0.3543   0.3386   0.6861     C
C       0.3543   0.6614   0.1861     C
H       0.3567   0.1717   0.7512     H
H       0.3567   0.8283   0.2512     H
H       0.3698   0.0502   0.6572     H
H       0.3698   0.9498   0.1572     H
C       0.3758   0.4651   0.7693     C
C       0.3758   0.5349   0.2693     C
C       0.3759   0.4186   0.4078     C
C       0.3759   0.5814   0.9078     C
C       0.3784   0.2251   0.8796     C
C       0.3784   0.7749   0.3796     C
C         0.38   0.3184   0.9691     C
C         0.38   0.6816   0.4691     C
H       0.3856   0.3913   0.1977     H
H       0.3856   0.6087   0.6977     H
C       0.3883   0.3137   0.3369     C
C       0.3883   0.6863   0.8369     C
C       0.3886   0.1304   0.7864     C
C       0.3886   0.8696   0.2864     C
H       0.3951    0.469   0.4293     H
H       0.3951    0.531   0.9293     H
H       0.4039   0.4296   0.8101     H
H       0.4039   0.5704   0.3101     H
H       0.4043   0.4656   0.1459     H
H       0.4043   0.5344   0.6459     H
H       0.4151   0.2771   0.3019     H
H       0.4151   0.7229   0.8019     H
H       0.4218   0.3391   0.0125     H
H       0.4218   0.6609   0.5125     H
C       0.4244   0.0164   0.6916     C
C       0.4244   0.9836   0.1916     C
H        0.425   0.3069   0.7072     H
H        0.425   0.6931   0.2072     H
C       0.4394   0.2569   0.9376     C
C       0.4394   0.7431   0.4376     C
N       0.4417   0.3872   0.3523     N
N       0.4417   0.6128   0.8523     N
C        0.451   0.4306   0.1824     C
C        0.451   0.5694   0.6824     C
O       0.4545   0.1642   0.8443     O
O       0.4545   0.8358   0.3443     O
H        0.477   0.2372   0.5432     H
H        0.477   0.7628   0.0432     H
H       0.4885    0.014   0.1644     H
H       0.4885    0.986   0.6644     H
C          0.5   0.0691     0.75     C
C          0.5   0.4833     0.25     C
C          0.5   0.5167     0.75     C
C          0.5   0.9309     0.25     C
H       0.5115    0.014   0.3356     H
H       0.5115    0.986   0.8356     H
H        0.523   0.2372   0.9568     H
H        0.523   0.7628   0.4568     H
O       0.5455   0.1642   0.6557     O
O       0.5455   0.8358   0.1557     O
C        0.549   0.4306   0.3176     C
C        0.549   0.5694   0.8176     C
N       0.5583   0.3872   0.1477     N
N       0.5583   0.6128   0.6477     N
C       0.5606   0.2569   0.5624     C
C       0.5606   0.7431   0.0624     C
H        0.575   0.3069   0.7928     H
H        0.575   0.6931   0.2928     H
C       0.5756   0.0164   0.8084     C
C       0.5756   0.9836   0.3084     C
H       0.5782   0.3391   0.4875     H
H       0.5782   0.6609   0.9875     H
H       0.5849   0.2771   0.1981     H
H       0.5849   0.7229   0.6981     H
H       0.5957   0.4656   0.3541     H
H       0.5957   0.5344   0.8541     H
H       0.5961   0.4296   0.6899     H
H       0.5961   0.5704   0.1899     H
H       0.6049    0.469   0.0707     H
H       0.6049    0.531   0.5707     H
C       0.6114   0.1304   0.7136     C
C       0.6114   0.8696   0.2136     C
C       0.6117   0.3137   0.1631     C
C       0.6117   0.6863   0.6631     C
H       0.6144   0.3913   0.3023     H
H       0.6144   0.6087   0.8023     H
C         0.62   0.3184   0.5309     C
C         0.62   0.6816   0.0309     C
C       0.6216   0.2251   0.6204     C
C       0.6216   0.7749   0.1204     C
C       0.6241   0.4186   0.0922     C
C       0.6241   0.5814   0.5922     C
C       0.6242   0.4651   0.7307     C
C       0.6242   0.5349   0.2307     C
H       0.6302   0.0502   0.8428     H
H       0.6302   0.9498   0.3428     H
H       0.6433   0.1717   0.7488     H
H       0.6433   0.8283   0.2488     H
C       0.6457   0.3386   0.8139     C
C       0.6457   0.6614   0.3139     C
O       0.6582   0.0363   0.2721     O
O       0.6582   0.9637   0.7721     O
N       0.6852   0.4153   0.7908     N
N       0.6852   0.5847   0.2908     N
H        0.689   0.0997   0.6989     H
H        0.689   0.9003   0.1989     H
H       0.6932   0.4985   0.2143     H
H       0.6932   0.5015   0.7143     H
O       0.7106   0.4651   0.4755     O
O       0.7106   0.5349   0.9755     O
C       0.7136   0.3033    0.117     C
C       0.7136   0.6967    0.617     C
N         0.72   0.3685    0.072     N
N         0.72   0.6315    0.572     N
C       0.7251   0.1058    0.386     C
C       0.7251   0.8942    0.886     C
C       0.7252   0.0982   0.3133     C
C       0.7252   0.9018   0.8133     C
H        0.726   0.2712   0.8975     H
H        0.726   0.7288   0.3975     H
C       0.7279   0.3197   0.8715     C
C       0.7279   0.6803   0.3715     C
C       0.7423   0.3546   0.5587     C
C       0.7423   0.6454   0.0587     C
C        0.751    0.252   0.6523     C
C        0.751    0.748   0.1523     C
H       0.7574   0.1571   0.2235     H
H       0.7574   0.8429   0.7235     H
H       0.7702   0.2581   0.1166     H
H       0.7702   0.7419   0.6166     H
C       0.7721   0.1579   0.2745     C
C       0.7721   0.8421   0.7745     C
C       0.7873   0.4308   0.5231     C
C       0.7873   0.5692   0.0231     C
C       0.7883   0.4365   0.8375     C
C       0.7883   0.5635   0.3375     C
H       0.7949   0.2261   0.6928     H
H       0.7949   0.7739   0.1928     H
C       0.8048   0.1701   0.4233     C
C       0.8048   0.8299   0.9233     C
C        0.809   0.3215   0.6181     C
C        0.809   0.6785   0.1181     C
N       0.8164    0.382   0.8874     N
N       0.8164    0.618   0.3874     N
C        0.819   0.0708    0.377     C
C        0.819   0.9292    0.877     C
H       0.8353   0.4853   0.8347     H
H       0.8353   0.5147   0.3347     H
C       0.8419   0.2212   0.3078     C
C       0.8419   0.7788   0.8078     C
C       0.8686   0.2245   0.3822     C
C       0.8686   0.7755   0.8822     C
H       0.8722   0.2632    0.279     H
H       0.8722   0.7368    0.779     H
H       0.8916    0.343    0.637     H
H       0.8916    0.657    0.137     H
Cd     0.89957  0.40827  0.00399    Cd
Cd     0.89957  0.59173  0.50399    Cd
O       0.9022   0.4605   0.5462     O
O       0.9022   0.5395   0.0462     O
C        0.912    0.152    0.401     C
C        0.912    0.848    0.901     C
C       0.9504   0.2905   0.4201     C
C       0.9504   0.7095   0.9201     C
O       0.9562   0.3586   0.3884     O
O       0.9562   0.6414   0.8884     O
O       0.9919   0.2781   0.0194     O
O       0.9919   0.7219   0.5194     O
