data_I
_chemical_name_common  '/home/zhangsd/repos/MofS-CGCNN/ML/data/TSD/clean_cifs/ZEDQOQ_clean'
_cell_length_a  8.19840
_cell_length_b 19.13400
_cell_length_c 19.51900
_cell_angle_alpha 90.00000
_cell_angle_beta  90.00000
_cell_angle_gamma 90.00000
_space_group_name_H-M_alt      'P 1'


loop_
_space_group_symop_operation_xyz
  'x, y, z' 

loop_
_atom_site_label
_atom_site_fract_x
_atom_site_fract_y
_atom_site_fract_z
_atom_site_type_symbol
S      0.00019  0.09551  0.63669     S
S      0.00019  0.59551  0.86331     S
H       0.0017   0.3938   0.9733     H
H       0.0017   0.8938   0.5267     H
C       0.0022   0.4207   0.3422     C
C       0.0022   0.9207   0.1578     C
C       0.0037   0.1058   0.7769     C
C       0.0037   0.6058   0.7231     C
S      0.00408  0.13476   0.9132     S
S      0.00408  0.63476   0.5868     S
O       0.0043   0.4337  0.95806     O
O       0.0043   0.9337  0.54194     O
H       0.0071   0.4315   0.9161     H
H       0.0071   0.9315   0.5839     H
O       0.0081  0.01961  0.08214     O
O       0.0081  0.51961  0.41786     O
C       0.0082   0.4947   0.3554     C
C       0.0082   0.9947   0.1446     C
C       0.0099   0.4384   0.2207     C
C       0.0099   0.9384   0.2793     C
O       0.0129  0.20684   0.8885     O
O       0.0129  0.70684   0.6115     O
C       0.0152   0.0125   0.2683     C
C       0.0152   0.5125   0.2317     C
C       0.0155   0.0371   0.2006     C
C       0.0155   0.5371   0.2994     C
H       0.0169   0.1536   0.7702     H
H       0.0169   0.6536   0.7298     H
O       0.0193   0.1708    0.644     O
O       0.0193   0.6708    0.856     O
H       0.0209   0.0851   0.1935     H
H       0.0209   0.5851   0.3065     H
O       0.0312   0.0542   0.3219     O
O       0.0312   0.5542   0.1781     O
O       0.0433   0.1685   0.0985     O
O       0.0433   0.6685   0.4015     O
O       0.1395   0.0642   0.6017     O
O       0.1395   0.5642   0.8983     O
O       0.1444   0.3784   0.4518     O
O       0.1444   0.8784   0.0482     O
O       0.1499   0.1171   0.9536     O
O       0.1499   0.6171   0.5464     O
O       0.1561   0.4222   0.1032     O
O       0.1561   0.9222   0.3968     O
Sr     0.23951   0.2714  0.59856    Sr
Sr     0.23951   0.7714  0.90144    Sr
Sr     0.24008    0.497  0.50259    Sr
Sr     0.24008    0.997  0.99741    Sr
Sr     0.25992    0.497  0.00259    Sr
Sr     0.25992    0.997  0.49741    Sr
Sr     0.26049   0.2714  0.09856    Sr
Sr     0.26049   0.7714  0.40144    Sr
O       0.3439   0.4222   0.6032     O
O       0.3439   0.9222   0.8968     O
O       0.3501   0.1171   0.4536     O
O       0.3501   0.6171   0.0464     O
O       0.3556   0.3784   0.9518     O
O       0.3556   0.8784   0.5482     O
O       0.3605   0.0642   0.1017     O
O       0.3605   0.5642   0.3983     O
O       0.4567   0.1685   0.5985     O
O       0.4567   0.6685   0.9015     O
O       0.4688   0.0542   0.8219     O
O       0.4688   0.5542   0.6781     O
H       0.4791   0.0851   0.6935     H
H       0.4791   0.5851   0.8065     H
O       0.4807   0.1708    0.144     O
O       0.4807   0.6708    0.356     O
H       0.4831   0.1536   0.2702     H
H       0.4831   0.6536   0.2298     H
C       0.4845   0.0371   0.7006     C
C       0.4845   0.5371   0.7994     C
C       0.4848   0.0125   0.7683     C
C       0.4848   0.5125   0.7317     C
O       0.4871  0.20684   0.3885     O
O       0.4871  0.70684   0.1115     O
C       0.4901   0.4384   0.7207     C
C       0.4901   0.9384   0.7793     C
C       0.4918   0.4947   0.8554     C
C       0.4918   0.9947   0.6446     C
O       0.4919  0.01961  0.58214     O
O       0.4919  0.51961  0.91786     O
H       0.4929   0.4315   0.4161     H
H       0.4929   0.9315   0.0839     H
O       0.4957   0.4337  0.45806     O
O       0.4957   0.9337  0.04194     O
S      0.49592  0.13476   0.4132     S
S      0.49592  0.63476   0.0868     S
C       0.4963   0.1058   0.2769     C
C       0.4963   0.6058   0.2231     C
C       0.4978   0.4207   0.8422     C
C       0.4978   0.9207   0.6578     C
H       0.4983   0.3938   0.4733     H
H       0.4983   0.8938   0.0267     H
S      0.49981  0.09551  0.13669     S
S      0.49981  0.59551  0.36331     S
S      0.50019  0.40449  0.63669     S
S      0.50019  0.90449  0.86331     S
H       0.5017   0.1062   0.9733     H
H       0.5017   0.6062   0.5267     H
C       0.5022   0.0793   0.3422     C
C       0.5022   0.5793   0.1578     C
C       0.5037   0.3942   0.7769     C
C       0.5037   0.8942   0.7231     C
S      0.50408  0.36524   0.9132     S
S      0.50408  0.86524   0.5868     S
O       0.5043   0.0663  0.95806     O
O       0.5043   0.5663  0.54194     O
H       0.5071   0.0685   0.9161     H
H       0.5071   0.5685   0.5839     H
O       0.5081  0.48039  0.08214     O
O       0.5081  0.98039  0.41786     O
C       0.5082   0.0053   0.3554     C
C       0.5082   0.5053   0.1446     C
C       0.5099   0.0616   0.2207     C
C       0.5099   0.5616   0.2793     C
O       0.5129  0.29316   0.8885     O
O       0.5129  0.79316   0.6115     O
C       0.5152   0.4875   0.2683     C
C       0.5152   0.9875   0.2317     C
C       0.5155   0.4629   0.2006     C
C       0.5155   0.9629   0.2994     C
H       0.5169   0.3464   0.7702     H
H       0.5169   0.8464   0.7298     H
O       0.5193   0.3292    0.644     O
O       0.5193   0.8292    0.856     O
H       0.5209   0.4149   0.1935     H
H       0.5209   0.9149   0.3065     H
O       0.5312   0.4458   0.3219     O
O       0.5312   0.9458   0.1781     O
O       0.5433   0.3315   0.0985     O
O       0.5433   0.8315   0.4015     O
O       0.6395   0.4358   0.6017     O
O       0.6395   0.9358   0.8983     O
O       0.6444   0.1216   0.4518     O
O       0.6444   0.6216   0.0482     O
O       0.6499   0.3829   0.9536     O
O       0.6499   0.8829   0.5464     O
O       0.6561   0.0778   0.1032     O
O       0.6561   0.5778   0.3968     O
Sr     0.73951   0.2286  0.59856    Sr
Sr     0.73951   0.7286  0.90144    Sr
Sr     0.74008    0.003  0.50259    Sr
Sr     0.74008    0.503  0.99741    Sr
Sr     0.75992    0.003  0.00259    Sr
Sr     0.75992    0.503  0.49741    Sr
Sr     0.76049   0.2286  0.09856    Sr
Sr     0.76049   0.7286  0.40144    Sr
O       0.8439   0.0778   0.6032     O
O       0.8439   0.5778   0.8968     O
O       0.8501   0.3829   0.4536     O
O       0.8501   0.8829   0.0464     O
O       0.8556   0.1216   0.9518     O
O       0.8556   0.6216   0.5482     O
O       0.8605   0.4358   0.1017     O
O       0.8605   0.9358   0.3983     O
O       0.9567   0.3315   0.5985     O
O       0.9567   0.8315   0.9015     O
O       0.9688   0.4458   0.8219     O
O       0.9688   0.9458   0.6781     O
H       0.9791   0.4149   0.6935     H
H       0.9791   0.9149   0.8065     H
O       0.9807   0.3292    0.144     O
O       0.9807   0.8292    0.356     O
H       0.9831   0.3464   0.2702     H
H       0.9831   0.8464   0.2298     H
C       0.9845   0.4629   0.7006     C
C       0.9845   0.9629   0.7994     C
C       0.9848   0.4875   0.7683     C
C       0.9848   0.9875   0.7317     C
O       0.9871  0.29316   0.3885     O
O       0.9871  0.79316   0.1115     O
C       0.9901   0.0616   0.7207     C
C       0.9901   0.5616   0.7793     C
C       0.9918   0.0053   0.8554     C
C       0.9918   0.5053   0.6446     C
O       0.9919  0.48039  0.58214     O
O       0.9919  0.98039  0.91786     O
H       0.9929   0.0685   0.4161     H
H       0.9929   0.5685   0.0839     H
O       0.9957   0.0663  0.45806     O
O       0.9957   0.5663  0.04194     O
S      0.99592  0.36524   0.4132     S
S      0.99592  0.86524   0.0868     S
C       0.9963   0.3942   0.2769     C
C       0.9963   0.8942   0.2231     C
C       0.9978   0.0793   0.8422     C
C       0.9978   0.5793   0.6578     C
H       0.9983   0.1062   0.4733     H
H       0.9983   0.6062   0.0267     H
S      0.99981  0.40449  0.13669     S
S      0.99981  0.90449  0.36331     S
