data_I
_chemical_name_common  '/home/zhangsd/repos/MofS-CGCNN/ML/data/TSD/clean_cifs/ZEDRAD_clean'
_cell_length_a  5.87670
_cell_length_b  7.50120
_cell_length_c 16.47600
_cell_angle_alpha 90.00000
_cell_angle_beta  90.00000
_cell_angle_gamma 94.47000
_space_group_name_H-M_alt      'P 1'


loop_
_space_group_symop_operation_xyz
  'x, y, z' 

loop_
_atom_site_label
_atom_site_fract_x
_atom_site_fract_y
_atom_site_fract_z
_atom_site_type_symbol
C       0.0193   0.6023   0.1751     C
C       0.0193   0.6023   0.3249     C
O       0.0742   0.4565  0.60625     O
O       0.0742   0.4565  0.89375     O
C       0.0747   0.4508     0.75     C
O       0.1695   0.9117  0.05064     O
O       0.1695   0.9117  0.44936     O
Ba     0.18036  0.28696   0.0328    Ba
Ba     0.18036  0.28696   0.4672    Ba
H       0.2081   0.5262     0.75     H
C       0.2261   0.7171  0.17684     C
C       0.2261   0.7171  0.32316     C
C       0.3234   0.7721     0.25     C
S      0.33876  0.79912  0.08511     S
S      0.33876  0.79912  0.41489     S
O       0.3665   0.6467  0.03107     O
O       0.3665   0.6467  0.46893     O
O       0.4427   0.1017  0.60064     O
O       0.4427   0.1017  0.89936     O
H       0.4567   0.8475     0.25     H
H       0.5433   0.1525     0.75     H
O       0.5573   0.8983  0.10064     O
O       0.5573   0.8983  0.39936     O
O       0.6335   0.3533  0.53107     O
O       0.6335   0.3533  0.96893     O
S      0.66124  0.20088  0.58511     S
S      0.66124  0.20088  0.91489     S
C       0.6766   0.2279     0.75     C
C       0.7739   0.2829  0.67684     C
C       0.7739   0.2829  0.82316     C
H       0.7919   0.4738     0.25     H
Ba     0.81964  0.71304   0.5328    Ba
Ba     0.81964  0.71304   0.9672    Ba
O       0.8305   0.0883  0.55064     O
O       0.8305   0.0883  0.94936     O
C       0.9253   0.5492     0.25     C
O       0.9258   0.5435  0.10625     O
O       0.9258   0.5435  0.39375     O
C       0.9807   0.3977   0.6751     C
C       0.9807   0.3977   0.8249     C
