data_I
_chemical_name_common  '/home/zhangsd/repos/MofS-CGCNN/ML/data/TSD/clean_cifs/ZEDZAL_clean'
_cell_length_a 16.43930
_cell_length_b 16.43930
_cell_length_c 23.77700
_cell_angle_alpha 90.00000
_cell_angle_beta  90.00000
_cell_angle_gamma 120.00000
_space_group_name_H-M_alt      'P 1'


loop_
_space_group_symop_operation_xyz
  'x, y, z' 

loop_
_atom_site_label
_atom_site_fract_x
_atom_site_fract_y
_atom_site_fract_z
_atom_site_type_symbol
Pr         0.0  0.08433  0.16667    Pr
Pr         0.0  0.91567  0.66667    Pr
O       0.0057   0.0709  0.78887     O
O       0.0057   0.9348  0.04446     O
H       0.0173   0.3424  0.34233     H
H       0.0173   0.6749    0.491     H
C       0.0239   0.1996  0.29703     C
C       0.0239   0.8243   0.5363     C
O       0.0331    0.142  0.26497     O
O       0.0331   0.8911  0.56836     O
H       0.0392   0.2267   0.5167     H
H       0.0392   0.8125  0.31663     H
O        0.041   0.2102   0.0021     O
O        0.041   0.8308  0.83123     O
C      0.05265   0.1053  0.58333     C
C      0.05265  0.94735     0.25     C
O       0.0652   0.0709  0.37779     O
O       0.0652   0.9943  0.45554     O
C       0.0698    0.365  0.31923     C
C       0.0698   0.7048   0.5141     C
O       0.0709   0.0057  0.21113     O
O       0.0709   0.0652  0.62221     O
Pr     0.08433      0.0  0.83333    Pr
Pr     0.08433  0.08433      0.0    Pr
C       0.0856   0.2597   0.5434     C
C       0.0856   0.8259  0.28993     C
C       0.0893    0.303  0.29183     C
C       0.0893   0.7863   0.5415     C
C      0.10515   0.2103  0.58333     C
C      0.10515  0.89485     0.25     C
C       0.1053  0.05265  0.41667     C
O       0.1089    0.142  0.90169     O
O       0.1089   0.9669  0.93164     O
H       0.1109   0.2988  0.92433     H
H       0.1109   0.8121    0.909     H
H       0.1154   0.5023  0.33253     H
H       0.1154   0.6131   0.5008     H
H       0.1201   0.3891   0.5153     H
H       0.1201    0.731  0.31803     H
C       0.1283   0.4614  0.31263     C
C       0.1283   0.6669   0.5207     C
C       0.1334   0.3567   0.5424     C
C       0.1334   0.7767  0.29093     C
O        0.142   0.0331  0.73503     O
O        0.142   0.1089  0.09831     O
H        0.149   0.5284   0.5577     H
H        0.149   0.6206  0.27563     H
C       0.1685   0.3396  0.90793     C
C       0.1685   0.8289   0.9254     C
O       0.1692   0.2102  0.16457     O
O       0.1692    0.959  0.66877     O
C       0.1711   0.3396  0.25873     C
C       0.1711   0.8315   0.5746     C
C       0.1741   0.2597  0.62327     C
C       0.1741   0.9144  0.21007     C
C       0.1757   0.1996  0.86963     C
C       0.1757   0.9761   0.9637     C
H       0.1777   0.4555  0.93983     H
H       0.1777   0.7222   0.8935     H
H       0.1875   0.2267  0.64997     H
H       0.1875   0.9608  0.18337     H
H       0.1879   0.2988  0.24233     H
H       0.1879   0.8891    0.591     H
C       0.1996   0.0239  0.70297     C
C       0.1996   0.1757  0.13037     C
C      0.20265   0.4053  0.58333     C
C      0.20265  0.79735     0.25     C
C       0.2045   0.4976  0.27743     C
C       0.2045   0.7069   0.5559     C
C       0.2072   0.4331  0.91623     C
C       0.2072   0.7741   0.9171     C
O       0.2102    0.041   0.9979     O
O       0.2102   0.1692  0.83543     O
C       0.2103  0.10515  0.41667     C
C       0.2117   0.5615   0.5687     C
C       0.2117   0.6502  0.26463     C
C       0.2137    0.303  0.87483     C
C       0.2137   0.9107   0.9585     C
C       0.2233   0.3567  0.62427     C
C       0.2233   0.8666  0.20907     C
C       0.2259   0.4331  0.25043     C
C       0.2259   0.7928   0.5829     C
H       0.2267   0.0392   0.4833     H
H       0.2267   0.1875  0.35003     H
H       0.2277  0.61385  0.91667     H
C      0.25575   0.5115  0.58333     C
C      0.25575  0.74425     0.25     C
C       0.2565   0.5986  0.26363     C
C       0.2565   0.6579   0.5697     C
C       0.2597   0.0856   0.4566     C
C       0.2597   0.1741  0.37673     C
H        0.269   0.3891  0.65137     H
H        0.269   0.8799  0.18197     H
H       0.2778   0.4555  0.22683     H
H       0.2778   0.8223   0.6065     H
C       0.2931   0.4976  0.88923     C
C       0.2931  0.64655  0.91667     C
C       0.2931   0.7955   0.9441     C
C       0.2952    0.365  0.84743     C
C       0.2952   0.9302   0.9859     C
H       0.2988   0.1109  0.07567     H
H       0.2988   0.1879  0.75767     H
C        0.303   0.0893  0.70817     C
C        0.303   0.2137  0.12517     C
H       0.3251   0.3424  0.82433     H
H       0.3251   0.9827    0.009     H
C       0.3331   0.4614  0.85403     C
C       0.3331   0.8717   0.9793     C
C       0.3396   0.1685  0.09207     C
C       0.3396   0.1711  0.74127     C
C       0.3421   0.5986  0.90303     C
C       0.3421   0.7435   0.9303     C
H       0.3424   0.0173  0.65767     H
H       0.3424   0.3251  0.17567     H
C       0.3498   0.5615  0.59797     C
C       0.3498   0.7883  0.23537     C
C      0.35345  0.64655     0.25     C
C      0.35345   0.7069  0.58333     C
C       0.3567   0.1334   0.4576     C
C       0.3567   0.2233  0.37573     C
C        0.365   0.0698  0.68077     C
C        0.365   0.2952  0.15257     C
H       0.3794   0.5284  0.60897     H
H       0.3794    0.851  0.22437     H
H      0.38615  0.61385     0.25     H
H      0.38615   0.7723  0.58333     H
H       0.3869   0.5023  0.83413     H
H       0.3869   0.8846   0.9992     H
H       0.3891   0.1201   0.4847     H
H       0.3891    0.269  0.34863     H
C       0.4014   0.6579  0.59697     C
C       0.4014   0.7435  0.23637     C
C       0.4053  0.20265  0.41667     C
C       0.4331   0.2072  0.08377     C
C       0.4331   0.2259  0.74957     C
C       0.4385   0.6502  0.90203     C
C       0.4385   0.7883   0.9313     C
H       0.4555   0.1777  0.06017     H
H       0.4555   0.2778  0.77317     H
C       0.4614   0.1283  0.68737     C
C       0.4614   0.3331  0.14597     C
H       0.4716   0.6206  0.89103     H
H       0.4716    0.851   0.9423     H
C       0.4885  0.74425  0.91667     C
C       0.4976   0.2045  0.72257     C
C       0.4976   0.2931  0.11077     C
H       0.4977   0.6131  0.66587     H
H       0.4977   0.8846  0.16747     H
H       0.5023   0.1154  0.66747     H
H       0.5023   0.3869  0.16587     H
C       0.5024   0.7069  0.61077     C
C       0.5024   0.7955  0.22257     C
C       0.5115  0.25575  0.41667     C
H       0.5284    0.149   0.4423     H
H       0.5284   0.3794  0.39103     H
C       0.5386   0.6669  0.64597     C
C       0.5386   0.8717  0.18737     C
H       0.5445   0.7222  0.27317     H
H       0.5445   0.8223  0.56017     H
C       0.5615   0.2117   0.4313     C
C       0.5615   0.3498  0.40203     C
C       0.5669   0.7741  0.24957     C
C       0.5669   0.7928  0.58377     C
C       0.5947  0.79735  0.91667     C
C       0.5986   0.2565  0.73637     C
C       0.5986   0.3421  0.09697     C
H       0.6109    0.731  0.84863     H
H       0.6109   0.8799   0.9847     H
H       0.6131   0.1154   0.4992     H
H       0.6131   0.4977  0.33413     H
H      0.61385   0.2277  0.08333     H
H      0.61385  0.38615     0.75     H
H       0.6206    0.149  0.72437     H
H       0.6206   0.4716  0.10897     H
C        0.635   0.7048  0.65257     C
C        0.635   0.9302  0.18077     C
C       0.6433   0.7767  0.87573     C
C       0.6433   0.8666   0.9576     C
C      0.64655   0.2931  0.08333     C
C      0.64655  0.35345     0.75     C
C       0.6502   0.2117  0.73537     C
C       0.6502   0.4385  0.09797     C
H       0.6576   0.6749  0.67567     H
H       0.6576   0.9827  0.15767     H
C       0.6579   0.2565   0.4303     C
C       0.6579   0.4014  0.40303     C
C       0.6604   0.8289  0.24127     C
C       0.6604   0.8315  0.59207     C
C       0.6669   0.1283   0.4793     C
C       0.6669   0.5386  0.35403     C
H       0.6749   0.0173    0.509     H
H       0.6749   0.6576  0.32433     H
C        0.697   0.7863  0.62517     C
C        0.697   0.9107  0.20817     C
H       0.7012   0.8121  0.25767     H
H       0.7012   0.8891  0.57567     H
C       0.7048   0.0698   0.4859     C
C       0.7048    0.635  0.34743     C
C       0.7069   0.2045   0.4441     C
C       0.7069  0.35345  0.41667     C
C       0.7069   0.5024  0.38923     C
H       0.7222   0.1777   0.1065     H
H       0.7222   0.5445  0.72683     H
H        0.731   0.1201  0.68197     H
H        0.731   0.6109  0.15137     H
C       0.7403   0.8259  0.87673     C
C       0.7403   0.9144   0.9566     C
C       0.7435   0.3421   0.0697     C
C       0.7435   0.4014  0.76363     C
C      0.74425  0.25575     0.75     C
C      0.74425   0.4885  0.08333     C
H       0.7723  0.38615  0.41667     H
H       0.7733   0.8125  0.85003     H
H       0.7733   0.9608   0.9833     H
C       0.7741   0.2072   0.0829     C
C       0.7741   0.5669  0.75043     C
C       0.7767   0.1334  0.70907     C
C       0.7767   0.6433  0.12427     C
C       0.7863   0.0893   0.4585     C
C       0.7863    0.697  0.37483     C
C       0.7883   0.3498  0.76463     C
C       0.7883   0.4385   0.0687     C
C       0.7897  0.89485  0.91667     C
O       0.7898   0.8308  0.33543     O
O       0.7898    0.959   0.4979     O
C       0.7928   0.2259   0.4171     C
C       0.7928   0.5669  0.41623     C
C       0.7955   0.2931   0.0559     C
C       0.7955   0.5024  0.77743     C
C      0.79735  0.20265     0.75     C
C      0.79735   0.5947  0.08333     C
C       0.8004   0.8243  0.63037     C
C       0.8004   0.9761  0.20297     C
H       0.8121   0.1109    0.091     H
H       0.8121   0.7012  0.74233     H
H       0.8125   0.0392  0.68337     H
H       0.8125   0.7733  0.14997     H
H       0.8223   0.2778   0.3935     H
H       0.8223   0.5445  0.43983     H
C       0.8243   0.0239   0.4637     C
C       0.8243   0.8004  0.36963     C
C       0.8259   0.0856  0.71007     C
C       0.8259   0.7403  0.12327     C
C       0.8289   0.1685   0.0746     C
C       0.8289   0.6604  0.75873     C
O       0.8308    0.041  0.16877     O
O       0.8308   0.7898  0.66457     O
C       0.8315   0.1711   0.4254     C
C       0.8315   0.6604  0.40793     C
H        0.851   0.3794  0.77563     H
H        0.851   0.4716   0.0577     H
O        0.858   0.8911  0.59831     O
O        0.858   0.9669  0.23503     O
C       0.8666   0.2233  0.79093     C
C       0.8666   0.6433   0.0424     C
C       0.8717   0.3331   0.0207     C
C       0.8717   0.5386  0.81263     C
H       0.8799    0.269  0.81803     H
H       0.8799   0.6109   0.0153     H
H       0.8846   0.3869   0.0008     H
H       0.8846   0.4977  0.83253     H
H       0.8891   0.1879    0.409     H
H       0.8891   0.7012  0.42433     H
O       0.8911   0.0331  0.43164     O
O       0.8911    0.858  0.40169     O
C       0.8947  0.94735  0.91667     C
C      0.89485  0.10515     0.75     C
C      0.89485   0.7897  0.08333     C
C       0.9107   0.2137   0.0415     C
C       0.9107    0.697  0.79183     C
C       0.9144   0.1741  0.78993     C
C       0.9144   0.7403   0.0434     C
Pr     0.91567      0.0  0.33333    Pr
Pr     0.91567  0.91567      0.5    Pr
O       0.9291   0.9348  0.12221     O
O       0.9291   0.9943  0.71113     O
C       0.9302   0.2952   0.0141     C
C       0.9302    0.635  0.81923     C
O       0.9348   0.0057  0.95554     O
O       0.9348   0.9291  0.87779     O
C      0.94735  0.05265     0.75     C
C      0.94735   0.8947  0.08333     C
O        0.959   0.1692  0.33123     O
O        0.959   0.7898   0.5021     O
H       0.9608   0.1875  0.81663     H
H       0.9608   0.7733   0.0167     H
O       0.9669   0.1089  0.06836     O
O       0.9669    0.858  0.76497     O
C       0.9761   0.1757   0.0363     C
C       0.9761   0.8004  0.79703     C
H       0.9827   0.3251    0.991     H
H       0.9827   0.6576  0.84233     H
O       0.9943   0.0652  0.54446     O
O       0.9943   0.9291  0.28887     O
