data_I
_chemical_name_common  '/home/zhangsd/repos/MofS-CGCNN/ML/data/TSD/clean_cifs/ZEKRIS_clean'
_cell_length_a  9.66600
_cell_length_b 11.69200
_cell_length_c 12.36600
_cell_angle_alpha 72.75000
_cell_angle_beta  67.91200
_cell_angle_gamma 76.86900
_space_group_name_H-M_alt      'P 1'


loop_
_space_group_symop_operation_xyz
  'x, y, z' 

loop_
_atom_site_label
_atom_site_fract_x
_atom_site_fract_y
_atom_site_fract_z
_atom_site_type_symbol
C      0.04754  0.79431  0.74608     C
N      0.04882  0.49168  0.02276     N
C      0.05073  0.38182  0.11236     C
C      0.06368  0.69048  0.83261     C
C      0.08465   0.1736  0.28242     C
H       0.0972   0.1019   0.3381     H
O      0.14722  0.96873  0.61068     O
H       0.1505   0.6694   0.8537     H
C      0.17328  0.87264  0.68008     C
C      0.17816  0.35186  0.14598     C
C      0.19788  0.24737  0.22866     C
Li       0.234   0.1085   0.5165    Li
H       0.2516   0.4035   0.1119     H
O      0.29661  0.83535  0.69816     O
C      0.33713  0.21815  0.26309     C
O      0.34833  0.12695  0.34518     O
O      0.39536  0.53681  0.76287     O
H       0.4182   0.3893   0.6514     H
O      0.42781  0.09914  0.55542     O
C      0.42818  0.44855  0.83716     C
C      0.43007  0.31871  0.70849     C
C      0.43566  0.32607  0.81686     C
O      0.43627  0.28701  0.20927     O
C      0.44184  0.20825  0.68428     C
C      0.44448  0.20077   0.5639     C
Li      0.4451   0.6926   0.6948    Li
C       0.4523  0.22203  0.90158     C
Li      0.4531   0.6167   0.9467    Li
H       0.4557   0.2261   0.9745     H
C       0.4567  0.10484  0.77028     C
O      0.45804  0.45396  0.92592     O
H       0.4618     0.03    0.756     H
O      0.46326  0.29083   0.4803     O
C       0.4642  0.11106  0.87792     C
Li      0.4651   0.9274   0.6125    Li
N      0.48785  0.99738  0.95571     N
N      0.51215  0.00262  0.04429     N
Li      0.5349   0.0726   0.3875    Li
C       0.5358  0.88894  0.12208     C
O      0.53674  0.70917   0.5197     O
H       0.5382     0.97    0.244     H
O      0.54196  0.54604  0.07408     O
C       0.5433  0.89516  0.22972     C
H       0.5443   0.7739   0.0255     H
Li      0.5469   0.3833   0.0533    Li
C       0.5477  0.77797  0.09842     C
Li      0.5549   0.3074   0.3052    Li
C      0.55552  0.79923   0.4361     C
C      0.55816  0.79175  0.31572     C
O      0.56373  0.71299  0.79073     O
C      0.56434  0.67393  0.18314     C
C      0.56993  0.68129  0.29151     C
C      0.57182  0.55145  0.16284     C
O      0.57219  0.90086  0.44458     O
H       0.5818   0.6107   0.3486     H
O      0.60464  0.46319  0.23713     O
O      0.65167  0.87305  0.65482     O
C      0.66287  0.78185  0.73691     C
O      0.70339  0.16465  0.30184     O
H       0.7484   0.5965   0.8881     H
Li       0.766   0.8915   0.4835    Li
C      0.80212  0.75263  0.77134     C
C      0.82184  0.64814  0.85402     C
C      0.82672  0.12736  0.31992     C
H       0.8495   0.3306   0.1463     H
O      0.85278  0.03127  0.38932     O
H       0.9028   0.8981   0.6619     H
C      0.91535   0.8264  0.71758     C
C      0.93632  0.30952  0.16739     C
C      0.94927  0.61818  0.88764     C
N      0.95118  0.50832  0.97724     N
C      0.95246  0.20569  0.25392     C
