data_I
_chemical_name_common  '/home/zhangsd/repos/MofS-CGCNN/ML/data/TSD/clean_cifs/ZIGWUJ_clean'
_cell_length_a 10.65960
_cell_length_b 16.47330
_cell_length_c 21.77910
_cell_angle_alpha 92.68800
_cell_angle_beta  90.00000
_cell_angle_gamma 90.00000
_space_group_name_H-M_alt      'P 1'


loop_
_space_group_symop_operation_xyz
  'x, y, z' 

loop_
_atom_site_label
_atom_site_fract_x
_atom_site_fract_y
_atom_site_fract_z
_atom_site_type_symbol
C       0.0054    0.935   0.6711     C
O       0.0107   0.8643  0.76131     O
O        0.014   0.6865  0.75482     O
C       0.0152    0.364   0.2876     C
O       0.0178   0.2434  0.40741     O
C       0.0196   0.7681   0.5392     C
C       0.0248   0.7546   0.9408     C
C       0.0284   0.0458   0.3871     C
H       0.0384   0.0331   0.5493     H
O       0.0444   0.7769  0.88693     O
O       0.0456   0.2203  0.50691     O
C       0.0472   0.1257   0.2878     C
C       0.0478   0.0144   0.5887     C
S      0.05489  0.49356  0.64572     S
H       0.0565   0.7403   0.0679     H
C       0.0672   0.5629   0.7065     C
O       0.0756   0.2727  0.03906     O
Mn     0.07881  0.22672  0.18757    Mn
H       0.0951   0.0702   0.4085     H
H       0.1019   0.5686   0.9259     H
O       0.1057   0.3606  0.32404     O
H       0.1148   0.4471   0.8904     H
C       0.1294   0.7491   0.0457     C
S      0.13084  0.99217  0.69653     S
C       0.1319    0.759   0.9834     C
C       0.1368   0.0422   0.6289     C
O       0.1485    0.163  0.30278     O
H       0.1502   0.5605    0.022     H
C       0.1542   0.5402   0.7477     C
C       0.1581   0.7659   0.5299     C
C       0.1694   0.4333   0.6755     C
O       0.1735   0.3419  0.59011     O
H       0.1739   0.5702   0.7836     H
C       0.1866   0.5482   0.9304     C
Mn     0.19395  0.26134  0.36542    Mn
C       0.1959   0.4652    0.906     C
H       0.2094   0.5813   0.5058     H
C       0.2113   0.4658   0.7298     C
C       0.2121   0.3571   0.6437     C
H       0.2132   0.4415   0.5365     H
O       0.2144   0.3145    0.173     O
S      0.21832  0.77289  0.45739     S
O       0.2194   0.1361  0.16943     O
C       0.2208   0.5453   0.9958     C
H       0.2277   0.4413   0.2532     H
C       0.2286   0.1086  0.62172     C
H       0.2335   0.7493   0.6141     H
Mn     0.23483  0.24741  0.52553    Mn
C       0.2365   0.4133   0.9531     C
O       0.2411  0.34023  0.44975     O
N       0.2436   0.4594   0.5031     N
H       0.2438   0.5831   0.9091     H
H       0.2448   0.4622   0.3722     H
O       0.2461   0.1323  0.56795     O
C       0.2491   0.7539   0.5724     C
C       0.2509   0.7539   0.0724     C
O       0.2539   0.1323  0.06795     O
H       0.2552   0.4622   0.8722     H
H       0.2562   0.5831   0.4091     H
N       0.2564   0.4594   0.0031     N
O       0.2589  0.34023  0.94975     O
C       0.2635   0.4133   0.4531     C
Mn     0.26517  0.24741  0.02553    Mn
H       0.2665   0.7493   0.1141     H
C       0.2714   0.1086  0.12172     C
H       0.2723   0.4413   0.7532     H
C       0.2792   0.5453   0.4958     C
O       0.2806   0.1361  0.66943     O
S      0.28168  0.77289  0.95739     S
O       0.2856   0.3145    0.673     O
H       0.2868   0.4415   0.0365     H
C       0.2879   0.3571   0.1437     C
C       0.2887   0.4658   0.2298     C
H       0.2906   0.5813   0.0058     H
C       0.3041   0.4652    0.406     C
Mn     0.30605  0.26134  0.86542    Mn
C       0.3134   0.5482   0.4304     C
H       0.3261   0.5702   0.2836     H
O       0.3265   0.3419  0.09011     O
C       0.3306   0.4333   0.1755     C
C       0.3419   0.7659   0.0299     C
C       0.3458   0.5402   0.2477     C
H       0.3498   0.5605    0.522     H
O       0.3515    0.163  0.80278     O
C       0.3632   0.0422   0.1289     C
C       0.3681    0.759   0.4834     C
S      0.36916  0.99217  0.19653     S
C       0.3706   0.7491   0.5457     C
H       0.3852   0.4471   0.3904     H
O       0.3943   0.3606  0.82404     O
H       0.3981   0.5686   0.4259     H
H       0.4049   0.0702   0.9085     H
Mn     0.42119  0.22672  0.68757    Mn
O       0.4244   0.2727  0.53906     O
C       0.4328   0.5629   0.2065     C
H       0.4435   0.7403   0.5679     H
S      0.44511  0.49356  0.14572     S
C       0.4522   0.0144   0.0887     C
C       0.4528   0.1257   0.7878     C
O       0.4544   0.2203  0.00691     O
O       0.4556   0.7769  0.38693     O
H       0.4616   0.0331   0.0493     H
C       0.4716   0.0458   0.8871     C
C       0.4752   0.7546   0.4408     C
C       0.4804   0.7681   0.0392     C
O       0.4822   0.2434  0.90741     O
C       0.4848    0.364   0.7876     C
O        0.486   0.6865  0.25482     O
O       0.4893   0.8643  0.26131     O
C       0.4946    0.935   0.1711     C
C       0.5054    0.065   0.8289     C
O       0.5107   0.1357  0.73869     O
O        0.514   0.3135  0.74518     O
C       0.5152    0.636   0.2124     C
O       0.5178   0.7566  0.09259     O
C       0.5196   0.2319   0.9608     C
C       0.5248   0.2454   0.5592     C
C       0.5284   0.9542   0.1129     C
H       0.5384   0.9669   0.9507     H
O       0.5444   0.2231  0.61307     O
O       0.5456   0.7797  0.99309     O
C       0.5472   0.8743   0.2122     C
C       0.5478   0.9856   0.9113     C
S      0.55489  0.50644  0.85428     S
H       0.5565   0.2597   0.4321     H
C       0.5672   0.4371   0.7935     C
O       0.5756   0.7273  0.46094     O
Mn     0.57881  0.77328  0.31243    Mn
H       0.5951   0.9298   0.0915     H
H       0.6019   0.4314   0.5741     H
O       0.6057   0.6394  0.17596     O
H       0.6148   0.5529   0.6096     H
C       0.6294   0.2509   0.4543     C
S      0.63084  0.00783  0.80347     S
C       0.6319    0.241   0.5166     C
C       0.6368   0.9578   0.8711     C
O       0.6485    0.837  0.19722     O
H       0.6502   0.4395    0.478     H
C       0.6542   0.4598   0.7523     C
C       0.6581   0.2341   0.9701     C
C       0.6694   0.5667   0.8245     C
O       0.6735   0.6581  0.90989     O
H       0.6739   0.4298   0.7164     H
C       0.6866   0.4518   0.5696     C
Mn     0.69395  0.73866  0.13458    Mn
C       0.6959   0.5348    0.594     C
H       0.7094   0.4187   0.9942     H
C       0.7113   0.5342   0.7702     C
C       0.7121   0.6429   0.8563     C
H       0.7132   0.5585   0.9635     H
O       0.7144   0.6855    0.327     O
S      0.71832  0.22711  0.04261     S
O       0.7194   0.8639  0.33057     O
C       0.7208   0.4547   0.5042     C
H       0.7277   0.5587   0.2468     H
C       0.7286   0.8914  0.87828     C
H       0.7335   0.2507   0.8859     H
Mn     0.73483  0.75259  0.97447    Mn
C       0.7365   0.5867   0.5469     C
O       0.7411  0.65977  0.05025     O
N       0.7436   0.5406   0.9969     N
H       0.7438   0.4169   0.5909     H
H       0.7448   0.5378   0.1278     H
O       0.7461   0.8677  0.93205     O
C       0.7491   0.2461   0.9276     C
C       0.7509   0.2461   0.4276     C
O       0.7539   0.8677  0.43205     O
H       0.7552   0.5378   0.6278     H
H       0.7562   0.4169   0.0909     H
N       0.7564   0.5406   0.4969     N
O       0.7589  0.65977  0.55025     O
C       0.7635   0.5867   0.0469     C
Mn     0.76517  0.75259  0.47447    Mn
H       0.7665   0.2507   0.3859     H
C       0.7714   0.8914  0.37828     C
H       0.7723   0.5587   0.7468     H
C       0.7792   0.4547   0.0042     C
O       0.7806   0.8639  0.83057     O
S      0.78168  0.22711  0.54261     S
O       0.7856   0.6855    0.827     O
H       0.7868   0.5585   0.4635     H
C       0.7879   0.6429   0.3563     C
C       0.7887   0.5342   0.2702     C
H       0.7906   0.4187   0.4942     H
C       0.8041   0.5348    0.094     C
Mn     0.80605  0.73866  0.63458    Mn
C       0.8134   0.4518   0.0696     C
H       0.8261   0.4298   0.2164     H
O       0.8265   0.6581  0.40989     O
C       0.8306   0.5667   0.3245     C
C       0.8419   0.2341   0.4701     C
C       0.8458   0.4598   0.2523     C
H       0.8498   0.4395    0.978     H
O       0.8515    0.837  0.69722     O
C       0.8632   0.9578   0.3711     C
C       0.8681    0.241   0.0166     C
S      0.86916  0.00783  0.30347     S
C       0.8706   0.2509   0.9543     C
H       0.8852   0.5529   0.1096     H
O       0.8943   0.6394  0.67596     O
H       0.8981   0.4314   0.0741     H
H       0.9049   0.9298   0.5915     H
Mn     0.92119  0.77328  0.81243    Mn
O       0.9244   0.7273  0.96094     O
C       0.9328   0.4371   0.2935     C
H       0.9435   0.2597   0.9321     H
S      0.94511  0.50644  0.35428     S
C       0.9522   0.9856   0.4113     C
C       0.9528   0.8743   0.7122     C
O       0.9544   0.7797  0.49309     O
O       0.9556   0.2231  0.11307     O
H       0.9616   0.9669   0.4507     H
C       0.9716   0.9542   0.6129     C
C       0.9752   0.2454   0.0592     C
C       0.9804   0.2319   0.4608     C
O       0.9822   0.7566  0.59259     O
C       0.9848    0.636   0.7124     C
O        0.986   0.3135  0.24518     O
O       0.9893   0.1357  0.23869     O
C       0.9946    0.065   0.3289     C
