data_I
_chemical_name_common  '/home/zhangsd/repos/MofS-CGCNN/ML/data/TSD/clean_cifs/ZIJVOF02_clean'
_cell_length_a 10.99020
_cell_length_b 10.99020
_cell_length_c 18.09400
_cell_angle_alpha 90.00000
_cell_angle_beta  90.00000
_cell_angle_gamma 90.00000
_space_group_name_H-M_alt      'P 1'


loop_
_space_group_symop_operation_xyz
  'x, y, z' 

loop_
_atom_site_label
_atom_site_fract_x
_atom_site_fract_y
_atom_site_fract_z
_atom_site_type_symbol
C       0.0065   0.8313   0.0106     C
H       0.0096   0.8602   0.5262     H
C       0.0221   0.1507   0.9772     C
N       0.0379   0.3653    0.447     N
H       0.0404   0.8188   0.0589     H
H       0.0408   0.0952   0.5104     H
H       0.0441   0.8421   0.4429     H
N        0.062   0.3601   0.9338     N
H        0.071    0.838   0.9751     H
H       0.0715    0.082   0.9642     H
C       0.0722   0.2727   0.4911     C
H        0.082   0.9285   0.2142     H
Cu     0.09325  0.60091  0.38475    Cu
H       0.0952   0.9592   0.7604     H
C       0.0954   0.2606   0.9748     C
O       0.1093   0.7557   0.3227     O
Cu      0.1159  0.60776  0.89366    Cu
N       0.1253   0.4546   0.4438     N
O       0.1326   0.7712   0.8421     O
H       0.1398   0.0096   0.2762     H
N        0.146   0.4538   0.9427     N
C       0.1507   0.9779   0.2272     C
H       0.1579   0.0441   0.1929     H
H        0.162    0.071   0.7251     H
C       0.1687   0.0065   0.7606     C
H       0.1812   0.0404   0.8089     H
C       0.1889   0.2983   0.5154     C
C       0.2076   0.2869   0.0044     C
C       0.2168   0.4143   0.4816     C
C       0.2177   0.7154   0.3044     C
O       0.2288   0.1326   0.5921     O
C       0.2325   0.4062   0.9809     C
C       0.2364   0.7316   0.8163     C
O       0.2443   0.1093   0.0727     O
O        0.249   0.6179    0.332     O
C       0.2606   0.9046   0.2248     C
C       0.2684   0.2364   0.5663     C
O       0.2686   0.6313   0.8371     O
C       0.2727   0.9278   0.7411     C
C       0.2846   0.2177   0.0544     C
C       0.2869   0.7924   0.2544     C
C       0.2983   0.8111   0.7654     C
H       0.3096    0.573    0.499     H
H       0.3192   0.5657   0.0085     H
C       0.3312   0.4901   0.4886     C
C       0.3445    0.485   0.9952     C
N       0.3601    0.938   0.1838     N
N       0.3653   0.9621    0.697     N
O       0.3687   0.2686   0.5871     O
H       0.3761   0.4865   0.4432     H
H       0.3804   0.4588   0.5281     H
O       0.3821    0.249    0.082     O
H       0.3912   0.4504   0.0348     H
Cu     0.39224   0.1159  0.64366    Cu
H       0.3934   0.4884   0.9513     H
Cu     0.39909  0.09325  0.13475    Cu
C       0.4062   0.7675   0.2309     C
C       0.4143   0.7832   0.7316     C
H        0.427   0.3096    0.249     H
H       0.4343   0.3192   0.7585     H
H       0.4504   0.6088   0.2848     H
N       0.4538    0.854   0.1927     N
N       0.4546   0.8747   0.6938     N
H       0.4588   0.6196   0.7781     H
C        0.485   0.6555   0.2452     C
H       0.4865   0.6239   0.6932     H
H       0.4884   0.6066   0.2013     H
C       0.4901   0.6688   0.7386     C
C       0.5099   0.3312   0.2386     C
H       0.5116   0.3934   0.7013     H
H       0.5135   0.3761   0.1932     H
C        0.515   0.3445   0.7452     C
H       0.5412   0.3804   0.2781     H
N       0.5454   0.1253   0.1938     N
N       0.5462    0.146   0.6927     N
H       0.5496   0.3912   0.7848     H
H       0.5657   0.6808   0.2585     H
H        0.573   0.6904    0.749     H
C       0.5857   0.2168   0.2316     C
C       0.5938   0.2325   0.7309     C
Cu     0.60091  0.90675  0.63475    Cu
H       0.6066   0.5116   0.4513     H
Cu     0.60776   0.8841  0.14366    Cu
H       0.6088   0.5496   0.5348     H
O       0.6179    0.751    0.582     O
H       0.6196   0.5412   0.0281     H
H       0.6239   0.5135   0.9432     H
O       0.6313   0.7314   0.0871     O
N       0.6347   0.0379    0.197     N
N       0.6399    0.062   0.6838     N
C       0.6555    0.515   0.4952     C
C       0.6688   0.5099   0.9886     C
H       0.6808   0.4343   0.5085     H
H       0.6904    0.427    0.999     H
C       0.7017   0.1889   0.2654     C
C       0.7131   0.2076   0.7544     C
C       0.7154   0.7823   0.5544     C
C       0.7273   0.0722   0.2411     C
O       0.7314   0.3687   0.3371     O
C       0.7316   0.7636   0.0663     C
C       0.7394   0.0954   0.7248     C
O        0.751   0.3821    0.832     O
O       0.7557   0.8907   0.5727     O
C       0.7636   0.2684   0.3163     C
C       0.7675   0.5938   0.4809     C
O       0.7712   0.8674   0.0921     O
C       0.7823   0.2846   0.8044     C
C       0.7832   0.5857   0.9816     C
C       0.7924   0.7131   0.5044     C
C       0.8111   0.7017   0.0154     C
H       0.8188   0.9596   0.3089     H
C       0.8313   0.9935   0.2606     C
H        0.838    0.929   0.2251     H
H       0.8421   0.9559   0.6929     H
C       0.8493   0.0221   0.7272     C
N        0.854   0.5462   0.4427     N
H       0.8602   0.9904   0.7762     H
O       0.8674   0.2288   0.3421     O
N       0.8747   0.5454   0.9438     N
Cu      0.8841  0.39224  0.39366    Cu
O       0.8907   0.2443   0.8227     O
C       0.9046   0.7394   0.4748     C
H       0.9048   0.0408   0.2604     H
Cu     0.90675  0.39909  0.88475    Cu
H        0.918   0.0715   0.7142     H
C       0.9278   0.7273   0.9911     C
H       0.9285    0.918   0.4642     H
H        0.929    0.162   0.4751     H
N        0.938   0.6399   0.4338     N
H       0.9559   0.1579   0.9429     H
H       0.9592   0.9048   0.0104     H
H       0.9596   0.1812   0.5589     H
N       0.9621   0.6347    0.947     N
C       0.9779   0.8493   0.4772     C
H       0.9904   0.1398   0.0262     H
C       0.9935   0.1687   0.5106     C
