data_I
_chemical_name_common  '/home/zhangsd/repos/MofS-CGCNN/ML/data/TSD/clean_cifs/ZIKCED_clean'
_cell_length_a 28.15700
_cell_length_b 16.65900
_cell_length_c 14.55840
_cell_angle_alpha 90.00000
_cell_angle_beta  93.28400
_cell_angle_gamma 90.00000
_space_group_name_H-M_alt      'P 1'


loop_
_space_group_symop_operation_xyz
  'x, y, z' 

loop_
_atom_site_label
_atom_site_fract_x
_atom_site_fract_y
_atom_site_fract_z
_atom_site_type_symbol
H       0.0043   0.1458   0.4099     H
H       0.0043   0.8542   0.9099     H
C       0.0125   0.4427   0.8747     C
C       0.0125   0.5573   0.3747     C
H       0.0173   0.3875   0.8768     H
H       0.0173   0.6125   0.3768     H
C      0.02061   0.0305   0.3908     C
C      0.02061   0.9695   0.8908     C
H       0.0252   0.3973   0.3727     H
H       0.0252   0.6027   0.8727     H
C      0.02824   0.0009   0.1396     C
C      0.02824   0.9991   0.6396     C
C       0.0293   0.1093   0.4129     C
C       0.0293   0.8907   0.9129     C
C        0.032   0.4679   0.6263     C
C        0.032   0.5321   0.1263     C
H       0.0371   0.4769   0.1274     H
H       0.0371   0.5231   0.6274     H
O      0.03772   0.0706   0.6472     O
O      0.03772   0.9294   0.1472     O
H       0.0431   0.3073   0.6425     H
H       0.0431   0.6927   0.1425     H
H         0.05    0.107   0.1513     H
H         0.05    0.893   0.6513     H
H       0.0524   0.0766   0.8861     H
H       0.0524   0.9234   0.3861     H
C       0.0542   0.4241   0.3716     C
C       0.0542   0.5759   0.8716     C
C       0.0553   0.4937   0.8729     C
C       0.0553   0.5063   0.3729     C
C      0.05768   0.0225    0.899     C
C      0.05768   0.9775    0.399     C
N      0.06046   0.0587    0.158     N
N      0.06046   0.9413    0.658     N
C       0.0719   0.3325   0.6337     C
C       0.0719   0.6675   0.1337     C
C      0.07391   0.4161    0.626     C
C      0.07391   0.5839    0.126     C
C       0.0748   0.1357   0.4396     C
C       0.0748   0.8643   0.9396     C
H       0.0801   0.1896   0.4534     H
H       0.0801   0.8104   0.9534     H
H       0.0945   0.3251   0.3683     H
H       0.0945   0.6749   0.8683     H
C      0.09592   0.3809   0.3685     C
C      0.09592   0.6191   0.8685     C
C       0.0988   0.4569   0.8717     C
C       0.0988   0.5431   0.3717     C
H        0.101   0.4012   0.8723     H
H        0.101   0.5988   0.3723     H
C      0.10304   0.0034   0.4263     C
C      0.10304   0.9966   0.9263     C
C      0.10918   0.0523   0.1869     C
C      0.10918   0.9477   0.6869     C
H       0.1105   0.2321   0.6335     H
H       0.1105   0.7679   0.1335     H
C      0.11204   0.0824   0.4457     C
C      0.11204   0.9176   0.9457     C
C       0.1126   0.2876   0.6282     C
C       0.1126   0.7124   0.1282     C
H        0.113   0.1684   0.2241     H
H        0.113   0.8316   0.7241     H
C       0.1183   0.4493   0.6172     C
C       0.1183   0.5507   0.1172     C
H       0.1214   0.0647   0.6591     H
H       0.1214   0.9353   0.1591     H
H       0.1219   0.4953   0.1146     H
H       0.1219   0.5047   0.6146     H
H       0.1278   0.0335   0.9315     H
H       0.1278   0.9665   0.4315     H
C      0.13079   0.1215   0.2211     C
C      0.13079   0.8785   0.7211     C
C      0.13558   0.0177   0.6815     C
C      0.13558   0.9823   0.1815     C
N      0.13813   0.4167   0.3658     N
N      0.13813   0.5833   0.8658     N
C       0.1394   0.4966   0.3695     C
C       0.1394   0.5034   0.8695     C
N      0.15495   0.3202   0.6155     N
N      0.15495   0.6798   0.1155     N
C      0.15702   0.3998   0.6122     C
C      0.15702   0.6002   0.1122     C
C      0.16112   0.1136   0.4748     C
C      0.16112   0.8864   0.9748     C
O      0.16355   0.1888   0.4866     O
O      0.16355   0.8112   0.9866     O
H       0.1688   0.4779   0.8706     H
H       0.1688   0.5221   0.3706     H
O      0.17581  0.25977   0.2872     O
O      0.17581  0.74023   0.7872     O
C      0.17877   0.1224   0.2511     C
C      0.17877   0.8776   0.7511     C
C      0.18373   0.0167     0.71     C
C      0.18373   0.9833     0.21     C
H       0.1866   0.4235   0.6063     H
H       0.1866   0.5765   0.1063     H
O      0.19425  0.15504   0.6763     O
O      0.19425  0.84496   0.1763     O
O      0.19503   0.0662   0.4843     O
O      0.19503   0.9338   0.9843     O
Zn     0.19842  0.35208  0.35902    Zn
Zn     0.19842  0.64792  0.85902    Zn
C      0.20108   0.1961   0.2913     C
C      0.20108   0.8039   0.7913     C
C       0.2048   0.0519   0.2447     C
C       0.2048   0.9481   0.7447     C
Zn     0.21144   0.2473  0.57495    Zn
Zn     0.21144   0.7527  0.07495    Zn
C       0.2137   0.0894   0.6956     C
C       0.2137   0.9106   0.1956     C
O      0.23291  0.32551    0.473     O
O      0.23291  0.67449    0.973     O
H       0.2368   0.0513   0.2641     H
H       0.2368   0.9487   0.7641     H
O      0.24142   0.4215   0.2952     O
O      0.24142   0.5785   0.7952     O
O      0.24227  0.19207   0.3258     O
O      0.24227  0.80793   0.8258     O
O      0.25773  0.30793   0.6742     O
O      0.25773  0.69207   0.1742     O
O      0.25858   0.0785   0.7048     O
O      0.25858   0.9215   0.2048     O
H       0.2632   0.4487   0.7359     H
H       0.2632   0.5513   0.2359     H
O      0.26709  0.17449    0.527     O
O      0.26709  0.82551    0.027     O
C       0.2863   0.4106   0.3044     C
C       0.2863   0.5894   0.8044     C
Zn     0.28856   0.2527  0.42505    Zn
Zn     0.28856   0.7473  0.92505    Zn
C       0.2952   0.4481   0.7553     C
C       0.2952   0.5519   0.2553     C
C      0.29892   0.3039   0.7087     C
C      0.29892   0.6961   0.2087     C
Zn     0.30158  0.14792  0.64098    Zn
Zn     0.30158  0.85208  0.14098    Zn
O      0.30497   0.4338   0.5157     O
O      0.30497   0.5662   0.0157     O
O      0.30575  0.34496   0.3237     O
O      0.30575  0.65504   0.8237     O
H       0.3134   0.0765   0.3937     H
H       0.3134   0.9235   0.8937     H
C      0.31627   0.4833     0.29     C
C      0.31627   0.5167     0.79     C
C      0.32123   0.3776   0.7489     C
C      0.32123   0.6224   0.2489     C
O      0.32419  0.24023   0.7128     O
O      0.32419  0.75977   0.2128     O
H       0.3312   0.0221   0.1294     H
H       0.3312   0.9779   0.6294     H
O      0.33645   0.3112   0.5134     O
O      0.33645   0.6888   0.0134     O
C      0.33888   0.3864   0.5252     C
C      0.33888   0.6136   0.0252     C
C      0.34298   0.1002   0.3878     C
C      0.34298   0.8998   0.8878     C
N      0.34505   0.1798   0.3845     N
N      0.34505   0.8202   0.8845     N
C       0.3606   0.0034   0.6305     C
C       0.3606   0.9966   0.1305     C
N      0.36187   0.0833   0.6342     N
N      0.36187   0.9167   0.1342     N
C      0.36442   0.4823   0.3185     C
C      0.36442   0.5177   0.8185     C
C      0.36921   0.3785   0.7789     C
C      0.36921   0.6215   0.2789     C
H       0.3722   0.4665   0.0685     H
H       0.3722   0.5335   0.5685     H
H       0.3781   0.0047   0.8854     H
H       0.3781   0.9953   0.3854     H
H       0.3786   0.4353   0.3409     H
H       0.3786   0.5647   0.8409     H
C       0.3817   0.0507   0.3828     C
C       0.3817   0.9493   0.8828     C
H        0.387   0.3316   0.7759     H
H        0.387   0.6684   0.2759     H
C       0.3874   0.2124   0.3718     C
C       0.3874   0.7876   0.8718     C
C      0.38796   0.4176   0.5543     C
C      0.38796   0.5824   0.0543     C
H       0.3895   0.2679   0.3665     H
H       0.3895   0.7321   0.8665     H
C      0.39082   0.4477   0.8131     C
C      0.39082   0.5523   0.3131     C
C      0.39696   0.4966   0.5737     C
C      0.39696   0.5034   0.0737     C
H        0.399   0.0988   0.1277     H
H        0.399   0.9012   0.6277     H
C       0.4012   0.0431   0.1283     C
C       0.4012   0.9569   0.6283     C
C      0.40408   0.1191   0.6315     C
C      0.40408   0.8809   0.1315     C
H       0.4055   0.1749   0.6317     H
H       0.4055   0.8251   0.1317     H
H       0.4199   0.3104   0.5466     H
H       0.4199   0.6896   0.0466     H
C       0.4252   0.3643   0.5604     C
C       0.4252   0.6357   0.0604     C
C      0.42609   0.0839    0.374     C
C      0.42609   0.9161    0.874     C
C       0.4281   0.1675   0.3663     C
C       0.4281   0.8325   0.8663     C
N      0.43954   0.4413    0.842     N
N      0.43954   0.5587    0.342     N
C      0.44232   0.4775    0.101     C
C      0.44232   0.5225    0.601     C
C       0.4447   0.0063   0.1271     C
C       0.4447   0.9937   0.6271     C
C       0.4458   0.0759   0.6284     C
C       0.4458   0.9241   0.1284     C
H       0.4476   0.4234   0.1139     H
H       0.4476   0.5766   0.6139     H
H         0.45    0.393   0.8487     H
H         0.45    0.607   0.3487     H
H       0.4569   0.1927   0.3575     H
H       0.4569   0.8073   0.8575     H
O      0.46228   0.4294   0.3528     O
O      0.46228   0.5706   0.8528     O
H       0.4629   0.0231   0.8726     H
H       0.4629   0.9769   0.3726     H
C        0.468   0.0321   0.3737     C
C        0.468   0.9679   0.8737     C
C       0.4707   0.3907   0.5871     C
C       0.4707   0.6093   0.0871     C
C      0.47176   0.4991   0.8604     C
C      0.47176   0.5009   0.3604     C
H       0.4748   0.1027   0.6273     H
H       0.4748   0.8973   0.1273     H
C      0.47939   0.4695   0.6092     C
C      0.47939   0.5305   0.1092     C
H       0.4827   0.1125   0.1232     H
H       0.4827   0.8875   0.6232     H
C       0.4875   0.0573   0.1253     C
C       0.4875   0.9427   0.6253     C
H       0.4957   0.3542   0.5901     H
H       0.4957   0.6458   0.0901     H
H       0.5043   0.3542   0.9099     H
H       0.5043   0.6458   0.4099     H
C       0.5125   0.0573   0.3747     C
C       0.5125   0.9427   0.8747     C
H       0.5173   0.1125   0.3768     H
H       0.5173   0.8875   0.8768     H
C      0.52061   0.4695   0.8908     C
C      0.52061   0.5305   0.3908     C
H       0.5252   0.1027   0.8727     H
H       0.5252   0.8973   0.3727     H
C      0.52824   0.4991   0.6396     C
C      0.52824   0.5009   0.1396     C
C       0.5293   0.3907   0.9129     C
C       0.5293   0.6093   0.4129     C
C        0.532   0.0321   0.1263     C
C        0.532   0.9679   0.6263     C
H       0.5371   0.0231   0.6274     H
H       0.5371   0.9769   0.1274     H
O      0.53772   0.4294   0.1472     O
O      0.53772   0.5706   0.6472     O
H       0.5431   0.1927   0.1425     H
H       0.5431   0.8073   0.6425     H
H         0.55    0.393   0.6513     H
H         0.55    0.607   0.1513     H
H       0.5524   0.4234   0.3861     H
H       0.5524   0.5766   0.8861     H
C       0.5542   0.0759   0.8716     C
C       0.5542   0.9241   0.3716     C
C       0.5553   0.0063   0.3729     C
C       0.5553   0.9937   0.8729     C
C      0.55768   0.4775    0.399     C
C      0.55768   0.5225    0.899     C
N      0.56046   0.4413    0.658     N
N      0.56046   0.5587    0.158     N
C       0.5719   0.1675   0.1337     C
C       0.5719   0.8325   0.6337     C
C      0.57391   0.0839    0.126     C
C      0.57391   0.9161    0.626     C
C       0.5748   0.3643   0.9396     C
C       0.5748   0.6357   0.4396     C
H       0.5801   0.3104   0.9534     H
H       0.5801   0.6896   0.4534     H
H       0.5945   0.1749   0.8683     H
H       0.5945   0.8251   0.3683     H
C      0.59592   0.1191   0.8685     C
C      0.59592   0.8809   0.3685     C
C       0.5988   0.0431   0.3717     C
C       0.5988   0.9569   0.8717     C
H        0.601   0.0988   0.3723     H
H        0.601   0.9012   0.8723     H
C      0.60304   0.4966   0.9263     C
C      0.60304   0.5034   0.4263     C
C      0.60918   0.4477   0.6869     C
C      0.60918   0.5523   0.1869     C
H       0.6105   0.2679   0.1335     H
H       0.6105   0.7321   0.6335     H
C      0.61204   0.4176   0.9457     C
C      0.61204   0.5824   0.4457     C
C       0.6126   0.2124   0.1282     C
C       0.6126   0.7876   0.6282     C
H        0.613   0.3316   0.7241     H
H        0.613   0.6684   0.2241     H
C       0.6183   0.0507   0.1172     C
C       0.6183   0.9493   0.6172     C
H       0.6214   0.4353   0.1591     H
H       0.6214   0.5647   0.6591     H
H       0.6219   0.0047   0.6146     H
H       0.6219   0.9953   0.1146     H
H       0.6278   0.4665   0.4315     H
H       0.6278   0.5335   0.9315     H
C      0.63079   0.3785   0.7211     C
C      0.63079   0.6215   0.2211     C
C      0.63558   0.4823   0.1815     C
C      0.63558   0.5177   0.6815     C
N      0.63813   0.0833   0.8658     N
N      0.63813   0.9167   0.3658     N
C       0.6394   0.0034   0.8695     C
C       0.6394   0.9966   0.3695     C
N      0.65495   0.1798   0.1155     N
N      0.65495   0.8202   0.6155     N
C      0.65702   0.1002   0.1122     C
C      0.65702   0.8998   0.6122     C
C      0.66112   0.3864   0.9748     C
C      0.66112   0.6136   0.4748     C
O      0.66355   0.3112   0.9866     O
O      0.66355   0.6888   0.4866     O
H       0.6688   0.0221   0.3706     H
H       0.6688   0.9779   0.8706     H
O      0.67581  0.24023   0.7872     O
O      0.67581  0.75977   0.2872     O
C      0.67877   0.3776   0.7511     C
C      0.67877   0.6224   0.2511     C
C      0.68373   0.4833     0.21     C
C      0.68373   0.5167     0.71     C
H       0.6866   0.0765   0.1063     H
H       0.6866   0.9235   0.6063     H
O      0.69425  0.34496   0.1763     O
O      0.69425  0.65504   0.6763     O
O      0.69503   0.4338   0.9843     O
O      0.69503   0.5662   0.4843     O
Zn     0.69842  0.14792  0.85902    Zn
Zn     0.69842  0.85208  0.35902    Zn
C      0.70108   0.3039   0.7913     C
C      0.70108   0.6961   0.2913     C
C       0.7048   0.4481   0.7447     C
C       0.7048   0.5519   0.2447     C
Zn     0.71144   0.2527  0.07495    Zn
Zn     0.71144   0.7473  0.57495    Zn
C       0.7137   0.4106   0.1956     C
C       0.7137   0.5894   0.6956     C
O      0.73291  0.17449    0.973     O
O      0.73291  0.82551    0.473     O
H       0.7368   0.4487   0.7641     H
H       0.7368   0.5513   0.2641     H
O      0.74142   0.0785   0.7952     O
O      0.74142   0.9215   0.2952     O
O      0.74227  0.30793   0.8258     O
O      0.74227  0.69207   0.3258     O
O      0.75773  0.19207   0.1742     O
O      0.75773  0.80793   0.6742     O
O      0.75858   0.4215   0.2048     O
O      0.75858   0.5785   0.7048     O
H       0.7632   0.0513   0.2359     H
H       0.7632   0.9487   0.7359     H
O      0.76709  0.32551    0.027     O
O      0.76709  0.67449    0.527     O
C       0.7863   0.0894   0.8044     C
C       0.7863   0.9106   0.3044     C
Zn     0.78856   0.2473  0.92505    Zn
Zn     0.78856   0.7527  0.42505    Zn
C       0.7952   0.0519   0.2553     C
C       0.7952   0.9481   0.7553     C
C      0.79892   0.1961   0.2087     C
C      0.79892   0.8039   0.7087     C
Zn     0.80158  0.35208  0.14098    Zn
Zn     0.80158  0.64792  0.64098    Zn
O      0.80497   0.0662   0.0157     O
O      0.80497   0.9338   0.5157     O
O      0.80575  0.15504   0.8237     O
O      0.80575  0.84496   0.3237     O
H       0.8134   0.4235   0.8937     H
H       0.8134   0.5765   0.3937     H
C      0.81627   0.0167     0.79     C
C      0.81627   0.9833     0.29     C
C      0.82123   0.1224   0.2489     C
C      0.82123   0.8776   0.7489     C
O      0.82419  0.25977   0.2128     O
O      0.82419  0.74023   0.7128     O
H       0.8312   0.4779   0.6294     H
H       0.8312   0.5221   0.1294     H
O      0.83645   0.1888   0.0134     O
O      0.83645   0.8112   0.5134     O
C      0.83888   0.1136   0.0252     C
C      0.83888   0.8864   0.5252     C
C      0.84298   0.3998   0.8878     C
C      0.84298   0.6002   0.3878     C
N      0.84505   0.3202   0.8845     N
N      0.84505   0.6798   0.3845     N
C       0.8606   0.4966   0.1305     C
C       0.8606   0.5034   0.6305     C
N      0.86187   0.4167   0.1342     N
N      0.86187   0.5833   0.6342     N
C      0.86442   0.0177   0.8185     C
C      0.86442   0.9823   0.3185     C
C      0.86921   0.1215   0.2789     C
C      0.86921   0.8785   0.7789     C
H       0.8722   0.0335   0.5685     H
H       0.8722   0.9665   0.0685     H
H       0.8781   0.4953   0.3854     H
H       0.8781   0.5047   0.8854     H
H       0.8786   0.0647   0.8409     H
H       0.8786   0.9353   0.3409     H
C       0.8817   0.4493   0.8828     C
C       0.8817   0.5507   0.3828     C
H        0.887   0.1684   0.2759     H
H        0.887   0.8316   0.7759     H
C       0.8874   0.2876   0.8718     C
C       0.8874   0.7124   0.3718     C
C      0.88796   0.0824   0.0543     C
C      0.88796   0.9176   0.5543     C
H       0.8895   0.2321   0.8665     H
H       0.8895   0.7679   0.3665     H
C      0.89082   0.0523   0.3131     C
C      0.89082   0.9477   0.8131     C
C      0.89696   0.0034   0.0737     C
C      0.89696   0.9966   0.5737     C
H        0.899   0.4012   0.6277     H
H        0.899   0.5988   0.1277     H
C       0.9012   0.4569   0.6283     C
C       0.9012   0.5431   0.1283     C
C      0.90408   0.3809   0.1315     C
C      0.90408   0.6191   0.6315     C
H       0.9055   0.3251   0.1317     H
H       0.9055   0.6749   0.6317     H
H       0.9199   0.1896   0.0466     H
H       0.9199   0.8104   0.5466     H
C       0.9252   0.1357   0.0604     C
C       0.9252   0.8643   0.5604     C
C      0.92609   0.4161    0.874     C
C      0.92609   0.5839    0.374     C
C       0.9281   0.3325   0.8663     C
C       0.9281   0.6675   0.3663     C
N      0.93954   0.0587    0.342     N
N      0.93954   0.9413    0.842     N
C      0.94232   0.0225    0.601     C
C      0.94232   0.9775    0.101     C
C       0.9447   0.4937   0.6271     C
C       0.9447   0.5063   0.1271     C
C       0.9458   0.4241   0.1284     C
C       0.9458   0.5759   0.6284     C
H       0.9476   0.0766   0.6139     H
H       0.9476   0.9234   0.1139     H
H         0.95    0.107   0.3487     H
H         0.95    0.893   0.8487     H
H       0.9569   0.3073   0.8575     H
H       0.9569   0.6927   0.3575     H
O      0.96228   0.0706   0.8528     O
O      0.96228   0.9294   0.3528     O
H       0.9629   0.4769   0.3726     H
H       0.9629   0.5231   0.8726     H
C        0.968   0.4679   0.8737     C
C        0.968   0.5321   0.3737     C
C       0.9707   0.1093   0.0871     C
C       0.9707   0.8907   0.5871     C
C      0.97176   0.0009   0.3604     C
C      0.97176   0.9991   0.8604     C
H       0.9748   0.3973   0.1273     H
H       0.9748   0.6027   0.6273     H
C      0.97939   0.0305   0.1092     C
C      0.97939   0.9695   0.6092     C
H       0.9827   0.3875   0.6232     H
H       0.9827   0.6125   0.1232     H
C       0.9875   0.4427   0.6253     C
C       0.9875   0.5573   0.1253     C
H       0.9957   0.1458   0.0901     H
H       0.9957   0.8542   0.5901     H
