data_I
_chemical_name_common  '/home/zhangsd/repos/MofS-CGCNN/ML/data/TSD/clean_cifs/ZIKJIO_clean'
_cell_length_a 11.42690
_cell_length_b 11.42690
_cell_length_c 18.87310
_cell_angle_alpha 94.75840
_cell_angle_beta  94.75840
_cell_angle_gamma 96.72190
_space_group_name_H-M_alt      'P 1'


loop_
_space_group_symop_operation_xyz
  'x, y, z' 

loop_
_atom_site_label
_atom_site_fract_x
_atom_site_fract_y
_atom_site_fract_z
_atom_site_type_symbol
O      0.00316  0.17632  0.06135     O
H       0.0164   0.9836     0.25     H
Cu     0.02819   0.9045  0.52795    Cu
O      0.03369  0.03715  0.88531     O
O      0.03715  0.03369  0.38531     O
H       0.0469   0.3541   0.1456     H
C      0.06366   0.9217  0.11677     C
C      0.07203  0.92797     0.25     C
C       0.0783  0.93634  0.38323     C
O      0.08769  0.87235  0.43403     O
Cu      0.0955  0.97181  0.97205    Cu
C      0.10947  0.88149    0.186     C
C      0.10959  0.19727  0.04992     C
C      0.11851  0.89053    0.314     C
C      0.12446  0.37958  0.13386     C
O      0.12765  0.91231  0.06597     O
O      0.13085  0.16683   0.5126     O
H       0.1499   0.5299   0.2017     H
O      0.16683  0.13085   0.0126     O
C      0.17607  0.31135  0.08353     C
O      0.17632  0.00316  0.56135     O
C      0.18559  0.48461  0.16696     C
C      0.19068  0.80062   0.1858     C
C      0.19727  0.10959  0.54992     C
C      0.19938  0.80932   0.3142     C
H        0.215   0.7706   0.1417     H
H       0.2294    0.785   0.3583     H
C      0.23784  0.76216     0.25     C
C      0.28852  0.35104  0.06552     C
C      0.29779  0.52389  0.14991     C
H       0.3006   0.6342   0.3485     H
H       0.3058   0.3242   0.5307     H
C      0.31135  0.17607  0.58353     C
N       0.3186   0.6814     0.25     N
H       0.3242   0.3058   0.0307     H
C      0.34904  0.45734  0.09854     C
C      0.35104  0.28852  0.56552     C
H       0.3541   0.0469   0.6456     H
C      0.36191  0.63395  0.31431     C
H       0.3658   0.6994   0.1515     H
C      0.36605  0.63809  0.18569     C
H       0.3749   0.5507   0.3025     H
C      0.37958  0.12446  0.63386     C
H       0.4256   0.4844   0.0859     H
H       0.4493   0.6251   0.1975     H
C      0.45734  0.34904  0.59854     C
H       0.4701   0.8501   0.2983     H
C      0.47611  0.70221  0.35009     C
H       0.4844   0.4256   0.5859     H
C      0.48461  0.18559  0.66696     C
C      0.51539  0.81441  0.33304     C
H       0.5156   0.5744   0.4141     H
C      0.52389  0.29779  0.64991     C
H       0.5299   0.1499   0.7017     H
C      0.54266  0.65096  0.40146     C
H       0.5507   0.3749   0.8025     H
H       0.5744   0.5156   0.9141     H
C      0.62042  0.87554  0.36614     C
H       0.6251   0.4493   0.6975     H
C      0.63395  0.36191  0.81431     C
H       0.6342   0.3006   0.8485     H
C      0.63809  0.36605  0.68569     C
H       0.6459   0.9531   0.3544     H
C      0.64896  0.71148  0.43448     C
C      0.65096  0.54266  0.90146     C
H       0.6758   0.6942   0.9693     H
N       0.6814   0.3186     0.75     N
C      0.68865  0.82393  0.41647     C
H       0.6942   0.6758   0.4693     H
H       0.6994   0.3658   0.6515     H
C      0.70221  0.47611  0.85009     C
C      0.71148  0.64896  0.93448     C
C      0.76216  0.23784     0.75     C
H       0.7706    0.215   0.6417     H
H        0.785   0.2294   0.8583     H
C      0.80062  0.19068   0.6858     C
C      0.80273  0.89041  0.45008     C
C      0.80932  0.19938   0.8142     C
C      0.81441  0.51539  0.83304     C
O      0.82368  0.99684  0.43865     O
C      0.82393  0.68865  0.91647     C
O      0.83317  0.86915   0.9874     O
H       0.8501   0.4701   0.7983     H
O      0.86915  0.83317   0.4874     O
O      0.87235  0.08769  0.93403     O
C      0.87554  0.62042  0.86614     C
C      0.88149  0.10947    0.686     C
C      0.89041  0.80273  0.95008     C
C      0.89053  0.11851    0.814     C
Cu      0.9045  0.02819  0.02795    Cu
O      0.91231  0.12765  0.56597     O
C       0.9217  0.06366  0.61677     C
C      0.92797  0.07203     0.75     C
C      0.93634   0.0783  0.88323     C
H       0.9531   0.6459   0.8544     H
O      0.96285  0.96631  0.61469     O
O      0.96631  0.96285  0.11469     O
Cu     0.97181   0.0955  0.47205    Cu
H       0.9836   0.0164     0.75     H
O      0.99684  0.82368  0.93865     O
