data_I
_chemical_name_common  '/home/zhangsd/repos/MofS-CGCNN/ML/data/TSD/clean_cifs/ZIWMEZ_clean'
_cell_length_a  5.77820
_cell_length_b 20.40810
_cell_length_c 16.10090
_cell_angle_alpha 90.00000
_cell_angle_beta  94.67400
_cell_angle_gamma 90.00000
_space_group_name_H-M_alt      'P 1'


loop_
_space_group_symop_operation_xyz
  'x, y, z' 

loop_
_atom_site_label
_atom_site_fract_x
_atom_site_fract_y
_atom_site_fract_z
_atom_site_type_symbol
C       0.0014  0.19427    0.103     C
C       0.0014  0.30573    0.603     C
C       0.0256  0.24725   0.1643     C
C       0.0256  0.25275   0.6643     C
N       0.0832  0.12532  0.00172     N
N       0.0832  0.37468  0.50172     N
N        0.089  0.15465  0.78798     N
N        0.089  0.34535  0.28798     N
C       0.0966   0.6947   0.7164     C
C       0.0966   0.8053   0.2164     C
N       0.1242  0.60577  0.46946     N
N       0.1242  0.89423  0.96946     N
C       0.1347    0.743   0.7753     C
C       0.1347    0.757   0.2753     C
H       0.1468   0.5295   0.2214     H
H       0.1468   0.9705   0.7214     H
H       0.1542   0.6063   0.1119     H
H       0.1542   0.8937   0.6119     H
C       0.1607  0.17786   0.0445     C
C       0.1607  0.32214   0.5445     C
C       0.1724   0.6475   0.4094     C
C       0.1724   0.8525   0.9094     C
H       0.1793   0.6794   0.0039     H
H       0.1793   0.8206   0.5039     H
H       0.1909   0.2308   0.4105     H
H       0.1909   0.2692   0.9105     H
Ag     0.19143    0.073  0.89716    Ag
Ag     0.19143    0.427  0.39716    Ag
H       0.1964   0.1588   0.3004     H
H       0.1964   0.3412   0.8004     H
H       0.2075   0.6892   0.6765     H
H       0.2075   0.8108   0.1765     H
C       0.2153   0.2098   0.6685     C
C       0.2153   0.2902   0.1685     C
H       0.2203    0.089   0.1872     H
H       0.2203    0.411   0.6872     H
C       0.2392   0.1626   0.7295     C
C       0.2392   0.3374   0.2295     C
H        0.269   0.7301   0.2754     H
H        0.269   0.7699   0.7754     H
C       0.2882  0.53427   0.2553     C
C       0.2882  0.96573   0.7553     C
Ag     0.28821   0.5308   0.5409    Ag
Ag     0.28821   0.9692   0.0409    Ag
C       0.2918   0.6313   0.1088     C
C       0.2918   0.8687   0.6088     C
H       0.3008   0.2006   0.0368     H
H       0.3008   0.2994   0.5368     H
H        0.307   0.6455   0.3793     H
H        0.307   0.8545   0.8793     H
C       0.3086   0.6751   0.0439     C
C       0.3086   0.8249   0.5439     C
C       0.3258   0.2048   0.4063     C
C       0.3258   0.2952   0.9063     C
C       0.3279   0.1621   0.3397     C
C       0.3279   0.3379   0.8397     C
H       0.3281   0.2133   0.6289     H
H       0.3281   0.2867   0.1289     H
N       0.3448  0.50021  0.32526     N
N       0.3448  0.99979  0.82526     N
C       0.3656   0.0671   0.1945     C
C       0.3656   0.4329   0.6945     C
H       0.3693   0.1341   0.7303     H
H       0.3693   0.3659   0.2303     H
N       0.4389  0.02149  0.14293     N
N       0.4389  0.47851  0.64293     N
C       0.4665   0.5778   0.2392     C
C       0.4665   0.9222   0.7392     C
C        0.476  0.62389   0.1696     C
C        0.476  0.87611   0.6696     C
N        0.498  0.71202   0.0343     N
N        0.498  0.78798   0.5343     N
N        0.502  0.21202   0.4657     N
N        0.502  0.28798   0.9657     N
C        0.524  0.12389   0.3304     C
C        0.524  0.37611   0.8304     C
C       0.5335   0.0778   0.2608     C
C       0.5335   0.4222   0.7608     C
N       0.5611  0.52149  0.35707     N
N       0.5611  0.97851  0.85707     N
H       0.6307   0.6341   0.7697     H
H       0.6307   0.8659   0.2697     H
C       0.6344   0.5671   0.3055     C
C       0.6344   0.9329   0.8055     C
N       0.6552  0.00021  0.17474     N
N       0.6552  0.49979  0.67474     N
H       0.6719   0.7133   0.8711     H
H       0.6719   0.7867   0.3711     H
C       0.6721   0.6621   0.1603     C
C       0.6721   0.8379   0.6603     C
C       0.6742   0.7048   0.0937     C
C       0.6742   0.7952   0.5937     C
C       0.6914   0.1751   0.4561     C
C       0.6914   0.3249   0.9561     C
H        0.693   0.1455   0.1207     H
H        0.693   0.3545   0.6207     H
H       0.6992   0.7006   0.4632     H
H       0.6992   0.7994   0.9632     H
C       0.7082   0.1313   0.3912     C
C       0.7082   0.3687   0.8912     C
Ag     0.71179   0.0308   0.9591    Ag
Ag     0.71179   0.4692   0.4591    Ag
C       0.7118  0.03427   0.2447     C
C       0.7118  0.46573   0.7447     C
H        0.731   0.2301   0.2246     H
H        0.731   0.2699   0.7246     H
C       0.7608   0.6626   0.7705     C
C       0.7608   0.8374   0.2705     C
H       0.7797    0.589   0.3128     H
H       0.7797    0.911   0.8128     H
C       0.7847   0.7098   0.8315     C
C       0.7847   0.7902   0.3315     C
H       0.7925   0.1892   0.8235     H
H       0.7925   0.3108   0.3235     H
H       0.8036   0.6588   0.1996     H
H       0.8036   0.8412   0.6996     H
Ag     0.80857    0.573  0.60284    Ag
Ag     0.80857    0.927  0.10284    Ag
H       0.8091   0.7308   0.0895     H
H       0.8091   0.7692   0.5895     H
H       0.8207   0.1794   0.4961     H
H       0.8207   0.3206   0.9961     H
C       0.8276   0.1475   0.0906     C
C       0.8276   0.3525   0.5906     C
C       0.8393  0.67786   0.4555     C
C       0.8393  0.82214   0.9555     C
H       0.8458   0.1063   0.3881     H
H       0.8458   0.3937   0.8881     H
H       0.8532   0.0295   0.2786     H
H       0.8532   0.4705   0.7786     H
C       0.8653    0.243   0.7247     C
C       0.8653    0.257   0.2247     C
N       0.8758  0.10577  0.03054     N
N       0.8758  0.39423  0.53054     N
C       0.9034   0.1947   0.7836     C
C       0.9034   0.3053   0.2836     C
N        0.911  0.65465  0.71202     N
N        0.911  0.84535  0.21202     N
N       0.9168  0.62532  0.49828     N
N       0.9168  0.87468  0.99828     N
C       0.9744  0.74725   0.3357     C
C       0.9744  0.75275   0.8357     C
C       0.9986  0.69427    0.397     C
C       0.9986  0.80573    0.897     C
