data_I
_chemical_name_common  '/home/zhangsd/repos/MofS-CGCNN/ML/data/TSD/clean_cifs/ZOHBIJ_clean'
_cell_length_a 15.91310
_cell_length_b 13.53960
_cell_length_c  6.64750
_cell_angle_alpha 90.00000
_cell_angle_beta  97.66200
_cell_angle_gamma 90.00000
_space_group_name_H-M_alt      'P 1'


loop_
_space_group_symop_operation_xyz
  'x, y, z' 

loop_
_atom_site_label
_atom_site_fract_x
_atom_site_fract_y
_atom_site_fract_z
_atom_site_type_symbol
H       0.0184   0.5962   0.4496     H
H       0.0184   0.9038   0.9496     H
C       0.0214   0.0476   0.0122     C
C       0.0214   0.4524   0.5122     C
H       0.0371   0.0674   0.8821     H
H       0.0371   0.4326   0.3821     H
C       0.1009   0.0496     0.17     C
C       0.1009   0.4504     0.67     C
O       0.1128    0.512   0.8095     O
O       0.1128    0.988   0.3095     O
O       0.1516   0.1184   0.1565     O
O       0.1516   0.3816   0.6565     O
Eu     0.25087   0.0603  0.46874    Eu
Eu     0.25087   0.4397  0.96874    Eu
O       0.2817   0.6242   0.9481     O
O       0.2817   0.8758   0.4481     O
H       0.3179   0.6986    0.525     H
H       0.3179   0.8014    0.025     H
O       0.3193   0.1373   0.7886     O
O       0.3193   0.3627   0.2886     O
O       0.3202   0.2036   0.3675     O
O       0.3202   0.2964   0.8675     O
C       0.3562   0.2171   0.8395     C
C       0.3562   0.2829   0.3395     C
C       0.3582   0.6132     0.02     C
C       0.3582   0.8868     0.52     C
C       0.3767   0.7028    0.552     C
C       0.3767   0.7972    0.052     C
O       0.3891   0.5301   0.0617     O
O       0.3891   0.9699   0.5617     O
C       0.4134   0.7038   0.0551     C
C       0.4134   0.7962   0.5551     C
N       0.4204   0.6189   0.5853     N
N       0.4204   0.8811   0.0853     N
C       0.4518   0.2157   0.8765     C
C       0.4518   0.2843   0.3765     C
H       0.4636   0.0688   0.8569     H
H       0.4636   0.4312   0.3569     H
H       0.4722   0.1362   0.4032     H
H       0.4722   0.3638   0.9032     H
C       0.4951   0.1265     0.88     C
C       0.4951   0.3735     0.38     C
C        0.499   0.1973   0.4076     C
C        0.499   0.3027   0.9076     C
C        0.501   0.6973   0.0924     C
C        0.501   0.8027   0.5924     C
C       0.5049   0.6265     0.62     C
C       0.5049   0.8735     0.12     C
H       0.5278   0.6362   0.0968     H
H       0.5278   0.8638   0.5968     H
H       0.5364   0.5688   0.6431     H
H       0.5364   0.9312   0.1431     H
C       0.5482   0.7157   0.6235     C
C       0.5482   0.7843   0.1235     C
N       0.5796   0.1189   0.9147     N
N       0.5796   0.3811   0.4147     N
C       0.5866   0.2038   0.4449     C
C       0.5866   0.2962   0.9449     C
O       0.6109   0.0301   0.4383     O
O       0.6109   0.4699   0.9383     O
C       0.6233   0.2028    0.948     C
C       0.6233   0.2972    0.448     C
C       0.6418   0.1132     0.48     C
C       0.6418   0.3868     0.98     C
C       0.6438   0.7171   0.6605     C
C       0.6438   0.7829   0.1605     C
O       0.6798   0.7036   0.1325     O
O       0.6798   0.7964   0.6325     O
O       0.6807   0.6373   0.7114     O
O       0.6807   0.8627   0.2114     O
H       0.6821   0.1986    0.975     H
H       0.6821   0.3014    0.475     H
O       0.7183   0.1242   0.5519     O
O       0.7183   0.3758   0.0519     O
Eu     0.74913   0.5603  0.03126    Eu
Eu     0.74913   0.9397  0.53126    Eu
O       0.8484   0.6184   0.3435     O
O       0.8484   0.8816   0.8435     O
O       0.8872    0.012   0.6905     O
O       0.8872    0.488   0.1905     O
C       0.8991   0.5496     0.33     C
C       0.8991   0.9504     0.83     C
H       0.9629   0.5674   0.6179     H
H       0.9629   0.9326   0.1179     H
C       0.9786   0.5476   0.4878     C
C       0.9786   0.9524   0.9878     C
H       0.9816   0.0962   0.0504     H
H       0.9816   0.4038   0.5504     H
