data_I
_chemical_name_common  '/home/zhangsd/repos/MofS-CGCNN/ML/data/TSD/clean_cifs/ZOHBEF_clean'
_cell_length_a 15.93000
_cell_length_b 13.58800
_cell_length_c  6.66300
_cell_angle_alpha 90.00000
_cell_angle_beta  97.39200
_cell_angle_gamma 90.00000
_space_group_name_H-M_alt      'P 1'


loop_
_space_group_symop_operation_xyz
  'x, y, z' 

loop_
_atom_site_label
_atom_site_fract_x
_atom_site_fract_y
_atom_site_fract_z
_atom_site_type_symbol
C       0.0187   0.0461    0.511     C
C       0.0187   0.4539    0.011     C
H       0.0219   0.5927   0.9476     H
H       0.0219   0.9073   0.4476     H
H       0.0335   0.0675   0.3812     H
H       0.0335   0.4325   0.8812     H
C       0.1007   0.0476    0.671     C
C       0.1007   0.4524    0.171     C
O       0.1114   0.5133    0.315     O
O       0.1114   0.9867    0.815     O
O        0.151    0.117   0.6606     O
O        0.151    0.383   0.1606     O
Pr     0.25055  0.05996  0.97139    Pr
Pr     0.25055  0.44004  0.47139    Pr
O       0.2813   0.6245   0.4505     O
O       0.2813   0.8755   0.9505     O
H       0.3181   0.6978   0.0309     H
H       0.3181   0.8022   0.5309     H
O       0.3194    0.138   0.2901     O
O       0.3194    0.362   0.7901     O
O       0.3204   0.2044   0.8667     O
O       0.3204   0.2956   0.3667     O
C       0.3567   0.2161   0.3425     C
C       0.3567   0.2839   0.8425     C
C       0.3577   0.6144   0.5218     C
C       0.3577   0.8856   0.0218     C
C       0.3768   0.7025   0.0552     C
C       0.3768   0.7975   0.5552     C
O       0.3898   0.5309    0.563     O
O       0.3898   0.9691    0.063     O
C       0.4136   0.7042   0.5578     C
C       0.4136   0.7958   0.0578     C
N       0.4216   0.6195    0.086     N
N       0.4216   0.8805    0.586     N
C       0.4515   0.2166    0.377     C
C       0.4515   0.2834    0.877     C
H        0.463   0.0688   0.3547     H
H        0.463   0.4312   0.8547     H
H       0.4729   0.1361   0.9032     H
H       0.4729   0.3639   0.4032     H
C       0.4944   0.1262   0.3789     C
C       0.4944   0.3738   0.8789     C
C       0.4993   0.1972    0.907     C
C       0.4993   0.3028    0.407     C
C       0.5007   0.6972    0.593     C
C       0.5007   0.8028    0.093     C
C       0.5056   0.6262   0.1211     C
C       0.5056   0.8738   0.6211     C
H       0.5271   0.6361   0.5968     H
H       0.5271   0.8639   0.0968     H
H        0.537   0.5688   0.1453     H
H        0.537   0.9312   0.6453     H
C       0.5485   0.7166    0.123     C
C       0.5485   0.7834    0.623     C
N       0.5784   0.1195    0.414     N
N       0.5784   0.3805    0.914     N
C       0.5864   0.2042   0.9422     C
C       0.5864   0.2958   0.4422     C
O       0.6102   0.0309    0.937     O
O       0.6102   0.4691    0.437     O
C       0.6232   0.2025   0.4448     C
C       0.6232   0.2975   0.9448     C
C       0.6423   0.1144   0.9782     C
C       0.6423   0.3856   0.4782     C
C       0.6433   0.7161   0.1575     C
C       0.6433   0.7839   0.6575     C
O       0.6796   0.7044   0.6333     O
O       0.6796   0.7956   0.1333     O
O       0.6806    0.638   0.2099     O
O       0.6806    0.862   0.7099     O
H       0.6819   0.1978   0.4691     H
H       0.6819   0.3022   0.9691     H
O       0.7187   0.1245   0.0495     O
O       0.7187   0.3755   0.5495     O
Pr     0.74945  0.55996  0.52861    Pr
Pr     0.74945  0.94004  0.02861    Pr
O        0.849    0.617   0.8394     O
O        0.849    0.883   0.3394     O
O       0.8886   0.0133    0.185     O
O       0.8886   0.4867    0.685     O
C       0.8993   0.5476    0.829     C
C       0.8993   0.9524    0.329     C
H       0.9665   0.5675   0.1188     H
H       0.9665   0.9325   0.6188     H
H       0.9781   0.0927   0.5524     H
H       0.9781   0.4073   0.0524     H
C       0.9813   0.5461    0.989     C
C       0.9813   0.9539    0.489     C
