data_I
_chemical_name_common  '/home/zhangsd/repos/MofS-CGCNN/ML/data/TSD/clean_cifs/ZOMNIA_clean'
_cell_length_a 13.97100
_cell_length_b 12.84100
_cell_length_c  7.13700
_cell_angle_alpha 90.00000
_cell_angle_beta  90.74000
_cell_angle_gamma 90.00000
_space_group_name_H-M_alt      'P 1'


loop_
_space_group_symop_operation_xyz
  'x, y, z' 

loop_
_atom_site_label
_atom_site_fract_x
_atom_site_fract_y
_atom_site_fract_z
_atom_site_type_symbol
Zn         0.0  0.42832      0.0    Zn
Mo         0.0  0.50868      0.5    Mo
O       0.0172   0.4304   0.2992     O
C       0.0497   0.6518    0.027     C
H       0.0541   0.6633   0.1612     H
H       0.0774   0.5168   0.9079     H
H       0.0806   0.7103   0.9665     H
N       0.1011   0.5617   0.9848     N
N       0.1063    0.308   0.9794     N
H       0.1138   0.2974   0.7126     H
H       0.1332   0.2947    0.244     H
C       0.1367   0.2655    0.821     C
C       0.1446   0.2656    0.127     C
H       0.1898   0.5261    0.205     H
C       0.1957    0.183    0.792     C
C       0.1978   0.5433    0.074     C
C       0.2055   0.1726    0.115     C
H       0.2075   0.1575   0.6725     H
H       0.2234   0.1358   0.2217     H
H       0.2281   0.4844   0.0135     H
C       0.2351   0.1417    0.942     C
C       0.2649   0.6417    0.058     C
H       0.2719   0.9844   0.9865     H
H       0.2766   0.6358   0.7783     H
H       0.2925   0.6575   0.3275     H
C       0.2945   0.6726    0.885     C
C       0.3022   0.0433    0.926     C
C       0.3043    0.683    0.208     C
H       0.3102   0.0261    0.795     H
C       0.3554   0.7656    0.873     C
C       0.3633   0.7655    0.179     C
H       0.3668   0.7947    0.756     H
H       0.3862   0.7974   0.2874     H
N       0.3937    0.808   0.0206     N
N       0.3989   0.0617   0.0152     N
H       0.4194   0.2103   0.0335     H
H       0.4226   0.0168   0.0921     H
H       0.4459   0.1633   0.8388     H
C       0.4503   0.1518    0.973     C
O       0.4828   0.9304   0.7008     O
Mo         0.5  0.00868      0.5    Mo
Zn         0.5  0.92832      0.0    Zn
O       0.5172   0.9304   0.2992     O
C       0.5497   0.1518    0.027     C
H       0.5541   0.1633   0.1612     H
H       0.5774   0.0168   0.9079     H
H       0.5806   0.2103   0.9665     H
N       0.6011   0.0617   0.9848     N
N       0.6063    0.808   0.9794     N
H       0.6138   0.7974   0.7126     H
H       0.6332   0.7947    0.244     H
C       0.6367   0.7655    0.821     C
C       0.6446   0.7656    0.127     C
H       0.6898   0.0261    0.205     H
C       0.6957    0.683    0.792     C
C       0.6978   0.0433    0.074     C
C       0.7055   0.6726    0.115     C
H       0.7075   0.6575   0.6725     H
H       0.7234   0.6358   0.2217     H
H       0.7281   0.9844   0.0135     H
C       0.7351   0.6417    0.942     C
C       0.7649   0.1417    0.058     C
H       0.7719   0.4844   0.9865     H
H       0.7766   0.1358   0.7783     H
H       0.7925   0.1575   0.3275     H
C       0.7945   0.1726    0.885     C
C       0.8022   0.5433    0.926     C
C       0.8043    0.183    0.208     C
H       0.8102   0.5261    0.795     H
C       0.8554   0.2656    0.873     C
C       0.8633   0.2655    0.179     C
H       0.8668   0.2947    0.756     H
H       0.8862   0.2974   0.2874     H
N       0.8937    0.308   0.0206     N
N       0.8989   0.5617   0.0152     N
H       0.9194   0.7103   0.0335     H
H       0.9226   0.5168   0.0921     H
H       0.9459   0.6633   0.8388     H
C       0.9503   0.6518    0.973     C
O       0.9828   0.4304   0.7008     O
