data_I
_chemical_name_common  '/home/zhangsd/repos/MofS-CGCNN/ML/data/TSD/clean_cifs/ZOMNEW_clean'
_cell_length_a 13.90100
_cell_length_b 12.71300
_cell_length_c  7.07000
_cell_angle_alpha 90.00000
_cell_angle_beta  91.13900
_cell_angle_gamma 90.00000
_space_group_name_H-M_alt      'P 1'


loop_
_space_group_symop_operation_xyz
  'x, y, z' 

loop_
_atom_site_label
_atom_site_fract_x
_atom_site_fract_y
_atom_site_fract_z
_atom_site_type_symbol
Mo         0.0  0.00072      0.0    Mo
Zn         0.0  0.08125      0.5    Zn
O       0.0213   0.0798   0.7985     O
C       0.0518   0.8535   0.5347     C
H       0.0537   0.8469   0.6714     H
H       0.0847   0.7932   0.4823     H
N       0.1022   0.9501   0.4804     N
N       0.1074   0.2043   0.4735     N
H        0.114    0.943   0.3549     H
H       0.1143   0.2055   0.2011     H
H       0.1316   0.2222   0.7447     H
C       0.1355     0.24   0.3103     C
C       0.1461   0.2492   0.6263     C
H       0.1858   0.9802   0.7033     H
C       0.1951   0.9652   0.5705     C
C       0.1961   0.3275   0.2912     C
H       0.2082   0.3543   0.1716     H
C       0.2094   0.3378   0.6153     C
H       0.2252   0.0264   0.5149     H
H       0.2316    0.371    0.725     H
C       0.2365   0.3725   0.4448     C
C       0.2635   0.8725   0.5552     C
H       0.2684    0.871    0.275     H
H       0.2748   0.5264   0.4851     H
C       0.2906   0.8378   0.3847     C
H       0.2918   0.8543   0.8284     H
C       0.3039   0.8275   0.7088     C
C       0.3049   0.4652   0.4295     C
H       0.3142   0.4802   0.2967     H
C       0.3539   0.7492   0.3737     C
C       0.3645     0.74   0.6897     C
H       0.3684   0.7222   0.2553     H
H       0.3857   0.7055   0.7989     H
H        0.386    0.443   0.6451     H
N       0.3926   0.7043   0.5265     N
N       0.3978   0.4501   0.5196     N
H       0.4153   0.2932   0.5177     H
H       0.4463   0.3469   0.3286     H
C       0.4482   0.3535   0.4653     C
O       0.4787   0.5798   0.2015     O
Mo         0.5  0.50072      0.0    Mo
Zn         0.5  0.58125      0.5    Zn
O       0.5213   0.5798   0.7985     O
C       0.5518   0.3535   0.5347     C
H       0.5537   0.3469   0.6714     H
H       0.5847   0.2932   0.4823     H
N       0.6022   0.4501   0.4804     N
N       0.6074   0.7043   0.4735     N
H        0.614    0.443   0.3549     H
H       0.6143   0.7055   0.2011     H
H       0.6316   0.7222   0.7447     H
C       0.6355     0.74   0.3103     C
C       0.6461   0.7492   0.6263     C
H       0.6858   0.4802   0.7033     H
C       0.6951   0.4652   0.5705     C
C       0.6961   0.8275   0.2912     C
H       0.7082   0.8543   0.1716     H
C       0.7094   0.8378   0.6153     C
H       0.7252   0.5264   0.5149     H
H       0.7316    0.871    0.725     H
C       0.7365   0.8725   0.4448     C
C       0.7635   0.3725   0.5552     C
H       0.7684    0.371    0.275     H
H       0.7748   0.0264   0.4851     H
C       0.7906   0.3378   0.3847     C
H       0.7918   0.3543   0.8284     H
C       0.8039   0.3275   0.7088     C
C       0.8049   0.9652   0.4295     C
H       0.8142   0.9802   0.2967     H
C       0.8539   0.2492   0.3737     C
C       0.8645     0.24   0.6897     C
H       0.8684   0.2222   0.2553     H
H       0.8857   0.2055   0.7989     H
H        0.886    0.943   0.6451     H
N       0.8926   0.2043   0.5265     N
N       0.8978   0.9501   0.5196     N
H       0.9153   0.7932   0.5177     H
H       0.9463   0.8469   0.3286     H
C       0.9482   0.8535   0.4653     C
O       0.9787   0.0798   0.2015     O
