data_I
_chemical_name_common  '/home/zhangsd/repos/MofS-CGCNN/ML/data/TSD/clean_cifs/ZOXGOK_clean'
_cell_length_a 13.75700
_cell_length_b 20.75300
_cell_length_c  7.86000
_cell_angle_alpha 90.00000
_cell_angle_beta  91.66000
_cell_angle_gamma 90.00000
_space_group_name_H-M_alt      'P 1'


loop_
_space_group_symop_operation_xyz
  'x, y, z' 

loop_
_atom_site_label
_atom_site_fract_x
_atom_site_fract_y
_atom_site_fract_z
_atom_site_type_symbol
O      0.00871  0.58525   0.1524     O
O      0.00871  0.91475   0.6524     O
C       0.0117  0.63523   0.5032     C
C       0.0117  0.86477   0.0032     C
O       0.0264  0.04508   0.7482     O
O       0.0264  0.45492   0.2482     O
C       0.0304   0.6822   0.3834     C
C       0.0304   0.8178   0.8834     C
H        0.045   0.1181    0.993     H
H        0.045   0.3819    0.493     H
H         0.05   0.2026    0.652     H
H         0.05   0.2974    0.152     H
C       0.0544  0.20602   0.2223     C
C       0.0544  0.29398   0.7223     C
C       0.0578  0.56863   0.7577     C
C       0.0578  0.93137   0.2577     C
C       0.0786  0.09941   0.3785     C
C       0.0786  0.40059   0.8785     C
C       0.0825  0.23026   0.7102     C
C       0.0825  0.26974   0.2102     C
C       0.0839  0.61347   0.6171     C
C       0.0839  0.88653   0.1171     C
Cu     0.08405  0.51081  0.07707    Cu
Cu     0.08405  0.98919  0.57707    Cu
C       0.1139  0.16386   0.3192     C
C       0.1139  0.33614   0.8192     C
O      0.12031  0.55995   0.8754     O
O      0.12031  0.94005   0.3754     O
C       0.1252  0.70645   0.3711     C
C       0.1252  0.79355   0.8711     C
O      0.13753  0.06571   0.4666     O
O      0.13753  0.43429   0.9666     O
H        0.145     0.74    0.285     H
H        0.145     0.76    0.785     H
C       0.1709   0.2085   0.7807     C
C       0.1709   0.2915   0.2807     C
C       0.1785  0.63583   0.5992     C
C       0.1785  0.86417   0.0992     C
H        0.188   0.1684     0.77     H
H        0.188   0.3316     0.27     H
C       0.1994  0.68166    0.477     C
C       0.1994  0.81834    0.977     C
C       0.2045   0.1854   0.3798     C
C       0.2045   0.3146   0.8798     C
H        0.227   0.6247    0.662     H
H        0.227   0.8753    0.162     H
C       0.2343  0.24836   0.3592     C
C       0.2343  0.25164   0.8592     C
H        0.246   0.1565   0.4357     H
H        0.246   0.3435   0.9357     H
C       0.3037  0.70234   0.4551     C
C       0.3037  0.79766   0.9551     C
O      0.32234  0.74428   0.8944     O
O      0.32234  0.75572   0.3944     O
C       0.3338   0.2328   0.9244     C
C       0.3338   0.2672   0.4244     C
O      0.35661  0.17299   0.9237     O
O      0.35661  0.32701   0.4237     O
O      0.36576  0.66004   0.5056     O
O      0.36576  0.83996   0.0056     O
O       0.3924  0.22383    0.469     O
O       0.3924  0.27617    0.969     O
Cu     0.49698  0.16455  0.96594    Cu
Cu     0.49698  0.33545  0.46594    Cu
Cu     0.50302  0.66455  0.53406    Cu
Cu     0.50302  0.83545  0.03406    Cu
O       0.6076  0.72383    0.031     O
O       0.6076  0.77617    0.531     O
O      0.63424  0.16004   0.9944     O
O      0.63424  0.33996   0.4944     O
O      0.64339  0.67299   0.5763     O
O      0.64339  0.82701   0.0763     O
C       0.6662   0.7328   0.5756     C
C       0.6662   0.7672   0.0756     C
O      0.67766  0.24428   0.6056     O
O      0.67766  0.25572   0.1056     O
C       0.6963  0.20234   0.0449     C
C       0.6963  0.29766   0.5449     C
H        0.754   0.6565   0.0643     H
H        0.754   0.8435   0.5643     H
C       0.7657  0.74836   0.1408     C
C       0.7657  0.75164   0.6408     C
H        0.773   0.1247    0.838     H
H        0.773   0.3753    0.338     H
C       0.7955   0.6854   0.1202     C
C       0.7955   0.8146   0.6202     C
C       0.8006  0.18166    0.023     C
C       0.8006  0.31834    0.523     C
H        0.812   0.6684     0.73     H
H        0.812   0.8316     0.23     H
C       0.8215  0.13583   0.9008     C
C       0.8215  0.36417   0.4008     C
C       0.8291   0.7085   0.7193     C
C       0.8291   0.7915   0.2193     C
H        0.855     0.24    0.215     H
H        0.855     0.26    0.715     H
O      0.86247  0.56571   0.0334     O
O      0.86247  0.93429   0.5334     O
C       0.8748  0.20645   0.1289     C
C       0.8748  0.29355   0.6289     C
O      0.87969  0.05995   0.6246     O
O      0.87969  0.44005   0.1246     O
C       0.8861  0.66386   0.1808     C
C       0.8861  0.83614   0.6808     C
Cu     0.91595  0.01081  0.42293    Cu
Cu     0.91595  0.48919  0.92293    Cu
C       0.9161  0.11347   0.8829     C
C       0.9161  0.38653   0.3829     C
C       0.9175  0.73026   0.7898     C
C       0.9175  0.76974   0.2898     C
C       0.9214  0.59941   0.1215     C
C       0.9214  0.90059   0.6215     C
C       0.9422  0.06863   0.7423     C
C       0.9422  0.43137   0.2423     C
C       0.9456  0.70602   0.2777     C
C       0.9456  0.79398   0.7777     C
H         0.95   0.7026    0.848     H
H         0.95   0.7974    0.348     H
H        0.955   0.6181    0.507     H
H        0.955   0.8819    0.007     H
C       0.9696   0.1822   0.1166     C
C       0.9696   0.3178   0.6166     C
O       0.9736  0.54508   0.7518     O
O       0.9736  0.95492   0.2518     O
C       0.9883  0.13523   0.9968     C
C       0.9883  0.36477   0.4968     C
O      0.99129  0.08525   0.3476     O
O      0.99129  0.41475   0.8476     O
