data_I
_chemical_name_common  '/home/zhangsd/repos/MofS-CGCNN/ML/data/TSD/clean_cifs/ZOXNEH_clean'
_cell_length_a  6.94370
_cell_length_b 13.32260
_cell_length_c 16.38480
_cell_angle_alpha 90.00000
_cell_angle_beta  90.00000
_cell_angle_gamma 90.00000
_space_group_name_H-M_alt      'P 1'


loop_
_space_group_symop_operation_xyz
  'x, y, z' 

loop_
_atom_site_label
_atom_site_fract_x
_atom_site_fract_y
_atom_site_fract_z
_atom_site_type_symbol
H          0.0   0.0152   0.3384     H
C          0.0   0.0218   0.6135     C
C          0.0   0.0296   0.4634     C
C          0.0   0.1234   0.6172     C
O          0.0   0.1271   0.7633     O
C          0.0    0.136     0.47     C
C          0.0   0.1771   0.6986     C
C          0.0   0.1819   0.5445     C
S          0.0  0.21573   0.3818     S
H          0.0   0.2516   0.5477     H
O          0.0    0.271   0.6987     O
Cd         0.0  0.27636  0.84059    Cd
O          0.0   0.3167   0.4127     O
O          0.0   0.6833   0.5873     O
Cd         0.0  0.72364  0.15941    Cd
O          0.0    0.729   0.3013     O
H          0.0   0.7484   0.4523     H
S          0.0  0.78427   0.6182     S
C          0.0   0.8181   0.4555     C
C          0.0   0.8229   0.3014     C
C          0.0    0.864     0.53     C
O          0.0   0.8729   0.2367     O
C          0.0   0.8766   0.3828     C
C          0.0   0.9704   0.5366     C
C          0.0   0.9782   0.3865     C
H          0.0   0.9848   0.6616     H
O       0.1713   0.1905   0.3345     O
O       0.1713   0.8095   0.6655     O
O       0.3287   0.3095   0.8345     O
O       0.3287   0.6905   0.1655     O
O          0.5   0.1833   0.9127     O
Cd         0.5  0.22364  0.34059    Cd
O          0.5    0.229   0.1987     O
H          0.5   0.2484   0.0477     H
S          0.5  0.28427   0.8818     S
C          0.5   0.3181   0.0445     C
C          0.5   0.3229   0.1986     C
C          0.5    0.364     0.97     C
O          0.5   0.3729   0.2633     O
C          0.5   0.3766   0.1172     C
C          0.5   0.4704   0.9634     C
C          0.5   0.4782   0.1135     C
H          0.5   0.4848   0.8384     H
H          0.5   0.5152   0.1616     H
C          0.5   0.5218   0.8865     C
C          0.5   0.5296   0.0366     C
C          0.5   0.6234   0.8828     C
O          0.5   0.6271   0.7367     O
C          0.5    0.636     0.03     C
C          0.5   0.6771   0.8014     C
C          0.5   0.6819   0.9555     C
S          0.5  0.71573   0.1182     S
H          0.5   0.7516   0.9523     H
O          0.5    0.771   0.8013     O
Cd         0.5  0.77636  0.65941    Cd
O          0.5   0.8167   0.0873     O
O       0.6713   0.3095   0.8345     O
O       0.6713   0.6905   0.1655     O
O       0.8287   0.1905   0.3345     O
O       0.8287   0.8095   0.6655     O
