data_I
_chemical_name_common  '/home/zhangsd/repos/MofS-CGCNN/ML/data/TSD/clean_cifs/ZOXTUD_clean'
_cell_length_a  9.14430
_cell_length_b 13.00000
_cell_length_c 18.40860
_cell_angle_alpha 72.43510
_cell_angle_beta  75.61900
_cell_angle_gamma 69.40850
_space_group_name_H-M_alt      'P 1'


loop_
_space_group_symop_operation_xyz
  'x, y, z' 

loop_
_atom_site_label
_atom_site_fract_x
_atom_site_fract_y
_atom_site_fract_z
_atom_site_type_symbol
H       0.0019   0.6435   0.6545     H
C        0.002   0.9389   0.8121     C
C       0.0202   0.1578    0.203     C
O      0.02081  0.59988   0.4953     O
C       0.0232   0.7196   0.7306     C
N       0.0269   0.0366   0.5962     N
O       0.0304   0.2756   0.9548     O
O       0.0373   0.5492   0.1158     O
O       0.0552   0.0343   0.1225     O
C       0.0565   0.1401   0.5709     C
N       0.0616   0.8104   0.7298     N
C       0.0685   0.6391   0.0777     C
C       0.0733    0.778    0.457     C
N       0.0784   0.3095   0.2071     N
O      0.08044  0.99482   0.7587     O
C       0.0862   0.6597   0.6669     C
C       0.1078    0.233   0.1642     C
O      0.11599  0.90012   0.0047     O
C       0.1168   0.9446   0.4182     C
C       0.1193    0.654   0.4796     C
H       0.1254   0.0989   0.4139     H
H        0.131   0.7066   0.6222     H
Tb     0.15282  0.09047  0.99423    Tb
O      0.16604  0.49482   0.2587     O
H       0.1664   0.5903   0.6829     H
N       0.1809   0.8347   0.4481     N
Co     0.19932  0.91399  0.66317    Co
C       0.1995   0.0304    0.402     C
O        0.212   0.4657   0.3775     O
C       0.2147   0.1391   0.5777     C
Co     0.22352  0.41399  0.16317    Co
C       0.2256   0.2401   0.0929     C
C       0.2325   0.6401   0.0709     C
Tb     0.23752  0.40953  0.50577    Tb
H       0.2454   0.0449   0.3485     H
C        0.247   0.4389   0.3121     C
C       0.2529    0.846   0.0204     C
O       0.2608   0.2244   0.5452     O
O       0.2649   0.6002    0.482     O
O       0.2669   0.1671   0.0537     O
H       0.2768   0.8035   0.4601     H
H       0.2815   0.0027   0.4333     H
O       0.2823   0.3214   0.0748     O
H       0.2825   0.5027   0.9333     H
O       0.2977   0.0492   0.6158     O
H       0.2999   0.8565   0.8455     H
C       0.3083    0.722    0.043     C
O       0.3215   0.8214   0.5748     O
N       0.3403   0.5366   0.0962     N
O       0.3471   0.8998    0.018     O
H       0.3612   0.5449   0.8485     H
H       0.3618   0.5989   0.9139     H
C       0.3681   0.5304    0.902     C
C        0.381   0.3422    0.297     C
N       0.3982   0.3104   0.2298     N
N        0.405   0.8095   0.7071     N
C       0.4128   0.8403   0.8331     C
H       0.4396   0.9097   0.8171     H
C       0.4414   0.7401   0.5929     C
H       0.4596   0.3035   0.9601     H
H       0.4598   0.7934   0.8778     H
N       0.4637   0.6653   0.0519     N
C       0.4734   0.7804   0.7694     C
C       0.4796   0.5554   0.0818     C
O       0.4877   0.3329   0.4463     O
C        0.495    0.733   0.6642     C
C        0.505    0.267   0.3358     C
O       0.5123   0.6671   0.5537     O
C       0.5204   0.4446   0.9182     C
C       0.5266   0.2196   0.2306     C
N       0.5363   0.3347   0.9481     N
H       0.5402   0.2066   0.1222     H
H       0.5404   0.6965   0.0399     H
C       0.5586   0.2599   0.4071     C
H       0.5604   0.0903   0.1829     H
C       0.5872   0.1597   0.1669     C
N        0.595   0.1905   0.2929     N
N       0.6018   0.6896   0.7702     N
C        0.619   0.6578    0.703     C
C       0.6319   0.4696    0.098     C
H       0.6382   0.4011   0.0861     H
H       0.6388   0.4551   0.1515     H
O       0.6529   0.1002    0.982     O
N       0.6597   0.4634   0.9038     N
O       0.6785   0.1786   0.4252     O
C       0.6917    0.278    0.957     C
H       0.7001   0.1435   0.1545     H
O       0.7023   0.9508   0.3842     O
H       0.7175   0.4973   0.0667     H
O       0.7177   0.6786   0.9252     O
H       0.7185   0.9973   0.5667     H
H       0.7232   0.1965   0.5399     H
O       0.7331   0.8329   0.9463     O
O       0.7351   0.3998    0.518     O
O       0.7392   0.7756   0.4548     O
C       0.7471    0.154   0.9796     C
C        0.753   0.5611   0.6879     C
H       0.7546   0.9551   0.6515     H
Tb     0.76248  0.59047  0.49423    Tb
C       0.7675   0.3599   0.9291     C
C       0.7744   0.7599   0.9071     C
Co     0.77648  0.58601  0.83683    Co
C       0.7853   0.8609   0.4223     C
O        0.788   0.5343   0.6225     O
C       0.8005   0.9696    0.598     C
Co     0.80068  0.08601  0.33683    Co
N       0.8191   0.1653   0.5519     N
H       0.8336   0.4097   0.3171     H
O      0.83396  0.50518   0.7413     O
Tb     0.84718  0.90953  0.00577    Tb
H        0.869   0.2934   0.3778     H
H       0.8746   0.9011   0.5861     H
C       0.8807    0.346   0.5204     C
C       0.8832   0.0554   0.5818     C
O      0.88401  0.09988   0.9953     O
C       0.8922    0.767   0.8358     C
C       0.9138   0.3403   0.3331     C
O      0.91956  0.00518   0.2413     O
N       0.9216   0.6905   0.7929     N
C       0.9267    0.222    0.543     C
C       0.9315   0.3609   0.9223     C
N       0.9384   0.1896   0.2702     N
C       0.9435   0.8599   0.4291     C
O       0.9448   0.9657   0.8775     O
O       0.9627   0.4508   0.8842     O
O       0.9696   0.7244   0.0452     O
N       0.9731   0.9634   0.4038     N
C       0.9768   0.2804   0.2694     C
O      0.97919  0.40012   0.5047     O
C       0.9798   0.8422    0.797     C
C        0.998   0.0611   0.1879     C
H       0.9981   0.3565   0.3455     H
