data_I
_chemical_name_common  '/home/zhangsd/repos/MofS-CGCNN/ML/data/TSD/clean_cifs/ZOZKAC_clean'
_cell_length_a 13.06960
_cell_length_b 13.06960
_cell_length_c 11.28670
_cell_angle_alpha 90.00000
_cell_angle_beta  90.00000
_cell_angle_gamma 90.00000
_space_group_name_H-M_alt      'P 1'


loop_
_space_group_symop_operation_xyz
  'x, y, z' 

loop_
_atom_site_label
_atom_site_fract_x
_atom_site_fract_y
_atom_site_fract_z
_atom_site_type_symbol
H       0.0014    0.989   0.9644     H
Mn     0.01037  0.74303  0.35474    Mn
H        0.011   0.0014   0.2144     H
C       0.0288   0.1508   0.1696     C
C       0.0454   0.8519   0.0316     C
C       0.0552   0.1724   0.5887     C
C       0.0554   0.0567   0.2208     C
O       0.0565   0.2399   0.6693     O
C       0.0567   0.9446   0.9708     C
C       0.0725   0.8411   0.6091     C
H       0.0774   0.2949   0.1464     H
O       0.0875   0.7721   0.5309     O
C       0.0946    0.232   0.1796     C
O       0.0948   0.3676   0.9288     O
O       0.0951   0.6228   0.2756     O
O       0.0963   0.1403   0.8884     O
H        0.121   0.4993   0.1013     H
H       0.1212   0.7254   0.0825     H
O       0.1276   0.8646   0.3073     O
C       0.1278   0.7866   0.0413     C
O       0.1354   0.1276   0.5573     O
O       0.1403   0.9037   0.6384     O
C       0.1481   0.0454   0.2816     C
C       0.1508   0.9712   0.9196     C
C       0.1589   0.0725   0.8591     C
C       0.1724   0.9448   0.3387     C
C       0.1866   0.6026   0.2929     C
C       0.1878   0.2205   0.2398     C
C       0.1889   0.4825   0.1166     C
C       0.1898   0.3649   0.9374     C
C       0.2134   0.1278   0.2913     C
Mn     0.21927  0.25006   0.7079    Mn
C       0.2205   0.8122   0.9898     C
O       0.2279   0.0875   0.7809     O
C        0.232   0.9054   0.9296     C
H       0.2327   0.2754   0.2451     H
C       0.2392   0.5252   0.2133     C
O       0.2399   0.9435   0.4193     O
O       0.2408    0.643   0.3722     O
C        0.241   0.4144   0.0425     C
O         0.25   0.3218   0.8661     O
Mn     0.25006  0.78073   0.4579    Mn
Mn     0.25697  0.01037  0.60474    Mn
H       0.2746   0.1212   0.3325     H
H       0.2754   0.7673   0.9951     H
H       0.2949   0.9226   0.8964     H
O       0.3218     0.75   0.6161     O
C       0.3404   0.4996   0.2372     C
C       0.3418   0.3888   0.0684     C
H       0.3428   0.6238   0.7698     H
O        0.357   0.2408   0.6222     O
C       0.3649   0.8102   0.6874     C
O       0.3676   0.9052   0.6788     O
H        0.374   0.5286   0.3016     H
H       0.3762   0.3428   0.0198     H
O       0.3772   0.0951   0.5256     O
C       0.3888   0.6582   0.8184     C
C       0.3914   0.4299   0.1639     C
C       0.3974   0.1866   0.5429     C
H       0.4117   0.5412     0.93     H
C       0.4144    0.759   0.7925     C
C       0.4299   0.6086   0.9139     C
H       0.4588   0.4117     0.18     H
H       0.4714    0.374   0.5516     H
C       0.4748   0.2392   0.4633     C
C       0.4825   0.8111   0.8666     C
H       0.4993    0.879   0.8513     H
C       0.4996   0.6596   0.9872     C
C       0.5004   0.3404   0.4872     C
H       0.5007    0.121   0.3513     H
C       0.5175   0.1889   0.3666     C
C       0.5252   0.7608   0.9633     C
H       0.5286    0.626   0.0516     H
H       0.5412   0.5883     0.68     H
C       0.5701   0.3914   0.4139     C
C       0.5856    0.241   0.2925     C
H       0.5883   0.4588     0.43     H
C       0.6026   0.8134   0.0429     C
C       0.6086   0.5701   0.6639     C
C       0.6112   0.3418   0.3184     C
O       0.6228   0.9049   0.0256     O
H       0.6238   0.6572   0.5198     H
H        0.626   0.4714   0.8016     H
O       0.6324   0.0948   0.1788     O
C       0.6351   0.1898   0.1874     C
O        0.643   0.7592   0.1222     O
H       0.6572   0.3762   0.2698     H
C       0.6582   0.6112   0.5684     C
C       0.6596   0.5004   0.7372     C
O       0.6782     0.25   0.1161     O
H       0.7051   0.0774   0.3964     H
H       0.7246   0.2327   0.4951     H
H       0.7254   0.8788   0.8325     H
Mn     0.74303  0.98963  0.10474    Mn
Mn     0.74994  0.21927   0.9579    Mn
O         0.75   0.6782   0.3661     O
C        0.759   0.5856   0.5425     C
O       0.7592    0.357   0.8722     O
O       0.7601   0.0565   0.9193     O
C       0.7608   0.4748   0.7133     C
H       0.7673   0.7246   0.7451     H
C        0.768   0.0946   0.4296     C
O       0.7721   0.9125   0.2809     O
C       0.7795   0.1878   0.4898     C
Mn     0.78073  0.74994   0.2079    Mn
C       0.7866   0.8722   0.7913     C
C       0.8102   0.6351   0.4374     C
C       0.8111   0.5175   0.6166     C
C       0.8122   0.7795   0.7398     C
C       0.8134   0.3974   0.7929     C
C       0.8276   0.0552   0.8387     C
C       0.8411   0.9275   0.3591     C
C       0.8492   0.0288   0.4196     C
C       0.8519   0.9546   0.7816     C
O       0.8597   0.0963   0.1384     O
O       0.8646   0.8724   0.0573     O
C       0.8722   0.2134   0.5413     C
O       0.8724   0.1354   0.8073     O
H       0.8788   0.2746   0.5825     H
H        0.879   0.5007   0.6013     H
O       0.9037   0.8597   0.3884     O
O       0.9049   0.3772   0.7756     O
O       0.9052   0.6324   0.4288     O
C       0.9054    0.768   0.6796     C
O       0.9125   0.2279   0.0309     O
H       0.9226   0.7051   0.6464     H
C       0.9275   0.1589   0.1091     C
C       0.9433   0.0554   0.4708     C
O       0.9435   0.7601   0.1693     O
C       0.9446   0.9433   0.7208     C
C       0.9448   0.8276   0.0887     C
C       0.9546   0.1481   0.5316     C
C       0.9712   0.8492   0.6696     C
H        0.989   0.9986   0.7144     H
Mn     0.98963  0.25697  0.85474    Mn
H       0.9986    0.011   0.4644     H
