data_I
_chemical_name_common  '/home/zhangsd/repos/MofS-CGCNN/ML/data/TSD/clean_cifs/ZOZPUB_clean'
_cell_length_a 14.44300
_cell_length_b 22.19870
_cell_length_c 17.76280
_cell_angle_alpha 90.00000
_cell_angle_beta  103.97500
_cell_angle_gamma 90.00000
_space_group_name_H-M_alt      'P 1'


loop_
_space_group_symop_operation_xyz
  'x, y, z' 

loop_
_atom_site_label
_atom_site_fract_x
_atom_site_fract_y
_atom_site_fract_z
_atom_site_type_symbol
Co         0.0      0.5      0.0    Co
Co     0.00093  0.63654   0.0275    Co
C       0.0037  0.80436   0.8629     C
C       0.0081   0.2333   0.7753     C
C       0.0117   0.1869   0.2156     C
C       0.0189   0.7706   0.3035     C
C       0.0238   0.9759   0.6124     C
H       0.0255   0.2371   0.6674     H
O      0.03424  0.47523  0.19431     O
H       0.0384   0.8078   0.7605     H
H       0.0419   0.7756    0.129     H
Co     0.04385  0.44033  0.81916    Co
C       0.0464   0.0648   0.6921     C
H        0.048    0.947   0.5843     H
Co     0.04872  0.60379  0.85156    Co
C       0.0497   0.9383   0.3049     C
O      0.05517  0.44019  0.93399     O
C       0.0593   0.7783   0.1829     C
O      0.06056  0.57577  0.96206     O
H       0.0648   0.1968   0.0495     H
C       0.0704   0.0256   0.3834     C
H        0.071    0.474    0.239     H
O       0.0711  0.70934   0.9927     O
C       0.0739   0.1901   0.1024     C
H       0.0741   0.9095   0.2769     H
O       0.0801  0.30938  0.91883     O
C       0.0817   0.0221   0.6517     C
N       0.0837  0.35444   0.1439     N
H       0.0854   0.0955   0.7175     H
N       0.0904  0.60504   0.1947     N
C          0.1   0.7215   0.9339     C
C       0.1018   0.1702   0.2605     C
C       0.1019   0.7873   0.9105     C
C       0.1026   0.3122   0.8552     C
N        0.106  0.34888   0.0742     N
C       0.1074   0.9828   0.3422     C
C       0.1094   0.2514   0.8171     C
N       0.1095   0.6332   0.1312     N
H       0.1099   0.0561   0.4089     H
H       0.1112   0.1635   0.3135     H
C       0.1127   0.7863   0.3415     C
H        0.114    0.438    0.954     H
O       0.1159  0.35863   0.8198     O
H       0.1192   0.8125   0.9564     H
H         0.12    0.574    0.979     H
O       0.1238  0.68351  0.88885     O
O      0.12983  0.49196  0.09084     O
H        0.131   0.7881   0.3954     H
H       0.1368   0.2215   0.8561     H
H       0.1488   0.7932   0.8802     H
H       0.1493   0.2544   0.7806     H
C       0.1523   0.7938   0.2198     C
C       0.1582   0.3356   0.1963     C
H       0.1621    0.334   0.2493     H
C       0.1639  0.17465   0.1467     C
C       0.1641   0.6134   0.2531     C
H       0.1696   0.5992   0.3033     H
N       0.1717  0.49241   0.8349     N
N       0.1749  0.55464   0.8463     N
C       0.1761   0.1637   0.2253     C
C       0.1764  0.79864   0.2988     C
N       0.1819  0.02264   0.6516     N
C        0.192   0.3269   0.0862     C
C       0.1939   0.6573   0.1529     C
H       0.1974   0.8007   0.1912     H
C       0.2109   0.9876   0.3368     C
C       0.2139   0.4823   0.0871     C
H        0.215   0.1104   0.6369     H
H       0.2152   0.1717   0.1238     H
H       0.2192   0.0261   0.3135     H
H       0.2226   0.9564    0.302     H
H       0.2237   0.3181   0.0477     H
H       0.2241    0.679   0.1208     H
H       0.2242   0.9349   0.6696     H
N       0.2278  0.31884   0.1629     N
N       0.2312  0.64607   0.2292     N
C       0.2372    0.071   0.6456     C
O       0.2377  0.46867   0.0261     O
C        0.242   0.9745   0.6635     C
C        0.258   0.4745   0.8365     C
O       0.2623  0.96867   0.4739     O
C       0.2628    0.571   0.8544     C
N       0.2688  0.14607   0.2708     N
N       0.2722  0.81884   0.3371     N
H       0.2758   0.4349   0.8304     H
H       0.2759    0.179   0.3792     H
H       0.2763   0.8181   0.4523     H
H       0.2774   0.4564    0.198     H
H       0.2808   0.5261   0.1865     H
H       0.2848   0.6717   0.3762     H
H        0.285   0.6104   0.8631     H
C       0.2861   0.9823   0.4129     C
C       0.2891   0.4876   0.1632     C
H       0.3026   0.3007   0.3088     H
C       0.3061   0.1573   0.3471     C
C        0.308   0.8269   0.4138     C
N       0.3181  0.52264   0.8484     N
C       0.3236  0.29864   0.2012     C
C       0.3239   0.6637   0.2747     C
N       0.3251  0.05464   0.6537     N
N       0.3283  0.99241   0.6651     N
H       0.3304   0.0992   0.1967     H
C       0.3359   0.1134   0.2469     C
C       0.3361  0.67465   0.3533     C
H       0.3379    0.834   0.2507     H
C       0.3418   0.8356   0.3037     C
C       0.3477   0.2938   0.2802     C
H       0.3507   0.7544   0.7194     H
H       0.3512   0.2932   0.6198     H
H       0.3632   0.7215   0.6439     H
H        0.369   0.2881   0.1046     H
O      0.37017  0.99196  0.40916     O
O       0.3762  0.18351  0.61115     O
H         0.38    0.074    0.521     H
H       0.3808   0.3125   0.5436     H
O       0.3841  0.85863   0.6802     O
H        0.386    0.938    0.546     H
C       0.3873   0.2863   0.1585     C
H       0.3888   0.6635   0.1865     H
H       0.3901   0.5561   0.0911     H
N       0.3905   0.1332   0.3688     N
C       0.3906   0.7514   0.6829     C
C       0.3926   0.4828   0.1578     C
N        0.394  0.84888   0.4258     N
C       0.3974   0.8122   0.6448     C
C       0.3981   0.2873   0.5895     C
C       0.3982   0.6702   0.2395     C
C          0.4   0.2215   0.5661     C
N       0.4096  0.10504   0.3053     N
H       0.4146   0.5955   0.7825     H
N       0.4163  0.85444   0.3561     N
C       0.4183   0.5221   0.8483     C
O       0.4199  0.80938  0.58117     O
H       0.4259   0.4095   0.2231     H
C       0.4261   0.6901   0.3976     C
O       0.4289  0.20934   0.5073     O
H        0.429    0.974    0.261     H
C       0.4296   0.5256   0.1166     C
H       0.4352   0.6968   0.4505     H
O      0.43944  0.07577  0.53794     O
C       0.4407   0.2783   0.3171     C
O      0.44483  0.94019  0.56601     O
C       0.4503   0.4383   0.1951     C
Co     0.45128  0.10379  0.64844    Co
H        0.452    0.447   0.9157     H
C       0.4536   0.5648   0.8079     C
Co     0.45615  0.94033  0.68084    Co
H       0.4581   0.2756    0.371     H
H       0.4616   0.3078   0.7395     H
O      0.46576  0.97523  0.30569     O
H       0.4745   0.7371   0.8326     H
C       0.4762   0.4759   0.8876     C
C       0.4811   0.2706   0.1965     C
C       0.4883   0.6869   0.2844     C
C       0.4919   0.7333   0.7247     C
C       0.4963  0.30436   0.6371     C
Co     0.49907  0.13654   0.4725    Co
Co         0.5      0.0      0.5    Co
Co     0.50093  0.86346   0.5275    Co
C       0.5037  0.69564   0.3629     C
C       0.5081   0.2667   0.2753     C
C       0.5117   0.3131   0.7156     C
C       0.5189   0.7294   0.8035     C
C       0.5238   0.5241   0.1124     C
H       0.5255   0.2629   0.1674     H
O      0.53424  0.02477  0.69431     O
H       0.5384   0.6922   0.2605     H
H       0.5419   0.7244    0.629     H
Co     0.54385  0.05967  0.31916    Co
C       0.5464   0.4352   0.1921     C
H        0.548    0.553   0.0843     H
Co     0.54872  0.89621  0.35156    Co
C       0.5497   0.5617   0.8049     C
O      0.55517  0.05981  0.43399     O
C       0.5593   0.7217   0.6829     C
O      0.56056  0.92423  0.46206     O
H       0.5648   0.3032   0.5495     H
C       0.5704   0.4744   0.8834     C
H        0.571    0.026    0.739     H
O       0.5711  0.79066   0.4927     O
C       0.5739   0.3099   0.6024     C
H       0.5741   0.5905   0.7769     H
O       0.5801  0.19062  0.41883     O
C       0.5817   0.4779   0.1517     C
N       0.5837  0.14556   0.6439     N
H       0.5854   0.4045   0.2175     H
N       0.5904  0.89496   0.6947     N
C          0.6   0.7785   0.4339     C
C       0.6018   0.3298   0.7605     C
C       0.6019   0.7127   0.4105     C
C       0.6026   0.1878   0.3552     C
N        0.606  0.15112   0.5742     N
C       0.6074   0.5172   0.8422     C
C       0.6094   0.2486   0.3171     C
N       0.6095   0.8668   0.6312     N
H       0.6099   0.4439   0.9089     H
H       0.6112   0.3365   0.8135     H
C       0.6127   0.7137   0.8415     C
H        0.614    0.062    0.454     H
O       0.6159  0.14137   0.3198     O
H       0.6192   0.6875   0.4564     H
H         0.62    0.926    0.479     H
O       0.6238  0.81649  0.38885     O
O      0.62983  0.00804  0.59084     O
H        0.631   0.7119   0.8954     H
H       0.6368   0.2785   0.3561     H
H       0.6488   0.7068   0.3802     H
H       0.6493   0.2456   0.2806     H
C       0.6523   0.7062   0.7198     C
C       0.6582   0.1644   0.6963     C
H       0.6621    0.166   0.7493     H
C       0.6639  0.32535   0.6467     C
C       0.6641   0.8866   0.7531     C
H       0.6696   0.9008   0.8033     H
N       0.6717  0.00759   0.3349     N
N       0.6749  0.94536   0.3463     N
C       0.6761   0.3363   0.7253     C
C       0.6764  0.70136   0.7988     C
N       0.6819  0.47736   0.1516     N
C        0.692   0.1731   0.5862     C
C       0.6939   0.8427   0.6529     C
H       0.6974   0.6993   0.6912     H
C       0.7109   0.5124   0.8368     C
C       0.7139   0.0177   0.5871     C
H        0.715   0.3896   0.1369     H
H       0.7152   0.3283   0.6238     H
H       0.7192   0.4739   0.8135     H
H       0.7226   0.5436    0.802     H
H       0.7237   0.1819   0.5477     H
H       0.7241    0.821   0.6208     H
H       0.7242   0.5651   0.1696     H
N       0.7278  0.18116   0.6629     N
N       0.7312  0.85393   0.7292     N
C       0.7372    0.429   0.1456     C
O       0.7377  0.03133   0.5261     O
C        0.742   0.5255   0.1635     C
C        0.758   0.0255   0.3365     C
O       0.7623  0.53133   0.9739     O
C       0.7628    0.929   0.3544     C
N       0.7688  0.35393   0.7708     N
N       0.7722  0.68116   0.8371     N
H       0.7758   0.0651   0.3304     H
H       0.7759    0.321   0.8792     H
H       0.7763   0.6819   0.9523     H
H       0.7774   0.0436    0.698     H
H       0.7808   0.9739   0.6865     H
H       0.7848   0.8283   0.8762     H
H        0.785   0.8896   0.3631     H
C       0.7861   0.5177   0.9129     C
C       0.7891   0.0124   0.6632     C
H       0.8026   0.1993   0.8088     H
C       0.8061   0.3427   0.8471     C
C        0.808   0.6731   0.9138     C
N       0.8181  0.97736   0.3484     N
C       0.8236  0.20136   0.7012     C
C       0.8239   0.8363   0.7747     C
N       0.8251  0.44536   0.1537     N
N       0.8283  0.50759   0.1651     N
H       0.8304   0.4008   0.6967     H
C       0.8359   0.3866   0.7469     C
C       0.8361  0.82535   0.8533     C
H       0.8379    0.666   0.7507     H
C       0.8418   0.6644   0.8037     C
C       0.8477   0.2062   0.7802     C
H       0.8507   0.7456   0.2194     H
H       0.8512   0.2068   0.1198     H
H       0.8632   0.7785   0.1439     H
H        0.869   0.2119   0.6046     H
O      0.87017  0.50804  0.90916     O
O       0.8762  0.31649  0.11115     O
H         0.88    0.426    0.021     H
H       0.8808   0.1875   0.0436     H
O       0.8841  0.64137   0.1802     O
H        0.886    0.562    0.046     H
C       0.8873   0.2137   0.6585     C
H       0.8888   0.8365   0.6865     H
H       0.8901   0.9439   0.5911     H
N       0.8905   0.3668   0.8688     N
C       0.8906   0.7486   0.1829     C
C       0.8926   0.0172   0.6578     C
N        0.894  0.65112   0.9258     N
C       0.8974   0.6878   0.1448     C
C       0.8981   0.2127   0.0895     C
C       0.8982   0.8298   0.7395     C
C          0.9   0.2785   0.0661     C
N       0.9096  0.39496   0.8053     N
H       0.9146   0.9045   0.2825     H
N       0.9163  0.64556   0.8561     N
C       0.9183   0.9779   0.3483     C
O       0.9199  0.69062  0.08117     O
H       0.9259   0.0905   0.7231     H
C       0.9261   0.8099   0.8976     C
O       0.9289  0.29066   0.0073     O
H        0.929    0.526    0.761     H
C       0.9296   0.9744   0.6166     C
H       0.9352   0.8032   0.9505     H
O      0.93944  0.42423  0.03794     O
C       0.9407   0.2217   0.8171     C
O      0.94483  0.55981  0.06601     O
C       0.9503   0.0617   0.6951     C
Co     0.95128  0.39621  0.14844    Co
H        0.952    0.053   0.4157     H
C       0.9536   0.9352   0.3079     C
Co     0.95615  0.55967  0.18084    Co
H       0.9581   0.2244    0.871     H
H       0.9616   0.1922   0.2395     H
O      0.96576  0.52477  0.80569     O
H       0.9745   0.7629   0.3326     H
C       0.9762   0.0241   0.3876     C
C       0.9811   0.2294   0.6965     C
C       0.9883   0.8131   0.7844     C
C       0.9919   0.7667   0.2247     C
C       0.9963  0.19564   0.1371     C
Co     0.99907  0.36346   0.9725    Co
