data_I
_chemical_name_common  '/home/zhangsd/repos/MofS-CGCNN/ML/data/TSD/clean_cifs/ZUHSEC_clean'
_cell_length_a 18.68500
_cell_length_b 11.72200
_cell_length_c  9.24400
_cell_angle_alpha 90.00000
_cell_angle_beta  91.77100
_cell_angle_gamma 90.00000
_space_group_name_H-M_alt      'P 1'


loop_
_space_group_symop_operation_xyz
  'x, y, z' 

loop_
_atom_site_label
_atom_site_fract_x
_atom_site_fract_y
_atom_site_fract_z
_atom_site_type_symbol
Ba      0.0221  0.19163  0.99227    Ba
Ba      0.0221  0.80837  0.49227    Ba
O       0.0737   0.1639   0.2814     O
O       0.0737   0.8361   0.7814     O
O       0.0844   0.1244   0.7366     O
O       0.0844   0.8756   0.2366     O
O       0.0876   0.0103   0.5429     O
O       0.0876   0.9897   0.0429     O
C       0.1135   0.0499   0.6644     C
C       0.1135   0.9501   0.1644     C
C        0.134   0.1706   0.3423     C
C        0.134   0.8294   0.8423     C
H       0.1414   0.4202   0.6294     H
H       0.1414   0.5798   0.1294     H
H       0.1419   0.3149   0.9403     H
H       0.1419   0.6851   0.4403     H
O       0.1495   0.2437   0.4415     O
O       0.1495   0.7563   0.9415     O
H       0.1496   0.4277   0.2924     H
H       0.1496   0.5723   0.7924     H
H       0.1658   0.2607   0.0799     H
H       0.1658   0.7393   0.5799     H
O       0.1738   0.2837   0.9893     O
O       0.1738   0.7163   0.4893     O
C       0.1851   0.0057   0.7171     C
C       0.1851   0.9943   0.2171     C
C       0.1856   0.4389   0.6722     C
C       0.1856   0.5611   0.1722     C
C       0.1908   0.4657   0.2654     C
C       0.1908   0.5343   0.7654     C
C       0.1928    0.092   0.3002     C
C       0.1928    0.908   0.8002     C
N       0.2418   0.3761   0.6447     N
N       0.2418   0.6239   0.1447     N
N       0.2443   0.0704   0.6847     N
N       0.2443   0.9296   0.1847     N
Cu        0.25     0.25      0.5    Cu
Cu        0.25     0.75      0.0    Cu
N       0.2557   0.4296   0.3153     N
N       0.2557   0.5704   0.8153     N
N       0.2582   0.1239   0.3553     N
N       0.2582   0.8761   0.8553     N
C       0.3072    0.408   0.6998     C
C       0.3072    0.592   0.1998     C
C       0.3092   0.0343   0.7346     C
C       0.3092   0.9657   0.2346     C
C       0.3144   0.0611   0.3278     C
C       0.3144   0.9389   0.8278     C
C       0.3149   0.4943   0.2829     C
C       0.3149   0.5057   0.7829     C
O       0.3262   0.2163   0.0107     O
O       0.3262   0.7837   0.5107     O
H       0.3342   0.2393   0.9201     H
H       0.3342   0.7607   0.4201     H
H       0.3504   0.0723   0.7076     H
H       0.3504   0.9277   0.2076     H
O       0.3505   0.2563   0.5585     O
O       0.3505   0.7437   0.0585     O
H       0.3581   0.1851   0.0597     H
H       0.3581   0.8149   0.5597     H
H       0.3586   0.0798   0.3706     H
H       0.3586   0.9202   0.8706     H
C        0.366   0.3294   0.6577     C
C        0.366   0.6706   0.1577     C
C       0.3865   0.4501   0.3356     C
C       0.3865   0.5499   0.8356     C
O       0.4124   0.4897   0.4571     O
O       0.4124   0.5103   0.9571     O
O       0.4156   0.3756   0.2634     O
O       0.4156   0.6244   0.7634     O
O       0.4263   0.3361   0.7186     O
O       0.4263   0.6639   0.2186     O
Ba      0.4779  0.30837  0.00773    Ba
Ba      0.4779  0.69163  0.50773    Ba
Ba      0.5221  0.30837  0.49227    Ba
Ba      0.5221  0.69163  0.99227    Ba
O       0.5737   0.3361   0.7814     O
O       0.5737   0.6639   0.2814     O
O       0.5844   0.3756   0.2366     O
O       0.5844   0.6244   0.7366     O
O       0.5876   0.4897   0.0429     O
O       0.5876   0.5103   0.5429     O
C       0.6135   0.4501   0.1644     C
C       0.6135   0.5499   0.6644     C
C        0.634   0.3294   0.8423     C
C        0.634   0.6706   0.3423     C
H       0.6414   0.0798   0.1294     H
H       0.6414   0.9202   0.6294     H
H       0.6419   0.1851   0.4403     H
H       0.6419   0.8149   0.9403     H
O       0.6495   0.2563   0.9415     O
O       0.6495   0.7437   0.4415     O
H       0.6496   0.0723   0.7924     H
H       0.6496   0.9277   0.2924     H
H       0.6658   0.2393   0.5799     H
H       0.6658   0.7607   0.0799     H
O       0.6738   0.2163   0.4893     O
O       0.6738   0.7837   0.9893     O
C       0.6851   0.4943   0.2171     C
C       0.6851   0.5057   0.7171     C
C       0.6856   0.0611   0.1722     C
C       0.6856   0.9389   0.6722     C
C       0.6908   0.0343   0.7654     C
C       0.6908   0.9657   0.2654     C
C       0.6928    0.408   0.8002     C
C       0.6928    0.592   0.3002     C
N       0.7418   0.1239   0.1447     N
N       0.7418   0.8761   0.6447     N
N       0.7443   0.4296   0.1847     N
N       0.7443   0.5704   0.6847     N
Cu        0.75     0.25      0.0    Cu
Cu        0.75     0.75      0.5    Cu
N       0.7557   0.0704   0.8153     N
N       0.7557   0.9296   0.3153     N
N       0.7582   0.3761   0.8553     N
N       0.7582   0.6239   0.3553     N
C       0.8072    0.092   0.1998     C
C       0.8072    0.908   0.6998     C
C       0.8092   0.4657   0.2346     C
C       0.8092   0.5343   0.7346     C
C       0.8144   0.4389   0.8278     C
C       0.8144   0.5611   0.3278     C
C       0.8149   0.0057   0.7829     C
C       0.8149   0.9943   0.2829     C
O       0.8262   0.2837   0.5107     O
O       0.8262   0.7163   0.0107     O
H       0.8342   0.2607   0.4201     H
H       0.8342   0.7393   0.9201     H
H       0.8504   0.4277   0.2076     H
H       0.8504   0.5723   0.7076     H
O       0.8505   0.2437   0.0585     O
O       0.8505   0.7563   0.5585     O
H       0.8581   0.3149   0.5597     H
H       0.8581   0.6851   0.0597     H
H       0.8586   0.4202   0.8706     H
H       0.8586   0.5798   0.3706     H
C        0.866   0.1706   0.1577     C
C        0.866   0.8294   0.6577     C
C       0.8865   0.0499   0.8356     C
C       0.8865   0.9501   0.3356     C
O       0.9124   0.0103   0.9571     O
O       0.9124   0.9897   0.4571     O
O       0.9156   0.1244   0.7634     O
O       0.9156   0.8756   0.2634     O
O       0.9263   0.1639   0.2186     O
O       0.9263   0.8361   0.7186     O
Ba      0.9779  0.19163  0.50773    Ba
Ba      0.9779  0.80837  0.00773    Ba
