data_I
_chemical_name_common  '/home/zhangsd/repos/MofS-CGCNN/ML/data/TSD/clean_cifs/ZUTBIB_clean'
_cell_length_a  9.31280
_cell_length_b  9.32270
_cell_length_c  9.34970
_cell_angle_alpha 103.17000
_cell_angle_beta  93.60000
_cell_angle_gamma 90.14000
_space_group_name_H-M_alt      'P 1'


loop_
_space_group_symop_operation_xyz
  'x, y, z' 

loop_
_atom_site_label
_atom_site_fract_x
_atom_site_fract_y
_atom_site_fract_z
_atom_site_type_symbol
O       0.0273   0.3434   0.6289     O
Ga     0.15819  0.62486  0.42339    Ga
O       0.1752   0.4409   0.4564     O
P      0.18078  0.37569  0.59385     P
O       0.2037   0.7698   0.5862     O
O       0.2455   0.6464   0.2626     O
O       0.2459   0.4882    0.727     O
O       0.2595   0.2331   0.5638     O
O       0.3213   0.6359   0.0186     O
O       0.3496   0.9996   0.6884     O
P      0.35546  0.83302  0.64834     P
P      0.37745  0.62303  0.17202     P
Ga     0.38698  0.60375  0.83507    Ga
O       0.3877   0.7846   0.7947     O
F         0.39    0.983   0.4093     F
O        0.433   0.4674   0.1645     O
Ga     0.43464  0.13698  0.58999    Ga
O       0.4633   0.7647   0.5369     O
O       0.4966   0.7345   0.2293     O
O       0.5034   0.2655   0.7707     O
O       0.5367   0.2353   0.4631     O
Ga     0.56536  0.86302  0.41001    Ga
O        0.567   0.5326   0.8355     O
F         0.61    0.017   0.5907     F
O       0.6123   0.2154   0.2053     O
Ga     0.61302  0.39625  0.16493    Ga
P      0.62255  0.37697  0.82798     P
P      0.64454  0.16698  0.35166     P
O       0.6504   0.0004   0.3116     O
O       0.6787   0.3641   0.9814     O
O       0.7405   0.7669   0.4362     O
O       0.7541   0.5118    0.273     O
O       0.7545   0.3536   0.7374     O
O       0.7963   0.2302   0.4138     O
P      0.81922  0.62431  0.40615     P
O       0.8248   0.5591   0.5436     O
Ga     0.84181  0.37514  0.57661    Ga
O       0.9727   0.6566   0.3711     O
