data_I
_chemical_name_common  '/home/zhangsd/repos/MofS-CGCNN/CGCNN_MT/data/TS_external_test/clean_cifs/AVIHOE_clean'
_cell_length_a 10.20000
_cell_length_b 10.20000
_cell_length_c 14.43860
_cell_angle_alpha 90.00000
_cell_angle_beta  90.00000
_cell_angle_gamma 90.00000
_space_group_name_H-M_alt      'P 1'


loop_
_space_group_symop_operation_xyz
  'x, y, z' 

loop_
_atom_site_label
_atom_site_fract_x
_atom_site_fract_y
_atom_site_fract_z
_atom_site_type_symbol
H          0.0   0.0987      0.0     H
C          0.0   0.1918      0.0     C
C          0.0   0.3898      0.5     C
C          0.0   0.4625      0.0     C
C          0.0   0.5375      0.5     C
C          0.0   0.6102      0.0     C
C          0.0   0.8082      0.5     C
H          0.0   0.9013      0.5     H
C       0.0416   0.2594   0.0773     C
C       0.0416   0.7406   0.4227     C
C       0.0427   0.3943   0.0773     C
C       0.0427   0.6057   0.4227     C
O       0.0648   0.1148   0.6001     O
O       0.0648   0.8852   0.8999     O
H       0.0728   0.4407   0.1302     H
H       0.0728   0.5593   0.3698     H
O       0.0735    0.335   0.4419     O
O       0.0735    0.665   0.0581     O
C       0.0885   0.1811   0.1602     C
C       0.0885   0.8189   0.3398     C
O       0.0961   0.2399   0.2372     O
O       0.0961   0.7601   0.2628     O
H       0.0987      0.0     0.75     H
O       0.1148   0.0648   0.1499     O
O       0.1148   0.9352   0.3501     O
Tm     0.14978  0.14978    0.375    Tm
Tm     0.14978  0.85022    0.125    Tm
C       0.1811   0.0885   0.5898     C
C       0.1811   0.9115   0.9102     C
C       0.1918      0.0     0.75     C
O       0.2399   0.0961   0.5128     O
O       0.2399   0.9039   0.9872     O
C       0.2594   0.0416   0.6727     C
C       0.2594   0.9584   0.8273     C
O        0.335   0.0735   0.3081     O
O        0.335   0.9265   0.1919     O
C       0.3898      0.0     0.25     C
C       0.3943   0.0427   0.6727     C
C       0.3943   0.9573   0.8273     C
H       0.4407   0.0728   0.6198     H
H       0.4407   0.9272   0.8802     H
C       0.4625      0.0     0.75     C
C       0.5375      0.0     0.25     C
H       0.5593   0.0728   0.3802     H
H       0.5593   0.9272   0.1198     H
C       0.6057   0.0427   0.3273     C
C       0.6057   0.9573   0.1727     C
C       0.6102      0.0     0.75     C
O        0.665   0.0735   0.6919     O
O        0.665   0.9265   0.8081     O
C       0.7406   0.0416   0.3273     C
C       0.7406   0.9584   0.1727     C
O       0.7601   0.0961   0.4872     O
O       0.7601   0.9039   0.0128     O
C       0.8082      0.0     0.25     C
C       0.8189   0.0885   0.4102     C
C       0.8189   0.9115   0.0898     C
Tm     0.85022  0.14978    0.625    Tm
Tm     0.85022  0.85022    0.875    Tm
O       0.8852   0.0648   0.8501     O
O       0.8852   0.9352   0.6499     O
H       0.9013      0.0     0.25     H
O       0.9039   0.2399   0.7628     O
O       0.9039   0.7601   0.7372     O
C       0.9115   0.1811   0.8398     C
C       0.9115   0.8189   0.6602     C
O       0.9265    0.335   0.5581     O
O       0.9265    0.665   0.9419     O
H       0.9272   0.4407   0.8698     H
H       0.9272   0.5593   0.6302     H
O       0.9352   0.1148   0.3999     O
O       0.9352   0.8852   0.1001     O
C       0.9573   0.3943   0.9227     C
C       0.9573   0.6057   0.5773     C
C       0.9584   0.2594   0.9227     C
C       0.9584   0.7406   0.5773     C
