data_I
_chemical_name_common  '/home/zhangsd/repos/MofS-CGCNN/CGCNN_MT/data/TS_external_test/clean_cifs/AVIHIY_clean'
_cell_length_a 10.25500
_cell_length_b 10.25500
_cell_length_c 14.49400
_cell_angle_alpha 90.00000
_cell_angle_beta  90.00000
_cell_angle_gamma 90.00000
_space_group_name_H-M_alt      'P 1'


loop_
_space_group_symop_operation_xyz
  'x, y, z' 

loop_
_atom_site_label
_atom_site_fract_x
_atom_site_fract_y
_atom_site_fract_z
_atom_site_type_symbol
C        0.002   0.4618   0.5814     C
C       0.0022   0.8083   0.0797     C
H       0.0034    0.899   0.0789     H
C       0.0036   0.6105   0.5829     C
C       0.0412   0.2604   0.5032     C
C       0.0418   0.6062   0.1583     C
C       0.0442   0.7405   0.1583     C
C       0.0447   0.3936    0.504     C
O       0.0652   0.8918   0.6796     O
O       0.0661   0.3357   0.1408     O
O       0.0679   0.1202   0.9797     O
H       0.0696   0.5607   0.2102     H
H       0.0756   0.4387   0.4529     H
O       0.0789   0.6629   0.5251     O
C       0.0844   0.1827   0.4199     C
C        0.091   0.8169   0.2406     C
O       0.0943   0.2412   0.3443     O
O       0.0947   0.7612   0.3162     O
H        0.101   0.0034   0.8289     H
O       0.1082   0.0652   0.4296     O
O       0.1202   0.9321   0.2297     O
Ho     0.14978  0.15017  0.20535    Ho
Ho     0.15017  0.85022  0.45535    Ho
C       0.1827   0.9156   0.6699     C
C       0.1831    0.091   0.9906     C
C       0.1917   0.0022   0.8297     C
O       0.2388   0.0947   0.0662     O
O       0.2412   0.9057   0.5943     O
C       0.2595   0.0442   0.9083     C
C       0.2604   0.9588   0.7532     C
O       0.3357   0.9339   0.3908     O
O       0.3371   0.0789   0.2751     O
C       0.3895   0.0036   0.3329     C
C       0.3936   0.9553    0.754     C
C       0.3938   0.0418   0.9083     C
H       0.4387   0.9244   0.7029     H
H       0.4393   0.0696   0.9602     H
C       0.4618    0.998   0.8314     C
C       0.5382    0.002   0.3314     C
H       0.5607   0.9304   0.4602     H
H       0.5613   0.0756   0.2029     H
C       0.6062   0.9582   0.4083     C
C       0.6064   0.0447    0.254     C
C       0.6105   0.9964   0.8329     C
O       0.6629   0.9211   0.7751     O
O       0.6643   0.0661   0.8908     O
C       0.7396   0.0412   0.2532     C
C       0.7405   0.9558   0.4083     C
O       0.7588   0.0943   0.0943     O
O       0.7612   0.9053   0.5662     O
C       0.8083   0.9978   0.3297     C
C       0.8169    0.909   0.4906     C
C       0.8173   0.0844   0.1699     C
Ho     0.84983  0.14978  0.95535    Ho
Ho     0.85022  0.84983  0.70535    Ho
O       0.8798   0.0679   0.7297     O
O       0.8918   0.9348   0.9296     O
H        0.899   0.9966   0.3289     H
O       0.9053   0.2388   0.8162     O
O       0.9057   0.7588   0.8443     O
C        0.909   0.1831   0.7406     C
C       0.9156   0.8173   0.9199     C
O       0.9211   0.3371   0.0251     O
H       0.9244   0.5613   0.9529     H
H       0.9304   0.4393   0.7102     H
O       0.9321   0.8798   0.4797     O
O       0.9339   0.6643   0.6408     O
O       0.9348   0.1082   0.1796     O
C       0.9553   0.6064    0.004     C
C       0.9558   0.2595   0.6583     C
C       0.9582   0.3938   0.6583     C
C       0.9588   0.7396   0.0032     C
C       0.9964   0.3895   0.0829     C
H       0.9966    0.101   0.5789     H
C       0.9978   0.1917   0.5797     C
C        0.998   0.5382   0.0814     C
