data_I
_chemical_name_common  '/home/zhangsd/repos/MofS-CGCNN/CGCNN_MT/data/TS_external_test/clean_cifs/GAJTUI_clean'
_cell_length_a 12.83990
_cell_length_b 12.83990
_cell_length_c 34.87250
_cell_angle_alpha 82.40350
_cell_angle_beta  82.40350
_cell_angle_gamma 63.71650
_space_group_name_H-M_alt      'P 1'


loop_
_space_group_symop_operation_xyz
  'x, y, z' 

loop_
_atom_site_label
_atom_site_fract_x
_atom_site_fract_y
_atom_site_fract_z
_atom_site_type_symbol
H       0.0035   0.1015   0.6737     H
C       0.0055   0.0757  0.37628     C
N       0.0057   0.3023  0.88009     N
C       0.0131   0.3919  0.81562     C
C       0.0158    0.061  0.65206     C
O      0.01867  0.47347  0.58555     O
N       0.0211   0.0231  0.84477     N
N       0.0231   0.0211  0.34477     N
O      0.02838  0.53018  0.35087     O
C       0.0301   0.0897  0.08693     C
H       0.0465   0.3849   0.7902     H
H       0.0472   0.1268   0.0639     H
C       0.0494   0.2984  0.84296     C
C       0.0502   0.9446  0.58971     C
C       0.0503   0.4913  0.38518     C
S      0.05136  0.19034  0.37393     S
C       0.0554   0.9498  0.91029     C
C        0.061   0.0158  0.15206     C
H       0.0616    0.902   0.5687     H
C       0.0725   0.0893   0.6192     C
C       0.0728   0.5048  0.17339     C
C       0.0757   0.0055  0.87628     C
C       0.0787   0.5947  0.10987     C
C       0.0893   0.0725   0.1192     C
C       0.0897   0.0301  0.58693     C
S      0.09251  0.62721   0.8725     S
H        0.098   0.9384   0.9313     H
H        0.099   0.4404   0.1914     H
H       0.1015   0.0035   0.1737     H
O      0.10359  0.21979   0.6517     O
S      0.10499  0.51375  0.91972     S
H       0.1104   0.5894   0.0842     H
C        0.114    0.182  0.61973     C
C       0.1214   0.4958  0.13529     C
H       0.1268   0.0472   0.5639     H
Tb     0.13022  0.34946  0.68414    Tb
H       0.1323   0.6143   0.4374     H
H       0.1408    0.366   0.4486     H
O      0.15757  0.21297  0.58855     O
O      0.15941  0.51301  0.50534     O
S      0.16259  0.16625  0.82675     S
S      0.16625  0.16259  0.32675     S
C       0.1683   0.3963  0.39153     C
O      0.16849  0.54489  0.75002     O
O      0.17497  0.50297  0.65648     O
C        0.182    0.114  0.11973     C
S      0.19034  0.05136  0.87393     S
C       0.1973   0.3417  0.42789     C
H        0.202    0.664   0.6799     H
Tb     0.20365  0.36208  0.55884    Tb
C       0.2061   0.6113  0.43086     C
C       0.2067   0.6691  0.87571     C
O      0.21297  0.15757  0.08855     O
C       0.2154   0.3842  0.12194     C
C       0.2162   0.5326  0.62497     C
O      0.21979  0.10359   0.1517     O
C       0.2218   0.3806  0.90586     C
O      0.22671  0.49211  0.59334     O
N       0.2268   0.6614  0.39588     N
O      0.22709  0.36469  0.73324     O
N       0.2301   0.7255  0.84257     N
H       0.2388    0.394   0.3359     H
C       0.2393   0.6837  0.65739     C
O      0.24167  0.37807  0.08622     O
C       0.2427   0.4423  0.74736     C
H       0.2432   0.6078   0.9302     H
H       0.2433   0.4189    0.848     H
H       0.2451   0.4337    0.243     H
S      0.25215  0.71397  0.30723     S
N      0.25251  0.55071  0.27158     N
C        0.254    0.359  0.36096     C
N       0.2566    0.301  0.93522     N
C       0.2575   0.6255  0.62493     C
C       0.2618   0.6474  0.90817     C
C       0.2627   0.4955  0.49445     C
O      0.26299  0.30279   0.1468     O
C       0.2704   0.3608  0.86805     C
N       0.2745   0.7699  0.65743     N
S      0.27844  0.63574  0.15864     S
S      0.28603  0.74785  0.19277     S
C       0.2893   0.5559  0.45735     C
C       0.2934   0.4472  0.25737     C
C       0.2984   0.0494  0.34296     C
N        0.301   0.2566  0.43522     N
N       0.3023   0.0057  0.38009     N
O      0.30279  0.26299   0.6468     O
C       0.3144   0.6544   0.5923     C
C       0.3163   0.7607  0.84261     C
C        0.322   0.5704  0.29171     C
H       0.3265   0.5501   0.7874     H
H       0.3273   0.6161   0.5701     H
C       0.3309   0.7933  0.62429     C
C       0.3315   0.6571  0.38768     C
H        0.336    0.798   0.8201     H
N       0.3386   0.7732  0.10412     N
C       0.3417   0.1973  0.92789     C
C       0.3429   0.6685  0.11232     C
O       0.3441   0.4263  0.51444     O
C       0.3456   0.6856   0.9077     C
Tb     0.34946  0.13022  0.18414    Tb
C       0.3526   0.7382  0.59183     C
C       0.3583   0.4039  0.76269     C
C        0.359    0.254  0.86096     C
C       0.3608   0.2704  0.36805     C
Tb     0.36208  0.20365  0.05884    Tb
S      0.36426  0.72156  0.34136     S
O      0.36469  0.22709  0.23324     O
H        0.366   0.1408   0.9486     H
S      0.37279  0.90749   0.6275     S
C       0.3745   0.7425  0.87507     C
O      0.37807  0.24167  0.58622     O
C       0.3806   0.2218  0.40586     C
C       0.3825   0.4747  0.78364     C
H       0.3839   0.6727   0.9299     H
C       0.3842   0.2154  0.62194     C
H       0.3849   0.0465   0.2902     H
H       0.3857   0.8677   0.0626     H
H       0.3878   0.5108   0.0947     H
C       0.3887   0.7939  0.06914     C
C       0.3906   0.5822  0.08794     C
C       0.3919   0.0131  0.31562     C
H       0.3922   0.7568   0.5698     H
H        0.394   0.2388   0.8359     H
C       0.3963   0.1683  0.89153     C
C       0.3963   0.5565  0.44742     C
C       0.4039   0.3583  0.26269     C
C       0.4053   0.9213  0.39013     C
H       0.4106   0.8896   0.4158     H
C       0.4178   0.6094  0.41206     C
H       0.4189   0.2433    0.348     H
O       0.4263   0.3441  0.01444     O
C       0.4296    0.678  0.20829     C
H       0.4337   0.2451    0.743     H
C       0.4338   0.4886  0.29875     C
H       0.4404    0.099   0.6914     H
C       0.4423   0.2427  0.24736     C
C       0.4435   0.6037  0.05258     C
C       0.4441   0.7107  0.04265     C
C       0.4472   0.2934  0.75737     C
N      0.44929  0.74749  0.22842     N
H       0.4499   0.6735   0.7126     H
H       0.4544   0.5212   0.4645     H
O      0.45511  0.83151  0.74998     O
C       0.4674   0.7838  0.87503     C
O      0.46982  0.97162  0.14913     O
O      0.47347  0.01867  0.08555     O
C       0.4747   0.3825  0.28364     C
H       0.4788   0.5456   0.0355     H
H       0.4799   0.5049   0.3132     H
S      0.48625  0.89501  0.58028     S
O      0.48699  0.84059  0.99466     O
C       0.4886   0.4338  0.79875     C
H       0.4892   0.6122   0.4053     H
C       0.4913   0.0503  0.88518     C
O      0.49211  0.22671  0.09334     O
H       0.4951   0.5201   0.1868     H
C       0.4952   0.9272  0.32661     C
C       0.4955   0.2627  0.99445     C
C       0.4958   0.1214  0.63529     C
O      0.49703  0.82503  0.84352     O
O      0.50297  0.17497  0.15648     O
C       0.5042   0.8786  0.36471     C
C       0.5045   0.7373  0.00555     C
C       0.5048   0.0728  0.67339     C
H       0.5049   0.4799   0.8132     H
O      0.50789  0.77329  0.90666     O
C       0.5087   0.9497  0.11482     C
H       0.5108   0.3878   0.5947     H
C       0.5114   0.5662  0.20125     C
O      0.51301  0.15941  0.00534     O
S      0.51375  0.10499  0.41972     S
H       0.5201   0.4951   0.6868     H
H       0.5212   0.4544   0.9645     H
C       0.5253   0.6175  0.71636     C
O      0.52653  0.98133  0.91445     O
O      0.53018  0.02838  0.85087     O
C       0.5326   0.2162  0.12497     C
O      0.54489  0.16849  0.25002     O
H       0.5456   0.4788   0.5355     H
H       0.5501   0.3265   0.2874     H
N      0.55071  0.25251  0.77158     N
C       0.5528   0.7066  0.24263     C
C       0.5559   0.2893  0.95735     C
C       0.5565   0.3963  0.94742     C
C       0.5577   0.7573  0.75264     C
H       0.5596    0.901   0.3086     H
C       0.5662   0.5114  0.70125     C
H       0.5663   0.7549    0.257     H
C       0.5704    0.322  0.79171     C
O       0.5737   0.6559  0.98556     O
H       0.5811   0.7567    0.652     H
C       0.5822   0.3906  0.58794     C
H       0.5894   0.1104   0.5842     H
C       0.5947   0.0787  0.60987     C
C       0.5961   0.6417  0.73731     C
C       0.6037   0.4435  0.55258     C
C       0.6037   0.8317  0.10847     C
H        0.606   0.7612   0.1641     H
H       0.6078   0.2432   0.4302     H
C       0.6081   0.9869  0.68438     C
C       0.6094   0.4178  0.91206     C
C       0.6113   0.2061  0.93086     C
H       0.6122   0.4892   0.9053     H
H       0.6143   0.1323   0.9374     H
H       0.6151   0.9535   0.7098     H
C       0.6158   0.7846  0.37806     C
H       0.6161   0.3273   0.0701     H
C       0.6175   0.5253  0.21636     C
C       0.6194   0.7782  0.59414     C
O      0.62193  0.75833  0.41378     O
C       0.6255   0.2575  0.12493     C
S      0.62721  0.09251   0.3725     S
H        0.634   0.8592   0.0514     H
O      0.63531  0.77291  0.76676     O
S      0.63574  0.27844  0.65864     S
Tb     0.63792  0.79635  0.94116    Tb
C       0.6392   0.7296  0.63195     C
C        0.641    0.746  0.13904     C
C       0.6417   0.5961  0.23731     C
C       0.6474   0.2618  0.40817     C
Tb     0.65054  0.86978  0.81586    Tb
C       0.6544   0.3144   0.0923     C
O       0.6559   0.5737  0.48556     O
C       0.6571   0.3315  0.88768     C
C       0.6583   0.8027  0.07211     C
N       0.6614   0.2268  0.89588     N
H        0.664    0.202   0.1799     H
C       0.6685   0.3429  0.61232     C
C       0.6691   0.2067  0.37571     C
H       0.6727   0.3839   0.4299     H
H       0.6735   0.4499   0.2126     H
C        0.678   0.4296  0.70829     C
C       0.6837   0.2393  0.15739     C
C       0.6856   0.3456   0.4077     C
O      0.69721  0.73701   0.3532     O
N       0.6977   0.9943  0.61991     N
N        0.699   0.7434  0.56478     N
C       0.7016   0.9506  0.65704     C
C       0.7066   0.5528  0.74263     C
C       0.7107   0.4441  0.54265     C
S      0.71397  0.25215  0.80723     S
S      0.72156  0.36426  0.84136     S
N       0.7255   0.2301  0.34257     N
C       0.7296   0.6392  0.13195     C
O      0.73701  0.69721   0.8532     O
C       0.7373   0.5045  0.50555     C
C       0.7382   0.3526  0.09183     C
C       0.7425   0.3745  0.37507     C
N       0.7434    0.699  0.06478     N
C        0.746    0.641  0.63904     C
N      0.74749  0.44929  0.72842     N
S      0.74785  0.28603  0.69277     S
H       0.7549   0.5663    0.757     H
H       0.7567   0.5811    0.152     H
H       0.7568   0.3922   0.0698     H
C       0.7573   0.5577  0.25264     C
O      0.75833  0.62193  0.91378     O
C       0.7607   0.3163  0.34261     C
H       0.7612    0.606   0.6641     H
N       0.7699   0.2745  0.15743     N
O      0.77291  0.63531  0.26676     O
N       0.7732   0.3386  0.60412     N
O      0.77329  0.50789  0.40666     O
C       0.7782   0.6194  0.09414     C
O      0.78021  0.89641   0.8483     O
C       0.7838   0.4674  0.37503     C
C       0.7846   0.6158  0.87806     C
O      0.78703  0.84243  0.91145     O
C       0.7933   0.3309  0.12429     C
C       0.7939   0.3887  0.56914     C
Tb     0.79635  0.63792  0.44116    Tb
H        0.798    0.336   0.3201     H
C       0.8027   0.6583  0.57211     C
S      0.80966  0.94864  0.12607     S
C        0.818    0.886  0.88027     C
O      0.82503  0.49703  0.34352     O
O      0.83151  0.45511  0.24998     O
C       0.8317   0.6037  0.60847     C
S      0.83375  0.83741  0.67325     S
S      0.83741  0.83375  0.17325     S
O      0.84059  0.48699  0.49466     O
O      0.84243  0.78703  0.41145     O
H       0.8592    0.634   0.5514     H
H       0.8677   0.3857   0.5626     H
Tb     0.86978  0.65054  0.31586    Tb
H       0.8732   0.9528   0.4361     H
C       0.8786   0.5042  0.86471     C
C        0.886    0.818  0.38027     C
H       0.8896   0.4106   0.9158     H
S      0.89501  0.48625  0.08028     S
O      0.89641  0.78021   0.3483     O
H       0.8985   0.9965   0.8263     H
H        0.901   0.5596   0.8086     H
H        0.902   0.0616   0.0687     H
S      0.90749  0.37279   0.1275     S
C       0.9103   0.9699  0.41307     C
C       0.9107   0.9275   0.8808     C
C       0.9213   0.4053  0.89013     C
C       0.9243   0.9945  0.12372     C
C       0.9272   0.4952  0.82661     C
C       0.9275   0.9107   0.3808     C
H       0.9384    0.098   0.4313     H
C        0.939   0.9842  0.84794     C
C       0.9446   0.0502  0.08971     C
S      0.94864  0.80966  0.62607     S
C       0.9497   0.5087  0.61482     C
C       0.9498   0.0554  0.41029     C
C       0.9506   0.7016  0.15704     C
H       0.9528   0.8732   0.9361     H
H       0.9535   0.6151   0.2098     H
C       0.9699   0.9103  0.91307     C
O      0.97162  0.46982  0.64913     O
N       0.9769   0.9789  0.65523     N
N       0.9789   0.9769  0.15523     N
O      0.98133  0.52653  0.41445     O
C       0.9842    0.939  0.34794     C
C       0.9869   0.6081  0.18438     C
N       0.9943   0.6977  0.11991     N
C       0.9945   0.9243  0.62372     C
H       0.9965   0.8985   0.3263     H
