data_I
_chemical_name_common  '/home/zhangsd/repos/MofS-CGCNN/CGCNN_MT/data/TS_external_test/clean_cifs/LADHEF_clean'
_cell_length_a 12.83770
_cell_length_b 12.83770
_cell_length_c 19.04570
_cell_angle_alpha 83.77660
_cell_angle_beta  83.77660
_cell_angle_gamma 68.74460
_space_group_name_H-M_alt      'P 1'


loop_
_space_group_symop_operation_xyz
  'x, y, z' 

loop_
_atom_site_label
_atom_site_fract_x
_atom_site_fract_y
_atom_site_fract_z
_atom_site_type_symbol
C      0.00116   0.7173  0.42468     C
N      0.00213  0.24477  0.64225     N
N      0.00676  0.81402  0.63287     N
C      0.01816  0.90316  0.65815     C
H       0.0359   0.3299   0.5547     H
N      0.04787  0.06421   0.7953     N
O      0.05997  0.60699  0.22772     O
N      0.06352  0.82058  0.34724     N
N      0.06421  0.04787   0.2953     N
Zn      0.0643  0.27618  0.72557    Zn
N      0.06449  0.75465  0.45999     N
H       0.0726   0.9222   0.8558     H
H       0.0778   0.9274   0.6442     H
C      0.08887  0.18971  0.33212     C
C      0.09684  0.98184  0.84185     C
C      0.10102  0.81778  0.40937     C
Zn     0.10692  0.89308     0.25    Zn
Zn     0.10791  0.71295  0.56022    Zn
N      0.10828  0.13414  0.78915     N
H       0.1195   0.2435   0.3376     H
N      0.13414  0.10828  0.28915     N
H       0.1446   0.8522   0.0826     H
C      0.14512  0.63418   0.2053     C
H       0.1478   0.8554   0.4174     H
O      0.15154   0.7274  0.20886     O
O      0.16561  0.39267   0.6142     O
N      0.17942  0.93648  0.15276     N
C      0.18222  0.89898  0.09063     C
N      0.18598  0.99324  0.86713     N
C      0.18971  0.08887  0.83212     C
H        0.199   0.4134   0.2108     H
O      0.20721  0.29665  0.71722     O
C      0.23147  0.34641  0.66002     C
O      0.23286  0.59614  0.60641     O
C      0.24306  0.54502   0.1716     C
H       0.2435   0.1195   0.8376     H
N      0.24477  0.00213  0.14225     N
N      0.24535  0.93551  0.04001     N
C      0.25287  0.43329  0.18176     C
O       0.2726  0.84846  0.29114     O
Zn     0.27618   0.0643  0.22557    Zn
C       0.2827  0.99884  0.07532     C
Zn     0.28705  0.89209  0.93978    Zn
O      0.29329  0.52513  0.50279     O
C      0.29551  0.52093  0.56758     C
O      0.29665  0.20721  0.21722     O
H       0.3203   0.6483    0.123     H
C      0.32508  0.57388  0.12901     C
H       0.3299   0.0359   0.0547     H
C      0.34246  0.35044  0.14902     C
C      0.34641  0.23147  0.16002     C
C      0.35044  0.34246  0.64902     C
H       0.3517   0.6797    0.377     H
C      0.36582  0.85488   0.2947     C
C      0.38072  0.42206  0.60456     C
O      0.39267  0.16561   0.1142     O
O      0.39301  0.94003  0.27228     O
O      0.40386  0.76714  0.89359     O
C      0.41315  0.49275  0.09572     C
H       0.4134    0.199   0.7108     H
C      0.42206  0.38072  0.10456     C
C      0.42612  0.67492  0.37099     C
C      0.43329  0.25287  0.68176     C
C      0.45498  0.75694   0.3284     C
H       0.4672    0.513    0.067     H
O      0.47487  0.70671  0.99721     O
C      0.47907  0.70449  0.93242     C
H        0.487   0.5328    0.433     H
C      0.49275  0.41315  0.59572     C
C      0.50725  0.58685  0.40428     C
H        0.513   0.4672    0.567     H
C      0.52093  0.29551  0.06758     C
O      0.52513  0.29329  0.00279     O
H       0.5328    0.487    0.933     H
C      0.54502  0.24306   0.6716     C
C      0.56671  0.74713  0.31824     C
C      0.57388  0.32508  0.62901     C
C      0.57794  0.61928  0.89544     C
H       0.5866    0.801   0.2892     H
C      0.58685  0.50725  0.90428     C
O      0.59614  0.23286  0.10641     O
O      0.60699  0.05997  0.72772     O
O      0.60733  0.83439   0.8858     O
C      0.61928  0.57794  0.39544     C
C      0.63418  0.14512   0.7053     C
H       0.6483   0.3203    0.623     H
C      0.64956  0.65754  0.35098     C
C      0.65359  0.76853  0.83998     C
C      0.65754  0.64956  0.85098     C
H       0.6701   0.9641   0.9453     H
C      0.67492  0.42612  0.87099     C
H       0.6797   0.3517    0.877     H
O      0.70335  0.79279  0.78278     O
C      0.70449  0.47907  0.43242     C
O      0.70671  0.47487  0.49721     O
Zn     0.71295  0.10791  0.06022    Zn
C       0.7173  0.00116  0.92468     C
Zn     0.72382   0.9357  0.77443    Zn
O       0.7274  0.15154  0.70886     O
C      0.74713  0.56671  0.81824     C
N      0.75465  0.06449  0.95999     N
N      0.75523  0.99787  0.85775     N
H       0.7565   0.8805   0.1624     H
C      0.75694  0.45498   0.8284     C
O      0.76714  0.40386  0.39359     O
C      0.76853  0.65359  0.33998     C
O      0.79279  0.70335  0.28278     O
H        0.801   0.5866   0.7892     H
C      0.81029  0.91113  0.16788     C
N      0.81402  0.00676  0.13287     N
C      0.81778  0.10102  0.90937     C
N      0.82058  0.06352  0.84724     N
O      0.83439  0.60733   0.3858     O
O      0.84846   0.2726  0.79114     O
H       0.8522   0.1446   0.5826     H
C      0.85488  0.36582   0.7947     C
H       0.8554   0.1478   0.9174     H
N      0.86586  0.89172  0.71085     N
H       0.8805   0.7565   0.6624     H
N      0.89172  0.86586  0.21085     N
Zn     0.89209  0.28705  0.43978    Zn
Zn     0.89308  0.10692     0.75    Zn
C      0.89898  0.18222  0.59063     C
C      0.90316  0.01816  0.15815     C
C      0.91113  0.81029  0.66788     C
H       0.9222   0.0726   0.3558     H
H       0.9274   0.0778   0.1442     H
N      0.93551  0.24535  0.54001     N
Zn      0.9357  0.72382  0.27443    Zn
N      0.93579  0.95213   0.7047     N
N      0.93648  0.17942  0.65276     N
O      0.94003  0.39301  0.77228     O
N      0.95213  0.93579   0.2047     N
H       0.9641   0.6701   0.4453     H
C      0.98184  0.09684  0.34185     C
N      0.99324  0.18598  0.36713     N
N      0.99787  0.75523  0.35775     N
C      0.99884   0.2827  0.57532     C
