data_I
_chemical_name_common  '/home/zhangsd/repos/MofS-CGCNN/CGCNN_MT/data/TS_external_test/clean_cifs/MUFJAZ_clean'
_cell_length_a  7.92040
_cell_length_b  8.32100
_cell_length_c 17.48090
_cell_angle_alpha 90.00000
_cell_angle_beta  90.00000
_cell_angle_gamma 109.06900
_space_group_name_H-M_alt      'P 1'


loop_
_space_group_symop_operation_xyz
  'x, y, z' 

loop_
_atom_site_label
_atom_site_fract_x
_atom_site_fract_y
_atom_site_fract_z
_atom_site_type_symbol
O          0.0    0.382   0.9361     O
O          0.0    0.618   0.0639     O
C        0.013    0.876   0.2909     C
C        0.021    0.939   0.3712     C
O       0.0487   0.7016   0.5433     O
C        0.052    0.276    0.815     C
C        0.072    0.565   0.5249     C
O        0.075   0.1525   0.5814     O
N        0.083    0.878   0.1703     N
C        0.085    0.278   0.7382     C
C        0.095    0.408   0.8773     C
N        0.107    0.969   0.2345     N
O       0.1256   0.0825   0.3826     O
H       0.1613   0.3679   0.7107     H
H       0.1746   0.0736   0.2387     H
O       0.2042     0.52   0.5425     O
O       0.2335   0.5304   0.8708     O
Eu     0.24424  0.71999   0.9778    Eu
Eu     0.25576  0.28001   0.4778    Eu
O       0.2665   0.4696   0.3708     O
O       0.2958     0.48   0.0425     O
H       0.3254   0.9264   0.7387     H
H       0.3387   0.6321   0.2107     H
O       0.3744   0.9175   0.8826     O
N        0.393    0.031   0.7345     N
C        0.405    0.592   0.3773     C
C        0.415    0.722   0.2382     C
N        0.417    0.122   0.6703     N
O        0.425   0.8475   0.0814     O
C        0.428    0.435   0.0249     C
C        0.448    0.724    0.315     C
O       0.4513   0.2984   0.0433     O
C        0.479    0.061   0.8712     C
C        0.487    0.124   0.7909     C
O          0.5    0.382   0.5639     O
O          0.5    0.618   0.4361     O
C        0.513    0.876   0.2091     C
C        0.521    0.939   0.1288     C
O       0.5487   0.7016   0.9567     O
C        0.552    0.276    0.685     C
C        0.572    0.565   0.9751     C
O        0.575   0.1525   0.9186     O
N        0.583    0.878   0.3297     N
C        0.585    0.278   0.7618     C
C        0.595    0.408   0.6227     C
N        0.607    0.969   0.2655     N
O       0.6256   0.0825   0.1174     O
H       0.6613   0.3679   0.7893     H
H       0.6746   0.0736   0.2613     H
O       0.7042     0.52   0.9575     O
O       0.7335   0.5304   0.6292     O
Eu     0.74424  0.71999   0.5222    Eu
Eu     0.75576  0.28001   0.0222    Eu
O       0.7665   0.4696   0.1292     O
O       0.7958     0.48   0.4575     O
H       0.8254   0.9264   0.7613     H
H       0.8387   0.6321   0.2893     H
O       0.8744   0.9175   0.6174     O
N        0.893    0.031   0.7655     N
C        0.905    0.592   0.1227     C
C        0.915    0.722   0.2618     C
N        0.917    0.122   0.8297     N
O        0.925   0.8475   0.4186     O
C        0.928    0.435   0.4751     C
C        0.948    0.724    0.185     C
O       0.9513   0.2984   0.4567     O
C        0.979    0.061   0.6288     C
C        0.987    0.124   0.7091     C
