data_I
_chemical_name_common  '/home/zhangsd/repos/MofS-CGCNN/CGCNN_MT/data/TS_external_test/clean_cifs/OGAGAF_clean'
_cell_length_a  9.62990
_cell_length_b  9.76980
_cell_length_c 24.56390
_cell_angle_alpha 90.00000
_cell_angle_beta  90.00000
_cell_angle_gamma 90.00000
_space_group_name_H-M_alt      'P 1'


loop_
_space_group_symop_operation_xyz
  'x, y, z' 

loop_
_atom_site_label
_atom_site_fract_x
_atom_site_fract_y
_atom_site_fract_z
_atom_site_type_symbol
Zn     0.00017  0.61249  0.01682    Zn
C       0.0126    0.903  0.86262     C
N      0.01625  0.04007  0.94278     N
H       0.0178   0.2993   0.8587     H
C       0.0229   0.4245  0.92399     C
O      0.05135  0.26257   0.0449     O
O      0.05725  0.98229  0.42669     O
H       0.0575   0.4267    0.754     H
H       0.0576   0.8862   0.5597     H
H       0.0618   0.8451   0.8383     H
C       0.0675    0.372  0.87541     C
C       0.0786   0.9573   0.9073     C
P      0.08055  0.82992  0.43599     P
N      0.08743  0.52734  0.94964     N
O      0.10465  0.74796  0.05414     O
H       0.1099   0.7767   0.3885     H
C       0.1183   0.5696  0.56592     C
C       0.1255   0.4331  0.64669     C
Zn     0.13126   0.1207  0.00282    Zn
C       0.1589   0.4372  0.74894     C
H       0.1647   0.6126    0.293     H
H       0.1654   0.6276    0.541     H
H       0.1679   0.4288   0.3618     H
H       0.1734   0.9347   0.9132     H
O      0.17477  0.19245  0.50586     O
H       0.1802   0.5363   0.7483     H
H        0.183   0.2736    0.696     H
C       0.1859   0.4252  0.85046     C
C       0.1901   0.5181  0.60994     C
O      0.19166  0.98949  0.05686     O
H       0.1978   0.6137   0.1893     H
H       0.1983   0.1903    0.598     H
C       0.2012   0.3733  0.69463     C
C       0.2017   0.5789  0.92611     C
O      0.20183  0.79922  0.47269     O
H        0.215   0.4585   0.1149     H
H        0.219   0.2706   0.7956     H
P       0.2298  0.83854    0.053     P
C       0.2344   0.3708  0.79669     C
C       0.2485   0.4691  0.37729     C
H       0.2499    0.651   0.9438     H
H       0.2501    0.349   0.4438     H
C       0.2515   0.5309  0.87729     C
C       0.2656   0.6292  0.29669     C
P       0.2702  0.16146    0.553     P
H        0.281   0.7294   0.2956     H
H        0.285   0.5415   0.6149     H
O      0.29817  0.20078  0.97269     O
C       0.2983   0.4211  0.42611     C
C       0.2988   0.6267  0.19463     C
H       0.3017   0.8097    0.098     H
H       0.3022   0.3863   0.6893     H
O      0.30834  0.01051  0.55686     O
C       0.3099   0.4819  0.10994     C
C       0.3141   0.5748  0.35046     C
H        0.317   0.7264    0.196     H
H       0.3198   0.4637   0.2483     H
O      0.32523  0.80755  0.00586     O
H       0.3266   0.0653   0.4132     H
H       0.3321   0.5712   0.8618     H
H       0.3346   0.3724    0.041     H
H       0.3353   0.3874    0.793     H
C       0.3411   0.5628  0.24894     C
Zn     0.36874   0.8793  0.50282    Zn
C       0.3745   0.5669  0.14669     C
C       0.3817   0.4304  0.06592     C
H       0.3901   0.2233   0.8885     H
O      0.39535  0.25204  0.55414     O
N      0.41257  0.47266  0.44964     N
P      0.41945  0.17008  0.93599     P
C       0.4214   0.0427   0.4073     C
C       0.4325    0.628  0.37541     C
H       0.4382   0.1549   0.3383     H
H       0.4424   0.1138   0.0597     H
H       0.4425   0.5733    0.254     H
O      0.44275  0.01771  0.92669     O
O      0.44865  0.73743   0.5449     O
C       0.4771   0.5755  0.42399     C
H       0.4822   0.7007   0.3587     H
N      0.48375  0.95993  0.44278     N
C       0.4874    0.097  0.36262     C
Zn     0.49983  0.38751  0.51682    Zn
Zn     0.50017  0.88751  0.98318    Zn
C       0.5126    0.597  0.13738     C
N      0.51625  0.45993  0.05722     N
H       0.5178   0.2007   0.1413     H
C       0.5229   0.0755  0.07601     C
O      0.55135  0.23743   0.9551     O
O      0.55725  0.51771  0.57331     O
H       0.5575   0.0733    0.246     H
H       0.5576   0.6138   0.4403     H
H       0.5618   0.6549   0.1617     H
C       0.5675    0.128  0.12459     C
C       0.5786   0.5427   0.0927     C
P      0.58055  0.67008  0.56401     P
N      0.58743  0.97266  0.05036     N
O      0.60465  0.75204  0.94586     O
H       0.6099   0.7233   0.6115     H
C       0.6183   0.9304  0.43408     C
C       0.6255   0.0669  0.35331     C
Zn     0.63126   0.3793  0.99718    Zn
C       0.6589   0.0628  0.25106     C
H       0.6647   0.8874    0.707     H
H       0.6654   0.8724    0.459     H
H       0.6679   0.0712   0.6382     H
H       0.6734   0.5653   0.0868     H
O      0.67477  0.30755  0.49414     O
H       0.6802   0.9637   0.2517     H
H        0.683   0.2264    0.304     H
C       0.6859   0.0748  0.14954     C
C       0.6901   0.9819  0.39006     C
O      0.69166  0.51051  0.94314     O
H       0.6978   0.8863   0.8107     H
H       0.6983   0.3097    0.402     H
C       0.7012   0.1267  0.30537     C
C       0.7017   0.9211  0.07389     C
O      0.70183  0.70078  0.52731     O
H        0.715   0.0415   0.8851     H
H        0.719   0.2294   0.2044     H
P       0.7298  0.66146    0.947     P
C       0.7344   0.1292  0.20331     C
C       0.7485   0.0309  0.62271     C
H       0.7499    0.849   0.0562     H
H       0.7501    0.151   0.5562     H
C       0.7515   0.9691  0.12271     C
C       0.7656   0.8708  0.70331     C
P       0.7702  0.33854    0.447     P
H        0.781   0.7706   0.7044     H
H        0.785   0.9585   0.3851     H
O      0.79817  0.29922  0.02731     O
C       0.7983   0.0789  0.57389     C
C       0.7988   0.8733  0.80537     C
H       0.8017   0.6903    0.902     H
H       0.8022   0.1137   0.3107     H
O      0.80834  0.48949  0.44314     O
C       0.8099   0.0181  0.89006     C
C       0.8141   0.9252  0.64954     C
H        0.817   0.7736    0.804     H
H       0.8198   0.0363   0.7517     H
O      0.82523  0.69245  0.99414     O
H       0.8266   0.4347   0.5868     H
H       0.8321   0.9288   0.1382     H
H       0.8346   0.1276    0.959     H
H       0.8353   0.1126    0.207     H
C       0.8411   0.9372  0.75106     C
Zn     0.86874   0.6207  0.49718    Zn
C       0.8745   0.9331  0.85331     C
C       0.8817   0.0696  0.93408     C
H       0.8901   0.2767   0.1115     H
O      0.89535  0.24796  0.44586     O
N      0.91257  0.02734  0.55036     N
P      0.91945  0.32992  0.06401     P
C       0.9214   0.4573   0.5927     C
C       0.9325    0.872  0.62459     C
H       0.9382   0.3451   0.6617     H
H       0.9424   0.3862   0.9403     H
H       0.9425   0.9267    0.746     H
O      0.94275  0.48229  0.07331     O
O      0.94865  0.76257   0.4551     O
C       0.9771   0.9245  0.57601     C
H       0.9822   0.7993   0.6413     H
N      0.98375  0.54007  0.55722     N
C       0.9874    0.403  0.63738     C
Zn     0.99983  0.11249  0.48318    Zn
