data_I
_chemical_name_common  '/home/zhangsd/repos/MofS-CGCNN/CGCNN_MT/data/TS_external_test/clean_cifs/OGIBOV_clean'
_cell_length_a 12.23200
_cell_length_b 12.26800
_cell_length_c 16.39200
_cell_angle_alpha 90.00000
_cell_angle_beta  90.00000
_cell_angle_gamma 90.00000
_space_group_name_H-M_alt      'P 1'


loop_
_space_group_symop_operation_xyz
  'x, y, z' 

loop_
_atom_site_label
_atom_site_fract_x
_atom_site_fract_y
_atom_site_fract_z
_atom_site_type_symbol
O       0.0056    0.597   0.0633     O
O       0.0056    0.903   0.5633     O
O       0.0208   0.0152   0.7961     O
O       0.0208   0.4848   0.2961     O
O       0.0849   0.5702   0.8313     O
O       0.0849   0.9298   0.3313     O
P      0.08935  0.55761  0.73754     P
P      0.08935  0.94239  0.23754     P
O       0.1128   0.6691   0.6994     O
O       0.1128   0.8309   0.1994     O
P      0.12554  0.56249  0.07852     P
P      0.12554  0.93751  0.57852     P
O       0.1306   0.0242   0.6443     O
O       0.1306   0.4758   0.1443     O
Ga     0.13311  0.04021  0.40095    Ga
Ga     0.13311  0.45979  0.90095    Ga
Ga     0.17248  0.02365  0.75406    Ga
Ga     0.17248  0.47635  0.25406    Ga
O       0.1745   0.5138      0.0     O
O       0.1745   0.9862      0.5     O
O       0.1751   0.0278   0.2179     O
O       0.1751   0.1829    0.378     O
O       0.1751   0.3171    0.878     O
O       0.1751   0.4722   0.7179     O
O       0.1765   0.1788   0.7684     O
O       0.1765   0.3212   0.2684     O
F       0.1828   0.6415   0.2585     F
F       0.1828   0.8585   0.7585     F
O       0.1918   0.6636   0.0972     O
O       0.1918   0.8364   0.5972     O
F       0.2127   0.0051   0.8671     F
F       0.2127   0.4949   0.3671     F
P         0.25     0.25  0.32105     P
P         0.25     0.25  0.82105     P
Ga        0.25     0.75  0.18389    Ga
Ga        0.25     0.75  0.68389    Ga
F       0.2873   0.0051   0.3671     F
F       0.2873   0.4949   0.8671     F
O       0.3082   0.6636   0.5972     O
O       0.3082   0.8364   0.0972     O
F       0.3172   0.6415   0.7585     F
F       0.3172   0.8585   0.2585     F
O       0.3235   0.1788   0.2684     O
O       0.3235   0.3212   0.7684     O
O       0.3249   0.0278   0.7179     O
O       0.3249   0.1829    0.878     O
O       0.3249   0.3171    0.378     O
O       0.3249   0.4722   0.2179     O
O       0.3255   0.5138      0.5     O
O       0.3255   0.9862      0.0     O
Ga     0.32752  0.02365  0.25406    Ga
Ga     0.32752  0.47635  0.75406    Ga
Ga     0.36689  0.04021  0.90095    Ga
Ga     0.36689  0.45979  0.40095    Ga
O       0.3694   0.0242   0.1443     O
O       0.3694   0.4758   0.6443     O
P      0.37446  0.56249  0.57852     P
P      0.37446  0.93751  0.07852     P
O       0.3872   0.6691   0.1994     O
O       0.3872   0.8309   0.6994     O
P      0.41065  0.55761  0.23754     P
P      0.41065  0.94239  0.73754     P
O       0.4151   0.5702   0.3313     O
O       0.4151   0.9298   0.8313     O
O       0.4792   0.0152   0.2961     O
O       0.4792   0.4848   0.7961     O
O       0.4944    0.597   0.5633     O
O       0.4944    0.903   0.0633     O
O       0.5056    0.097   0.9367     O
O       0.5056    0.403   0.4367     O
O       0.5208   0.5152   0.2039     O
O       0.5208   0.9848   0.7039     O
O       0.5849   0.0702   0.1687     O
O       0.5849   0.4298   0.6687     O
P      0.58935  0.05761  0.26246     P
P      0.58935  0.44239  0.76246     P
O       0.6128   0.1691   0.3006     O
O       0.6128   0.3309   0.8006     O
P      0.62554  0.06249  0.92148     P
P      0.62554  0.43751  0.42148     P
O       0.6306   0.5242   0.3557     O
O       0.6306   0.9758   0.8557     O
Ga     0.63311  0.54021  0.59905    Ga
Ga     0.63311  0.95979  0.09905    Ga
Ga     0.67248  0.52365  0.24594    Ga
Ga     0.67248  0.97635  0.74594    Ga
O       0.6745   0.0138      0.0     O
O       0.6745   0.4862      0.5     O
O       0.6751   0.5278   0.7821     O
O       0.6751   0.6829    0.622     O
O       0.6751   0.8171    0.122     O
O       0.6751   0.9722   0.2821     O
O       0.6765   0.6788   0.2316     O
O       0.6765   0.8212   0.7316     O
F       0.6828   0.1415   0.7415     F
F       0.6828   0.3585   0.2415     F
O       0.6918   0.1636   0.9028     O
O       0.6918   0.3364   0.4028     O
F       0.7127   0.5051   0.1329     F
F       0.7127   0.9949   0.6329     F
Ga        0.75     0.25  0.31611    Ga
Ga        0.75     0.25  0.81611    Ga
P         0.75     0.75  0.17895     P
P         0.75     0.75  0.67895     P
F       0.7873   0.5051   0.6329     F
F       0.7873   0.9949   0.1329     F
O       0.8082   0.1636   0.4028     O
O       0.8082   0.3364   0.9028     O
F       0.8172   0.1415   0.2415     F
F       0.8172   0.3585   0.7415     F
O       0.8235   0.6788   0.7316     O
O       0.8235   0.8212   0.2316     O
O       0.8249   0.5278   0.2821     O
O       0.8249   0.6829    0.122     O
O       0.8249   0.8171    0.622     O
O       0.8249   0.9722   0.7821     O
O       0.8255   0.0138      0.5     O
O       0.8255   0.4862      0.0     O
Ga     0.82752  0.52365  0.74594    Ga
Ga     0.82752  0.97635  0.24594    Ga
Ga     0.86689  0.54021  0.09905    Ga
Ga     0.86689  0.95979  0.59905    Ga
O       0.8694   0.5242   0.8557     O
O       0.8694   0.9758   0.3557     O
P      0.87446  0.06249  0.42148     P
P      0.87446  0.43751  0.92148     P
O       0.8872   0.1691   0.8006     O
O       0.8872   0.3309   0.3006     O
P      0.91065  0.05761  0.76246     P
P      0.91065  0.44239  0.26246     P
O       0.9151   0.0702   0.6687     O
O       0.9151   0.4298   0.1687     O
O       0.9792   0.5152   0.7039     O
O       0.9792   0.9848   0.2039     O
O       0.9944    0.097   0.4367     O
O       0.9944    0.403   0.9367     O
