data_I
_chemical_name_common  '/home/zhangsd/repos/MofS-CGCNN/CGCNN_MT/data/TS_external_test/clean_cifs/OQUCOU_clean'
_cell_length_a 25.64330
_cell_length_b 13.39040
_cell_length_c 15.12090
_cell_angle_alpha 90.00000
_cell_angle_beta  92.75300
_cell_angle_gamma 90.00000
_space_group_name_H-M_alt      'P 1'


loop_
_space_group_symop_operation_xyz
  'x, y, z' 

loop_
_atom_site_label
_atom_site_fract_x
_atom_site_fract_y
_atom_site_fract_z
_atom_site_type_symbol
Cd         0.0  0.49342      0.5    Cd
O       0.0417    0.627   0.4343     O
O       0.0485   0.3769   0.5714     O
O       0.0619   0.4864   0.3703     O
C       0.0652   0.5772   0.3764     C
O        0.071   0.5203   0.6288     O
C       0.0758   0.4271   0.6233     C
H         0.08   0.7718    0.361     H
O       0.0955   0.9104    0.093     O
C       0.0972    0.636   0.3142     C
C       0.0983   0.7391   0.3178     C
H       0.1073   0.2439   0.6193     H
H       0.1114   0.0835   0.2467     H
C       0.1156   0.3736   0.6822     C
O       0.1233   0.8965   0.2695     O
H       0.1237   0.5181   0.2463     H
C       0.1246   0.5874   0.2498     C
C       0.1254   0.2764   0.6655     C
C       0.1258   0.7946   0.2588     C
C       0.1356   0.9554   0.1172     C
O        0.138   0.9479   0.7791     O
H       0.1383   0.4931   0.7599     H
C       0.1438   0.4252   0.7512     C
C       0.1476   0.0649   0.2498     C
C        0.153   0.6414   0.1909     C
C       0.1533   0.9589   0.2139     C
C       0.1546    0.746   0.1956     C
H       0.1608   0.0673   0.3103     H
O       0.1638   0.9991   0.0643     O
C       0.1639   0.2236   0.7193     C
H        0.167   0.1104    0.215     H
O       0.1726   0.1284   0.6904     O
C       0.1731   0.0043   0.8061     C
H       0.1745   0.7824   0.1571     H
C       0.1788   0.3747   0.8044     C
O       0.1827   0.0187   0.8869     O
C       0.1839   0.5931   0.1221     C
O       0.1863    0.501   0.1157     O
C       0.1897   0.2734   0.7902     C
H         0.19    0.939   0.2201     H
H       0.2034   0.9538   0.6473     H
C       0.2054   0.0626   0.7402     C
O       0.2076   0.6487   0.0693     O
C       0.2081   0.4289   0.8776     C
O       0.2098   0.5235    0.874     O
H       0.2137   0.2397   0.8274     H
C       0.2301   0.9913   0.6792     C
O       0.2309   0.3802   0.9397     O
H       0.2327    0.101   0.7727     H
Cd     0.23864  0.04973   0.0023    Cd
H       0.2475   0.4465    0.287     H
H       0.2497   0.5277   0.3618     H
H       0.2503   0.0277   0.6382     H
H       0.2525   0.9465    0.713     H
Cd     0.26136  0.54973   0.9977    Cd
H       0.2673    0.601   0.2273     H
O       0.2691   0.8802   0.0603     O
C       0.2699   0.4913   0.3208     C
H       0.2863   0.7397   0.1726     H
O       0.2902   0.0235    0.126     O
C       0.2919   0.9289   0.1224     C
O       0.2924   0.1487   0.9307     O
C       0.2946   0.5626   0.2598     C
H       0.2966   0.4538   0.3527     H
H         0.31    0.439   0.7799     H
C       0.3103   0.7734   0.2098     C
O       0.3137    0.001   0.8843     O
C       0.3161   0.0931   0.8779     C
O       0.3173   0.5187   0.1131     O
C       0.3212   0.8747   0.1956     C
H       0.3255   0.2824   0.8429     H
C       0.3269   0.5043   0.1939     C
O       0.3274   0.6284   0.3096     O
H        0.333   0.6104    0.785     H
C       0.3361   0.7236   0.2807     C
O       0.3362   0.4991   0.9357     O
H       0.3392   0.5673   0.6897     H
C       0.3454    0.246   0.8044     C
C       0.3467   0.4589   0.7861     C
C        0.347   0.1414   0.8091     C
C       0.3524   0.5649   0.7502     C
C       0.3562   0.9252   0.2488     C
H       0.3617   0.9931   0.2401     H
O        0.362   0.4479   0.2209     O
C       0.3644   0.4554   0.8828     C
C       0.3742   0.2946   0.7412     C
C       0.3746   0.7764   0.3345     C
C       0.3754   0.0874   0.7502     C
H       0.3763   0.0181   0.7537     H
O       0.3767   0.3965   0.7305     O
C       0.3844   0.8736   0.3178     C
H       0.3886   0.5835   0.7533     H
H       0.3927   0.7439   0.3807     H
C       0.4017   0.2391   0.6822     C
C       0.4028    0.136   0.6858     C
O       0.4045   0.4104    0.907     O
H         0.42   0.2718    0.639     H
C       0.4242   0.9271   0.3767     C
O        0.429   0.0203   0.3712     O
C       0.4348   0.0772   0.6236     C
O       0.4381   0.9864   0.6297     O
O       0.4515   0.8769   0.4286     O
O       0.4583    0.127   0.5657     O
Cd         0.5  0.99342      0.5    Cd
O       0.5417    0.127   0.4343     O
O       0.5485   0.8769   0.5714     O
O       0.5619   0.9864   0.3703     O
C       0.5652   0.0772   0.3764     C
O        0.571   0.0203   0.6288     O
C       0.5758   0.9271   0.6233     C
H         0.58   0.2718    0.361     H
O       0.5955   0.4104    0.093     O
C       0.5972    0.136   0.3142     C
C       0.5983   0.2391   0.3178     C
H       0.6073   0.7439   0.6193     H
H       0.6114   0.5835   0.2467     H
C       0.6156   0.8736   0.6822     C
O       0.6233   0.3965   0.2695     O
H       0.6237   0.0181   0.2463     H
C       0.6246   0.0874   0.2498     C
C       0.6254   0.7764   0.6655     C
C       0.6258   0.2946   0.2588     C
C       0.6356   0.4554   0.1172     C
O        0.638   0.4479   0.7791     O
H       0.6383   0.9931   0.7599     H
C       0.6438   0.9252   0.7512     C
C       0.6476   0.5649   0.2498     C
C        0.653   0.1414   0.1909     C
C       0.6533   0.4589   0.2139     C
C       0.6546    0.246   0.1956     C
H       0.6608   0.5673   0.3103     H
O       0.6638   0.4991   0.0643     O
C       0.6639   0.7236   0.7193     C
H        0.667   0.6104    0.215     H
O       0.6726   0.6284   0.6904     O
C       0.6731   0.5043   0.8061     C
H       0.6745   0.2824   0.1571     H
C       0.6788   0.8747   0.8044     C
O       0.6827   0.5187   0.8869     O
C       0.6839   0.0931   0.1221     C
O       0.6863    0.001   0.1157     O
C       0.6897   0.7734   0.7902     C
H         0.69    0.439   0.2201     H
H       0.7034   0.4538   0.6473     H
C       0.7054   0.5626   0.7402     C
O       0.7076   0.1487   0.0693     O
C       0.7081   0.9289   0.8776     C
O       0.7098   0.0235    0.874     O
H       0.7137   0.7397   0.8274     H
C       0.7301   0.4913   0.6792     C
O       0.7309   0.8802   0.9397     O
H       0.7327    0.601   0.7727     H
Cd     0.73864  0.54973   0.0023    Cd
H       0.7475   0.9465    0.287     H
H       0.7497   0.0277   0.3618     H
H       0.7503   0.5277   0.6382     H
H       0.7525   0.4465    0.713     H
Cd     0.76136  0.04973   0.9977    Cd
H       0.7673    0.101   0.2273     H
O       0.7691   0.3802   0.0603     O
C       0.7699   0.9913   0.3208     C
H       0.7863   0.2397   0.1726     H
O       0.7902   0.5235    0.126     O
C       0.7919   0.4289   0.1224     C
O       0.7924   0.6487   0.9307     O
C       0.7946   0.0626   0.2598     C
H       0.7966   0.9538   0.3527     H
H         0.81    0.939   0.7799     H
C       0.8103   0.2734   0.2098     C
O       0.8137    0.501   0.8843     O
C       0.8161   0.5931   0.8779     C
O       0.8173   0.0187   0.1131     O
C       0.8212   0.3747   0.1956     C
H       0.8255   0.7824   0.8429     H
C       0.8269   0.0043   0.1939     C
O       0.8274   0.1284   0.3096     O
H        0.833   0.1104    0.785     H
C       0.8361   0.2236   0.2807     C
O       0.8362   0.9991   0.9357     O
H       0.8392   0.0673   0.6897     H
C       0.8454    0.746   0.8044     C
C       0.8467   0.9589   0.7861     C
C        0.847   0.6414   0.8091     C
C       0.8524   0.0649   0.7502     C
C       0.8562   0.4252   0.2488     C
H       0.8617   0.4931   0.2401     H
O        0.862   0.9479   0.2209     O
C       0.8644   0.9554   0.8828     C
C       0.8742   0.7946   0.7412     C
C       0.8746   0.2764   0.3345     C
C       0.8754   0.5874   0.7502     C
H       0.8763   0.5181   0.7537     H
O       0.8767   0.8965   0.7305     O
C       0.8844   0.3736   0.3178     C
H       0.8886   0.0835   0.7533     H
H       0.8927   0.2439   0.3807     H
C       0.9017   0.7391   0.6822     C
C       0.9028    0.636   0.6858     C
O       0.9045   0.9104    0.907     O
H         0.92   0.7718    0.639     H
C       0.9242   0.4271   0.3767     C
O        0.929   0.5203   0.3712     O
C       0.9348   0.5772   0.6236     C
O       0.9381   0.4864   0.6297     O
O       0.9515   0.3769   0.4286     O
O       0.9583    0.627   0.5657     O
