data_I
_chemical_name_common  '/home/zhangsd/repos/MofS-CGCNN/CGCNN_MT/data/TS_external_test/clean_cifs/PENNUT_clean'
_cell_length_a 11.72700
_cell_length_b 13.45100
_cell_length_c 15.56500
_cell_angle_alpha 113.39000
_cell_angle_beta  98.71000
_cell_angle_gamma 102.97000
_space_group_name_H-M_alt      'P 1'


loop_
_space_group_symop_operation_xyz
  'x, y, z' 

loop_
_atom_site_label
_atom_site_fract_x
_atom_site_fract_y
_atom_site_fract_z
_atom_site_type_symbol
H       0.0106   0.4502    0.412     H
C       0.0135   0.1038   0.4499     C
C       0.0304   0.0118   0.3869     C
O       0.0457   0.2959   0.5534     O
N        0.054   0.5037   0.3164     N
C        0.067   0.4536   0.3764     C
Zn     0.07657   0.4203  0.68807    Zn
C       0.0837   0.0767   0.6543     C
C       0.0937   0.2208   0.5184     C
H       0.0998   0.1511   0.7013     H
H       0.1032   0.0057   0.3721     H
O       0.1066   0.9181   0.5476     O
H       0.1271   0.5322   0.2194     H
C       0.1352   0.5024   0.2638     C
O       0.1495   0.4826   0.8417     O
C       0.1585   0.4079   0.3873     C
H       0.1623   0.3745   0.4292     H
C       0.1625   0.0311   0.6119     C
H       0.1891   0.7266   0.6375     H
O       0.1984   0.5473   0.6806     O
H       0.1987   0.1749   0.2665     H
O       0.2069   0.2339   0.5354     O
C       0.2178   0.4214   0.8282     C
O       0.2202   0.3582   0.7439     O
H       0.2222   0.1309   0.1634     H
C       0.2306   0.4586   0.2725     C
C       0.2458   0.4112    0.336     C
C       0.2467    0.709    0.604     C
C       0.2605   0.1619   0.2323     C
H       0.2674   0.8132   0.5327     H
C       0.2842    0.547   0.6399     C
H        0.285   0.4612   0.2351     H
C       0.2907   0.7577   0.5454     C
C       0.2918    0.078   0.6172     C
C       0.2932   0.4188   0.9103     C
C       0.3044    0.632   0.6022     C
C       0.3099   0.0761   0.2504     C
O       0.3172     0.51      0.0     O
H       0.3203   0.1327   0.3926     H
H       0.3259   0.9938   0.1184     H
C        0.336   0.0779   0.3407     C
H       0.3374   0.2701    0.869     H
C       0.3386   0.9967   0.1799     C
O       0.3422    0.018   0.5649     O
C        0.343   0.3399   0.9188     C
H       0.3466   0.3443   0.4031     H
O       0.3467   0.1817   0.6821     O
Zn     0.34864  0.34572  0.65291    Zn
H       0.3496   0.2953   0.2119     H
O        0.351   0.4841   0.6302     O
C       0.3517   0.3692   0.3529     C
C       0.3567   0.2739   0.2646     C
C       0.3741   0.7075   0.5111     C
C       0.3854   0.9989   0.3554     C
O       0.3858   0.6307   0.5466     O
C       0.3866   0.9193   0.1969     C
C       0.3889   0.4873   0.0644     C
H        0.401   0.0019   0.4169     H
H       0.4031   0.8643   0.1455     H
C       0.4052    0.385   0.0185     C
O        0.407   0.6676   0.1834     O
O       0.4096   0.7803   0.4044     O
N       0.4107   0.9199   0.2844     N
H       0.4265    0.432   0.3763     H
H       0.4357   0.2635   0.2766     H
C       0.4404   0.5801   0.1645     C
C        0.446   0.7229   0.4452     C
H       0.4488   0.3507   0.0467     H
O       0.4692   0.3177   0.5665     O
Zn     0.48042  0.80835   0.3094    Zn
O       0.4866   0.4368    0.779     O
O       0.5134   0.5632    0.221     O
Zn     0.51958  0.19165   0.6906    Zn
O       0.5308   0.6823   0.4335     O
H       0.5512   0.6493   0.9533     H
C        0.554   0.2771   0.5548     C
C       0.5596   0.4199   0.8355     C
H       0.5643   0.7365   0.7234     H
H       0.5735    0.568   0.6237     H
N       0.5893   0.0801   0.7156     N
O       0.5904   0.2197   0.5956     O
O        0.593   0.3324   0.8166     O
C       0.5948    0.615   0.9815     C
H       0.5969   0.1357   0.8545     H
H        0.599   0.9981   0.5831     H
C       0.6111   0.5127   0.9356     C
C       0.6134   0.0807   0.8031     C
O       0.6142   0.3693   0.4534     O
C       0.6146   0.0011   0.6446     C
C       0.6259   0.2925   0.4889     C
C       0.6433   0.7261   0.7354     C
C       0.6483   0.6308   0.6471     C
O        0.649   0.5159   0.3698     O
H       0.6504   0.7047   0.7881     H
Zn     0.65136  0.65428  0.34709    Zn
O       0.6533   0.8183   0.3179     O
H       0.6534   0.6557   0.5969     H
C        0.657   0.6601   0.0812     C
O       0.6578    0.982   0.4351     O
C       0.6614   0.0033   0.8201     C
H       0.6626   0.7299    0.131     H
C        0.664   0.9221   0.6593     C
H       0.6741   0.0062   0.8816     H
H       0.6797   0.8673   0.6074     H
O       0.6828     0.49      0.0     O
C       0.6901   0.9239   0.7496     C
C       0.6956    0.368   0.3978     C
C       0.7068   0.5812   0.0897     C
C       0.7082    0.922   0.3828     C
C       0.7093   0.2423   0.4546     C
H        0.715   0.5388   0.7649     H
C       0.7158    0.453   0.3601     C
H       0.7326   0.1868   0.4673     H
C       0.7395   0.8381   0.7677     C
C       0.7533    0.291    0.396     C
C       0.7542   0.5888    0.664     C
C       0.7694   0.5414   0.7275     C
H       0.7778   0.8691   0.8366     H
O       0.7798   0.6418   0.2561     O
C       0.7822   0.5786   0.1718     C
O       0.7931   0.7661   0.4646     O
H       0.8013   0.8251   0.7335     H
O       0.8016   0.4527   0.3194     O
H       0.8109   0.2734   0.3625     H
C       0.8375   0.9689   0.3881     C
H       0.8377   0.6255   0.5708     H
C       0.8415   0.5921   0.6127     C
O       0.8505   0.5174   0.1583     O
C       0.8648   0.4976   0.7362     C
H       0.8729   0.4678   0.7806     H
O       0.8934   0.0819   0.4524     O
H       0.8968   0.9943   0.6279     H
H       0.9002   0.8489   0.2987     H
C       0.9063   0.7792   0.4816     C
C       0.9163   0.9233   0.3457     C
Zn     0.92343   0.5797  0.31193    Zn
C        0.933   0.5464   0.6236     C
N        0.946   0.4963   0.6836     N
O       0.9543   0.7041   0.4466     O
C       0.9696   0.9882   0.6131     C
C       0.9865   0.8962   0.5501     C
H       0.9894   0.5498    0.588     H
