data_I
_chemical_name_common  '/home/zhangsd/repos/MofS-CGCNN/CGCNN_MT/data/TS_external_test/clean_cifs/RUZCOF_clean'
_cell_length_a  9.90960
_cell_length_b 15.67800
_cell_length_c 13.80220
_cell_angle_alpha 90.00000
_cell_angle_beta  90.00000
_cell_angle_gamma 90.00000
_space_group_name_H-M_alt      'P 1'


loop_
_space_group_symop_operation_xyz
  'x, y, z' 

loop_
_atom_site_label
_atom_site_fract_x
_atom_site_fract_y
_atom_site_fract_z
_atom_site_type_symbol
Zn         0.0  0.22788     0.75    Zn
Zn         0.0  0.77212     0.25    Zn
P      0.02831  0.38334  0.88608     P
P      0.02831  0.61666  0.38608     P
Zn     0.04004  0.41747  0.10735    Zn
Zn     0.04004  0.58253  0.60735    Zn
O       0.0511   0.3039   0.6437     O
O       0.0511   0.6961   0.1437     O
O       0.0613   0.4604   0.6162     O
O       0.0613   0.5396   0.1162     O
O        0.098   0.3708   0.9829     O
O        0.098   0.6292   0.4829     O
H         0.13   0.3959    0.816     H
H         0.13   0.6041    0.316     H
O       0.1426   0.1643   0.8052     O
O       0.1426   0.8357   0.3052     O
O       0.1467   0.3833   0.3737     O
O       0.1467   0.6167   0.8737     O
O        0.165   0.3598   0.1922     O
O        0.165   0.6402   0.6922     O
H        0.226    0.033   0.7729     H
H        0.226    0.967   0.2729     H
P      0.23491  0.38638  0.28443     P
P      0.23491  0.61362  0.78443     P
P      0.26509  0.11362  0.78443     P
P      0.26509  0.88638  0.28443     P
H        0.274    0.467   0.2729     H
H        0.274    0.533   0.7729     H
O        0.335   0.1402   0.6922     O
O        0.335   0.8598   0.1922     O
O       0.3533   0.1167   0.8737     O
O       0.3533   0.8833   0.3737     O
O       0.3574   0.3357   0.3052     O
O       0.3574   0.6643   0.8052     O
H         0.37   0.1041    0.316     H
H         0.37   0.8959    0.816     H
O        0.402   0.1292   0.4829     O
O        0.402   0.8708   0.9829     O
O       0.4387   0.0396   0.1162     O
O       0.4387   0.9604   0.6162     O
O       0.4489   0.1961   0.1437     O
O       0.4489   0.8039   0.6437     O
Zn     0.45996  0.08253  0.60735    Zn
Zn     0.45996  0.91747  0.10735    Zn
P      0.47169  0.11666  0.38608     P
P      0.47169  0.88334  0.88608     P
Zn         0.5  0.27212     0.25    Zn
Zn         0.5  0.72788     0.75    Zn
P      0.52831  0.11666  0.11392     P
P      0.52831  0.88334  0.61392     P
Zn     0.54004  0.08253  0.89265    Zn
Zn     0.54004  0.91747  0.39265    Zn
O       0.5511   0.1961   0.3563     O
O       0.5511   0.8039   0.8563     O
O       0.5613   0.0396   0.3838     O
O       0.5613   0.9604   0.8838     O
O        0.598   0.1292   0.0171     O
O        0.598   0.8708   0.5171     O
H         0.63   0.1041    0.184     H
H         0.63   0.8959    0.684     H
O       0.6426   0.3357   0.1948     O
O       0.6426   0.6643   0.6948     O
O       0.6467   0.1167   0.6263     O
O       0.6467   0.8833   0.1263     O
O        0.665   0.1402   0.8078     O
O        0.665   0.8598   0.3078     O
H        0.726    0.467   0.2271     H
H        0.726    0.533   0.7271     H
P      0.73491  0.11362  0.71557     P
P      0.73491  0.88638  0.21557     P
P      0.76509  0.38638  0.21557     P
P      0.76509  0.61362  0.71557     P
H        0.774    0.033   0.7271     H
H        0.774    0.967   0.2271     H
O        0.835   0.3598   0.3078     O
O        0.835   0.6402   0.8078     O
O       0.8533   0.3833   0.1263     O
O       0.8533   0.6167   0.6263     O
O       0.8574   0.1643   0.6948     O
O       0.8574   0.8357   0.1948     O
H         0.87   0.3959    0.684     H
H         0.87   0.6041    0.184     H
O        0.902   0.3708   0.5171     O
O        0.902   0.6292   0.0171     O
O       0.9387   0.4604   0.8838     O
O       0.9387   0.5396   0.3838     O
O       0.9489   0.3039   0.8563     O
O       0.9489   0.6961   0.3563     O
Zn     0.95996  0.41747  0.39265    Zn
Zn     0.95996  0.58253  0.89265    Zn
P      0.97169  0.38334  0.61392     P
P      0.97169  0.61666  0.11392     P
