data_I
_chemical_name_common  '/home/zhangsd/repos/MofS-CGCNN/CGCNN_MT/data/TS_external_test/clean_cifs/SEZPOE_clean'
_cell_length_a  9.58520
_cell_length_b 20.39410
_cell_length_c 10.53390
_cell_angle_alpha 90.00000
_cell_angle_beta  94.12500
_cell_angle_gamma 90.00000
_space_group_name_H-M_alt      'P 1'


loop_
_space_group_symop_operation_xyz
  'x, y, z' 

loop_
_atom_site_label
_atom_site_fract_x
_atom_site_fract_y
_atom_site_fract_z
_atom_site_type_symbol
H        0.025    0.719    0.971     H
H        0.025    0.781    0.471     H
Zn     0.03663  0.56614  0.86604    Zn
Zn     0.03663  0.93386  0.36604    Zn
O       0.0396  0.14229   0.9315     O
O       0.0396  0.35771   0.4315     O
O       0.0468  0.51686   0.1927     O
O       0.0468  0.98314   0.6927     O
P      0.09879  0.20143  0.57076     P
P      0.09879  0.29857  0.07076     P
O          0.1  0.12705   0.5762     O
O          0.1  0.37295   0.0762     O
P      0.11013  0.62036  0.59332     P
P      0.11013  0.87964  0.09332     P
H        0.119    0.625   0.1484     H
H        0.119    0.875   0.6484     H
O       0.1283  0.23341   0.6987     O
O       0.1283  0.26659   0.1987     O
O       0.1415  0.57319   0.4888     O
O       0.1415  0.92681   0.9888     O
O       0.1444  0.59199   0.7241     O
O       0.1444  0.90801   0.2241     O
P      0.16209  0.55819  0.14032     P
P      0.16209  0.94181  0.64032     P
O       0.1803   0.5447   0.0005     O
O       0.1803   0.9553   0.5005     O
Zn     0.18166  0.19629  0.86352    Zn
Zn     0.18166  0.30371  0.36352    Zn
H        0.187     0.67   0.5826     H
H        0.187     0.83   0.0826     H
O        0.199  0.22414    0.474     O
O        0.199  0.27586    0.974     O
O       0.2999  0.55255     0.22     O
O       0.2999  0.94745     0.72     O
Zn      0.3093  0.55121    0.404    Zn
Zn      0.3093  0.94879    0.904    Zn
O       0.3402  0.03867   0.9652     O
O       0.3402  0.46133   0.4652     O
O       0.3595  0.15255     0.87     O
O       0.3595  0.34745     0.37     O
P      0.43584  0.09273  0.92316     P
P      0.43584  0.40727  0.42316     P
O        0.455  0.61059   0.4713     O
O        0.455  0.88941   0.9713     O
H        0.498    0.569    0.667     H
H        0.498    0.931    0.167     H
H        0.502    0.069    0.833     H
H        0.502    0.431    0.333     H
O        0.545  0.11059   0.0287     O
O        0.545  0.38941   0.5287     O
P      0.56416  0.59273  0.57684     P
P      0.56416  0.90727  0.07684     P
O       0.6405  0.65255     0.63     O
O       0.6405  0.84745     0.13     O
O       0.6598  0.53867   0.5348     O
O       0.6598  0.96133   0.0348     O
Zn      0.6907  0.05121    0.096    Zn
Zn      0.6907  0.44879    0.596    Zn
O       0.7001  0.05255     0.28     O
O       0.7001  0.44745     0.78     O
O        0.801  0.72414    0.026     O
O        0.801  0.77586    0.526     O
H        0.813     0.17   0.9174     H
H        0.813     0.33   0.4174     H
Zn     0.81834  0.69629  0.63648    Zn
Zn     0.81834  0.80371  0.13648    Zn
O       0.8197   0.0447   0.4995     O
O       0.8197   0.4553   0.9995     O
P      0.83791  0.05819  0.35968     P
P      0.83791  0.44181  0.85968     P
O       0.8556  0.09199   0.7759     O
O       0.8556  0.40801   0.2759     O
O       0.8585  0.07319   0.0112     O
O       0.8585  0.42681   0.5112     O
O       0.8717  0.73341   0.8013     O
O       0.8717  0.76659   0.3013     O
H        0.881    0.125   0.3516     H
H        0.881    0.375   0.8516     H
P      0.88987  0.12036  0.90668     P
P      0.88987  0.37964  0.40668     P
O          0.9  0.62705   0.9238     O
O          0.9  0.87295   0.4238     O
P      0.90121  0.70143  0.92924     P
P      0.90121  0.79857  0.42924     P
O       0.9532  0.01686   0.3073     O
O       0.9532  0.48314   0.8073     O
O       0.9604  0.64229   0.5685     O
O       0.9604  0.85771   0.0685     O
Zn     0.96337  0.06614  0.63396    Zn
Zn     0.96337  0.43386  0.13396    Zn
H        0.975    0.219    0.529     H
H        0.975    0.281    0.029     H
