data_I
_chemical_name_common  '/home/zhangsd/repos/MofS-CGCNN/CGCNN_MT/data/TS_external_test/clean_cifs/TUMQID_clean'
_cell_length_a  9.86600
_cell_length_b 17.64600
_cell_length_c 11.91420
_cell_angle_alpha 90.00000
_cell_angle_beta  96.01400
_cell_angle_gamma 90.00000
_space_group_name_H-M_alt      'P 1'


loop_
_space_group_symop_operation_xyz
  'x, y, z' 

loop_
_atom_site_label
_atom_site_fract_x
_atom_site_fract_y
_atom_site_fract_z
_atom_site_type_symbol
N        0.011  0.93815   0.0946     N
C       0.0152  0.88753   0.1754     C
N       0.0384  0.17929    0.868     N
C       0.0386  0.63761   0.2805     C
H         0.04   0.8139   0.3811     H
N       0.0481  0.09512   0.0033     N
C        0.057  0.25069   0.8101     C
O       0.0573  0.81926   0.7657     O
C       0.0581   0.7056   0.2224     C
C       0.0681  0.90891   0.2904     C
C        0.073   0.8639   0.3856     C
Cu     0.07597  0.04365  0.15226    Cu
C       0.0767  0.16536   0.9784     C
C       0.0918  0.38454   0.6997     C
H       0.1036   0.4303   0.6615     H
N       0.1111  0.98214   0.2956     N
H       0.1179   0.2009     0.03     H
C       0.1273   0.8937   0.4871     C
H       0.1311   0.8641   0.5529     H
O       0.1324  0.93289    0.812     O
H       0.1452   0.7209   0.2062     H
O       0.1468  0.53143   0.3754     O
C       0.1507    0.865   0.7841     C
C       0.1615  0.59003   0.3211     C
C       0.1643   0.0101   0.3944     C
C       0.1765   0.9674   0.4925     C
C       0.1867  0.27125    0.789     C
H       0.1947   0.0606   0.3977     H
C       0.2059  0.34048   0.7351     C
H        0.217   0.9878   0.5608     H
O       0.2232  0.11453   0.2034     O
H       0.2388   0.7393   0.6895     H
H       0.2612   0.2393   0.8105     H
O       0.2768  0.61453   0.2966     O
H        0.283   0.4878   0.9392     H
C       0.2941  0.84048   0.7649     C
H       0.3053   0.5606   0.1023     H
C       0.3133  0.77125    0.711     C
C       0.3235   0.4674   0.0075     C
C       0.3357   0.5101   0.1056     C
C       0.3385  0.09003   0.1789     C
C       0.3493    0.365   0.7159     C
O       0.3532  0.03143   0.1246     O
H       0.3548   0.2209   0.2938     H
O       0.3676  0.43289    0.688     O
H       0.3689   0.3641   0.9471     H
C       0.3727   0.3937   0.0129     C
H       0.3821   0.7009     0.47     H
N       0.3889  0.48214   0.2044     N
H       0.3964   0.9303   0.8385     H
C       0.4082  0.88454   0.8003     C
C       0.4233  0.66536   0.5216     C
Cu     0.42403  0.54365  0.34774    Cu
C        0.427   0.3639   0.1144     C
C       0.4319  0.40891   0.2096     C
C       0.4419   0.2056   0.2776     C
O       0.4427  0.31926   0.7343     O
C        0.443  0.75069   0.6899     C
N       0.4519  0.59512   0.4967     N
H         0.46   0.3139   0.1189     H
C       0.4614  0.13761   0.2195     C
N       0.4616  0.67929    0.632     N
C       0.4848  0.38753   0.3246     C
N        0.489  0.43815   0.4054     N
N        0.511  0.56185   0.5946     N
C       0.5152  0.61247   0.6754     C
N       0.5384  0.32071    0.368     N
C       0.5386  0.86239   0.7805     C
H         0.54   0.6861   0.8811     H
N       0.5481  0.40488   0.5033     N
C        0.557  0.24931   0.3101     C
O       0.5573  0.68074   0.2657     O
C       0.5581   0.7944   0.7224     C
C       0.5681  0.59109   0.7904     C
C        0.573   0.6361   0.8856     C
Cu     0.57597  0.45635  0.65226    Cu
C       0.5767  0.33464   0.4784     C
C       0.5918  0.11546   0.1997     C
H       0.6036   0.0697   0.1615     H
N       0.6111  0.51786   0.7956     N
H       0.6179   0.2991     0.53     H
C       0.6273   0.6063   0.9871     C
H       0.6311   0.6359   0.0529     H
O       0.6324  0.56711    0.312     O
H       0.6452   0.7791   0.7062     H
O       0.6468  0.96857   0.8754     O
C       0.6507    0.635   0.2841     C
C       0.6615  0.90997   0.8211     C
C       0.6643   0.4899   0.8944     C
C       0.6765   0.5326   0.9925     C
C       0.6867  0.22875    0.289     C
H       0.6947   0.4394   0.8977     H
C       0.7059  0.15952   0.2351     C
H        0.717   0.5122   0.0608     H
O       0.7232  0.38547   0.7034     O
H       0.7388   0.7607   0.1895     H
H       0.7612   0.2607   0.3105     H
O       0.7768  0.88547   0.7966     O
H        0.783   0.0122   0.4392     H
C       0.7941  0.65952   0.2649     C
H       0.8053   0.9394   0.6023     H
C       0.8133  0.72875    0.211     C
C       0.8235   0.0326   0.5075     C
C       0.8357   0.9899   0.6056     C
C       0.8385  0.40997   0.6789     C
C       0.8493    0.135   0.2159     C
O       0.8532  0.46857   0.6246     O
H       0.8548   0.2791   0.7938     H
O       0.8676  0.06711    0.188     O
H       0.8689   0.1359   0.4471     H
C       0.8727   0.1063   0.5129     C
H       0.8821   0.7991     0.97     H
N       0.8889  0.01786   0.7044     N
H       0.8964   0.5697   0.3385     H
C       0.9082  0.61546   0.3003     C
C       0.9233  0.83464   0.0216     C
Cu     0.92403  0.95635  0.84774    Cu
C        0.927   0.1361   0.6144     C
C       0.9319  0.09109   0.7096     C
C       0.9419   0.2944   0.7776     C
O       0.9427  0.18074   0.2343     O
C        0.943  0.74931   0.1899     C
N       0.9519  0.90488   0.9967     N
H         0.96   0.1861   0.6189     H
C       0.9614  0.36239   0.7195     C
N       0.9616  0.82071    0.132     N
C       0.9848  0.11247   0.8246     C
N        0.989  0.06185   0.9054     N
