data_I
_chemical_name_common  '/home/zhangsd/repos/MofS-CGCNN/CGCNN_MT/data/TS_external_test/clean_cifs/UTUMAY_clean'
_cell_length_a 12.03400
_cell_length_b 19.80300
_cell_length_c 16.38900
_cell_angle_alpha 90.00000
_cell_angle_beta  90.00000
_cell_angle_gamma 90.00000
_space_group_name_H-M_alt      'P 1'


loop_
_space_group_symop_operation_xyz
  'x, y, z' 

loop_
_atom_site_label
_atom_site_fract_x
_atom_site_fract_y
_atom_site_fract_z
_atom_site_type_symbol
C       0.0025   0.0967   0.4688     C
C       0.0025   0.4033   0.9688     C
H       0.0222   0.5124   0.0777     H
H       0.0222   0.9876   0.5777     H
C       0.0232   0.0251   0.4695     C
C       0.0232   0.4749   0.9695     C
C       0.0282   0.2057   0.5302     C
C       0.0282   0.2943   0.0302     C
H       0.0344   0.0472   0.0506     H
H       0.0344   0.4528   0.5506     H
N       0.0406   0.7335   0.0278     N
N       0.0406   0.7665   0.5278     N
C       0.0525   0.1368   0.5297     C
C       0.0525   0.3632   0.0297     C
H       0.0589   0.2331   0.5703     H
H       0.0589   0.2669   0.0703     H
N       0.0628  0.11516  0.96255     N
N       0.0628  0.38484  0.46255     N
C       0.0652   0.6246   0.0904     C
C       0.0652   0.8754   0.5904     C
O       0.0717   0.5912  0.70531     O
O       0.0717   0.9088  0.20531     O
Zn     0.08278  0.66836  0.53059    Zn
Zn     0.08278  0.83164  0.03059    Zn
C       0.0852   0.0603   0.0109     C
C       0.0852   0.4397   0.5109     C
C       0.0886   0.6932   0.0885     C
C       0.0886   0.8068   0.5885     C
H        0.095   0.5975   0.1313     H
H        0.095   0.9025   0.6313     H
H          0.1    0.118   0.5682     H
H          0.1    0.382   0.0682     H
H       0.1035   0.6491   0.8552     H
H       0.1035   0.8509   0.3552     H
H       0.1241   0.0055   0.3764     H
H       0.1241   0.4945   0.8764     H
H       0.1263   0.1739   0.8728     H
H       0.1263   0.3261   0.3728     H
H       0.1357   0.7122   0.1272     H
H       0.1357   0.7878   0.6272     H
C       0.1358   0.0088   0.4348     C
C       0.1358   0.4912   0.9348     C
C       0.1404  0.13612   0.9048     C
C       0.1404  0.36388   0.4048     C
H       0.1515   0.5368   0.9533     H
H       0.1515   0.9632   0.4533     H
C       0.1551   0.6317   0.7006     C
C       0.1551   0.8683   0.2006     C
O       0.1554  0.65583  0.41398     O
O       0.1554  0.84417  0.91398     O
O       0.1755  0.66044  0.63884     O
O       0.1755  0.83956  0.13884     O
C       0.1798   0.6441   0.8483     C
C       0.1798   0.8559   0.3483     C
C       0.1834    0.024   0.0008     C
C       0.1834    0.476   0.5008     C
H       0.1967   0.5141   0.5325     H
H       0.1967   0.9859   0.0325     H
H       0.1989   0.6419   0.2619     H
H       0.1989   0.8581   0.7619     H
H       0.2093   0.1136    0.356     H
H       0.2093   0.3864    0.856     H
O        0.213  0.61579  0.97943     O
O        0.213  0.88421  0.47943     O
C       0.2245   0.6396    0.769     C
C       0.2245   0.8604    0.269     C
C       0.2387  0.04441   0.4437     C
C       0.2387  0.45559   0.9437     C
C       0.2393   0.1001   0.8952     C
C       0.2393   0.3999   0.3952     C
C       0.2476   0.6411   0.9152     C
C       0.2476   0.8589   0.4152     C
C       0.2524   0.6411   0.4152     C
C       0.2524   0.8589   0.9152     C
C       0.2607   0.1001   0.3952     C
C       0.2607   0.3999   0.8952     C
C       0.2613  0.04441   0.9437     C
C       0.2613  0.45559   0.4437     C
C       0.2755   0.6396    0.269     C
C       0.2755   0.8604    0.769     C
O        0.287  0.61579  0.47943     O
O        0.287  0.88421  0.97943     O
H       0.2907   0.1136    0.856     H
H       0.2907   0.3864    0.356     H
H       0.3011   0.6419   0.7619     H
H       0.3011   0.8581   0.2619     H
H       0.3033   0.5141   0.0325     H
H       0.3033   0.9859   0.5325     H
C       0.3166    0.024   0.5008     C
C       0.3166    0.476   0.0008     C
C       0.3202   0.6441   0.3483     C
C       0.3202   0.8559   0.8483     C
O       0.3245  0.66044  0.13884     O
O       0.3245  0.83956  0.63884     O
O       0.3446  0.65583  0.91398     O
O       0.3446  0.84417  0.41398     O
C       0.3449   0.6317   0.2006     C
C       0.3449   0.8683   0.7006     C
H       0.3485   0.5368   0.4533     H
H       0.3485   0.9632   0.9533     H
C       0.3596  0.13612   0.4048     C
C       0.3596  0.36388   0.9048     C
C       0.3642   0.0088   0.9348     C
C       0.3642   0.4912   0.4348     C
H       0.3643   0.7122   0.6272     H
H       0.3643   0.7878   0.1272     H
H       0.3737   0.1739   0.3728     H
H       0.3737   0.3261   0.8728     H
H       0.3759   0.0055   0.8764     H
H       0.3759   0.4945   0.3764     H
H       0.3965   0.6491   0.3552     H
H       0.3965   0.8509   0.8552     H
H          0.4    0.118   0.0682     H
H          0.4    0.382   0.5682     H
H        0.405   0.5975   0.6313     H
H        0.405   0.9025   0.1313     H
C       0.4114   0.6932   0.5885     C
C       0.4114   0.8068   0.0885     C
C       0.4148   0.0603   0.5109     C
C       0.4148   0.4397   0.0109     C
Zn     0.41722  0.66836  0.03059    Zn
Zn     0.41722  0.83164  0.53059    Zn
O       0.4283   0.5912  0.20531     O
O       0.4283   0.9088  0.70531     O
C       0.4348   0.6246   0.5904     C
C       0.4348   0.8754   0.0904     C
N       0.4372  0.11516  0.46255     N
N       0.4372  0.38484  0.96255     N
H       0.4411   0.2331   0.0703     H
H       0.4411   0.2669   0.5703     H
C       0.4475   0.1368   0.0297     C
C       0.4475   0.3632   0.5297     C
N       0.4594   0.7335   0.5278     N
N       0.4594   0.7665   0.0278     N
H       0.4656   0.0472   0.5506     H
H       0.4656   0.4528   0.0506     H
C       0.4718   0.2057   0.0302     C
C       0.4718   0.2943   0.5302     C
C       0.4768   0.0251   0.9695     C
C       0.4768   0.4749   0.4695     C
H       0.4778   0.5124   0.5777     H
H       0.4778   0.9876   0.0777     H
C       0.4975   0.0967   0.9688     C
C       0.4975   0.4033   0.4688     C
C       0.5025   0.5967   0.5312     C
C       0.5025   0.9033   0.0312     C
H       0.5222   0.0124   0.9223     H
H       0.5222   0.4876   0.4223     H
C       0.5232   0.5251   0.5305     C
C       0.5232   0.9749   0.0305     C
C       0.5282   0.7057   0.4698     C
C       0.5282   0.7943   0.9698     C
H       0.5344   0.5472   0.9494     H
H       0.5344   0.9528   0.4494     H
N       0.5406   0.2335   0.9722     N
N       0.5406   0.2665   0.4722     N
C       0.5525   0.6368   0.4703     C
C       0.5525   0.8632   0.9703     C
H       0.5589   0.7331   0.4297     H
H       0.5589   0.7669   0.9297     H
N       0.5628  0.61516  0.03745     N
N       0.5628  0.88484  0.53745     N
C       0.5652   0.1246   0.9096     C
C       0.5652   0.3754   0.4096     C
O       0.5717   0.0912  0.29469     O
O       0.5717   0.4088  0.79469     O
Zn     0.58278  0.16836  0.46941    Zn
Zn     0.58278  0.33164  0.96941    Zn
C       0.5852   0.5603   0.9891     C
C       0.5852   0.9397   0.4891     C
C       0.5886   0.1932   0.9115     C
C       0.5886   0.3068   0.4115     C
H        0.595   0.0975   0.8687     H
H        0.595   0.4025   0.3687     H
H          0.6    0.618   0.4318     H
H          0.6    0.882   0.9318     H
H       0.6035   0.1491   0.1448     H
H       0.6035   0.3509   0.6448     H
H       0.6241   0.5055   0.6236     H
H       0.6241   0.9945   0.1236     H
H       0.6263   0.6739   0.1272     H
H       0.6263   0.8261   0.6272     H
H       0.6357   0.2122   0.8728     H
H       0.6357   0.2878   0.3728     H
C       0.6358   0.5088   0.5652     C
C       0.6358   0.9912   0.0652     C
C       0.6404  0.63612   0.0952     C
C       0.6404  0.86388   0.5952     C
H       0.6515   0.0368   0.0467     H
H       0.6515   0.4632   0.5467     H
C       0.6551   0.1317   0.2994     C
C       0.6551   0.3683   0.7994     C
O       0.6554  0.15583  0.58602     O
O       0.6554  0.34417  0.08602     O
O       0.6755  0.16044  0.36116     O
O       0.6755  0.33956  0.86116     O
C       0.6798   0.1441   0.1517     C
C       0.6798   0.3559   0.6517     C
C       0.6834    0.524   0.9992     C
C       0.6834    0.976   0.4992     C
H       0.6967   0.0141   0.4675     H
H       0.6967   0.4859   0.9675     H
H       0.6989   0.1419   0.7381     H
H       0.6989   0.3581   0.2381     H
H       0.7093   0.6136    0.644     H
H       0.7093   0.8864    0.144     H
O        0.713  0.11579  0.02057     O
O        0.713  0.38421  0.52057     O
C       0.7245   0.1396    0.231     C
C       0.7245   0.3604    0.731     C
C       0.7387  0.54441   0.5563     C
C       0.7387  0.95559   0.0563     C
C       0.7393   0.6001   0.1048     C
C       0.7393   0.8999   0.6048     C
C       0.7476   0.1411   0.0848     C
C       0.7476   0.3589   0.5848     C
C       0.7524   0.1411   0.5848     C
C       0.7524   0.3589   0.0848     C
C       0.7607   0.6001   0.6048     C
C       0.7607   0.8999   0.1048     C
C       0.7613  0.54441   0.0563     C
C       0.7613  0.95559   0.5563     C
C       0.7755   0.1396    0.731     C
C       0.7755   0.3604    0.231     C
O        0.787  0.11579  0.52057     O
O        0.787  0.38421  0.02057     O
H       0.7907   0.6136    0.144     H
H       0.7907   0.8864    0.644     H
H       0.8011   0.1419   0.2381     H
H       0.8011   0.3581   0.7381     H
H       0.8033   0.0141   0.9675     H
H       0.8033   0.4859   0.4675     H
C       0.8166    0.524   0.4992     C
C       0.8166    0.976   0.9992     C
C       0.8202   0.1441   0.6517     C
C       0.8202   0.3559   0.1517     C
O       0.8245  0.16044  0.86116     O
O       0.8245  0.33956  0.36116     O
O       0.8446  0.15583  0.08602     O
O       0.8446  0.34417  0.58602     O
C       0.8449   0.1317   0.7994     C
C       0.8449   0.3683   0.2994     C
H       0.8485   0.0368   0.5467     H
H       0.8485   0.4632   0.0467     H
C       0.8596  0.63612   0.5952     C
C       0.8596  0.86388   0.0952     C
C       0.8642   0.5088   0.0652     C
C       0.8642   0.9912   0.5652     C
H       0.8643   0.2122   0.3728     H
H       0.8643   0.2878   0.8728     H
H       0.8737   0.6739   0.6272     H
H       0.8737   0.8261   0.1272     H
H       0.8759   0.5055   0.1236     H
H       0.8759   0.9945   0.6236     H
H       0.8965   0.1491   0.6448     H
H       0.8965   0.3509   0.1448     H
H          0.9    0.618   0.9318     H
H          0.9    0.882   0.4318     H
H        0.905   0.0975   0.3687     H
H        0.905   0.4025   0.8687     H
C       0.9114   0.1932   0.4115     C
C       0.9114   0.3068   0.9115     C
C       0.9148   0.5603   0.4891     C
C       0.9148   0.9397   0.9891     C
Zn     0.91722  0.16836  0.96941    Zn
Zn     0.91722  0.33164  0.46941    Zn
O       0.9283   0.0912  0.79469     O
O       0.9283   0.4088  0.29469     O
C       0.9348   0.1246   0.4096     C
C       0.9348   0.3754   0.9096     C
N       0.9372  0.61516  0.53745     N
N       0.9372  0.88484  0.03745     N
H       0.9411   0.7331   0.9297     H
H       0.9411   0.7669   0.4297     H
C       0.9475   0.6368   0.9703     C
C       0.9475   0.8632   0.4703     C
N       0.9594   0.2335   0.4722     N
N       0.9594   0.2665   0.9722     N
H       0.9656   0.5472   0.4494     H
H       0.9656   0.9528   0.9494     H
C       0.9718   0.7057   0.9698     C
C       0.9718   0.7943   0.4698     C
C       0.9768   0.5251   0.0305     C
C       0.9768   0.9749   0.5305     C
H       0.9778   0.0124   0.4223     H
H       0.9778   0.4876   0.9223     H
C       0.9975   0.5967   0.0312     C
C       0.9975   0.9033   0.5312     C
