data_I
_chemical_name_common  '/home/zhangsd/repos/MofS-CGCNN/CGCNN_MT/data/TS_external_test/clean_cifs/XANDAU_clean'
_cell_length_a 28.12950
_cell_length_b 15.23050
_cell_length_c  8.76070
_cell_angle_alpha 90.00000
_cell_angle_beta  98.83500
_cell_angle_gamma 90.00000
_space_group_name_H-M_alt      'P 1'


loop_
_space_group_symop_operation_xyz
  'x, y, z' 

loop_
_atom_site_label
_atom_site_fract_x
_atom_site_fract_y
_atom_site_fract_z
_atom_site_type_symbol
H       0.0159   0.0494   0.8712     H
H       0.0159   0.9506   0.3712     H
C       0.0166   0.3344   0.8121     C
C       0.0166   0.6656   0.3121     C
C       0.0187   0.1777   0.8135     C
C       0.0187   0.8223   0.3135     C
H       0.0272   0.3875   0.8574     H
H       0.0272   0.6125   0.3574     H
C       0.0357   0.2578   0.8751     C
C       0.0357   0.7422   0.3751     C
H       0.0382   0.3554   0.3044     H
H       0.0382   0.6446   0.8044     H
C      0.04051   0.0945    0.881     C
C      0.04051   0.9055    0.381     C
H       0.0515   0.1035   0.9904     H
H       0.0515   0.8965   0.4904     H
H       0.0601   0.2592   0.9597     H
H       0.0601   0.7408   0.4597     H
C       0.0678   0.3741   0.3556     C
C       0.0678   0.6259   0.8556     C
H       0.0746     0.28   0.5168     H
H       0.0746     0.72   0.0168     H
H       0.0748    0.476   0.2163     H
H       0.0748    0.524   0.7163     H
O      0.08153   0.0694   0.6629     O
O      0.08153   0.9306   0.1629     O
C      0.08236   0.0622   0.8059     C
C      0.08236   0.9378   0.3059     C
C       0.0891    0.446   0.3038     C
C       0.0891    0.554   0.8038     C
C      0.08975    0.329    0.483     C
C      0.08975    0.671    0.983     C
O      0.11821   0.0266   0.8895     O
O      0.11821   0.9734   0.3895     O
H       0.1308   0.3011   0.7734     H
H       0.1308   0.6989   0.2734     H
C       0.1323   0.4727   0.3842     C
C       0.1323   0.5273   0.8842     C
C      0.13347   0.3547   0.5612     C
C      0.13347   0.6453   0.0612     C
H       0.1464   0.4765   0.8529     H
H       0.1464   0.5235   0.3529     H
C       0.1539   0.3007   0.7018     C
C       0.1539   0.6993   0.2018     C
C      0.15587   0.4267   0.5112     C
C      0.15587   0.5733   0.0112     C
O      0.16061  0.17468   0.5375     O
O      0.16061  0.82532   0.0375     O
C      0.16613   0.2067   0.6716     C
C      0.16613   0.7933   0.1716     C
La     0.16754  0.01363  0.64202    La
La     0.16754  0.98637  0.14202    La
O       0.1806  0.16019   0.7881     O
O       0.1806  0.83981   0.2881     O
H       0.1828   0.3295   0.7526     H
H       0.1828   0.6705   0.2526     H
H       0.1967   0.4729    0.104     H
H       0.1967   0.5271    0.604     H
C      0.20156   0.4646   0.5926     C
C      0.20156   0.5354   0.0926     C
H       0.2074   0.4396   0.6957     H
H       0.2074   0.5604   0.1957     H
O      0.21322  0.02698    0.398     O
O      0.21322  0.97302    0.898     O
O      0.24528   0.4292   0.3828     O
O      0.24528   0.5708   0.8828     O
C      0.24689    0.452   0.5199     C
C      0.24689    0.548   0.0199     C
C      0.25311    0.048   0.4801     C
C      0.25311    0.952   0.9801     C
O      0.25472   0.0708   0.6172     O
O      0.25472   0.9292   0.1172     O
O      0.28678  0.47302    0.602     O
O      0.28678  0.52698    0.102     O
H       0.2926   0.0604   0.3043     H
H       0.2926   0.9396   0.8043     H
C      0.29844   0.0354   0.4074     C
C      0.29844   0.9646   0.9074     C
H       0.3033   0.0271    0.896     H
H       0.3033   0.9729    0.396     H
H       0.3172   0.1705   0.2474     H
H       0.3172   0.8295   0.7474     H
O       0.3194  0.33981   0.2119     O
O       0.3194  0.66019   0.7119     O
La     0.33246  0.48637  0.35798    La
La     0.33246  0.51363  0.85798    La
C      0.33387   0.2933   0.3284     C
C      0.33387   0.7067   0.8284     C
O      0.33939  0.32532   0.4625     O
O      0.33939  0.67468   0.9625     O
C      0.34413   0.0733   0.4888     C
C      0.34413   0.9267   0.9888     C
C       0.3461   0.1993   0.2982     C
C       0.3461   0.8007   0.7982     C
H       0.3536   0.0235   0.1471     H
H       0.3536   0.9765   0.6471     H
C      0.36653   0.1453   0.4388     C
C      0.36653   0.8547   0.9388     C
C       0.3677   0.0273   0.6158     C
C       0.3677   0.9727   0.1158     C
H       0.3692   0.1989   0.2266     H
H       0.3692   0.8011   0.7266     H
O      0.38179   0.4734   0.1105     O
O      0.38179   0.5266   0.6105     O
C      0.41025    0.171    0.517     C
C      0.41025    0.829    0.017     C
C       0.4109    0.054   0.6962     C
C       0.4109    0.946   0.1962     C
C      0.41764   0.4378   0.1941     C
C      0.41764   0.5622   0.6941     C
O      0.41847   0.4306   0.3371     O
O      0.41847   0.5694   0.8371     O
H       0.4252    0.024   0.7837     H
H       0.4252    0.976   0.2837     H
H       0.4254     0.22   0.4832     H
H       0.4254     0.78   0.9832     H
C       0.4322   0.1259   0.6444     C
C       0.4322   0.8741   0.1444     C
H       0.4399   0.2408   0.0403     H
H       0.4399   0.7592   0.5403     H
H       0.4485   0.3965   0.0096     H
H       0.4485   0.6035   0.5096     H
C      0.45949   0.4055    0.119     C
C      0.45949   0.5945    0.619     C
H       0.4618   0.1446   0.6956     H
H       0.4618   0.8554   0.1956     H
C       0.4643   0.2422   0.1249     C
C       0.4643   0.7578   0.6249     C
H       0.4728   0.1125   0.1426     H
H       0.4728   0.8875   0.6426     H
C       0.4813   0.3223   0.1865     C
C       0.4813   0.6777   0.6865     C
C       0.4834   0.1656   0.1879     C
C       0.4834   0.8344   0.6879     C
H       0.4841   0.4506   0.1288     H
H       0.4841   0.5494   0.6288     H
H       0.5159   0.4506   0.3712     H
H       0.5159   0.5494   0.8712     H
C       0.5166   0.1656   0.3121     C
C       0.5166   0.8344   0.8121     C
C       0.5187   0.3223   0.3135     C
C       0.5187   0.6777   0.8135     C
H       0.5272   0.1125   0.3574     H
H       0.5272   0.8875   0.8574     H
C       0.5357   0.2422   0.3751     C
C       0.5357   0.7578   0.8751     C
H       0.5382   0.1446   0.8044     H
H       0.5382   0.8554   0.3044     H
C      0.54051   0.4055    0.381     C
C      0.54051   0.5945    0.881     C
H       0.5515   0.3965   0.4904     H
H       0.5515   0.6035   0.9904     H
H       0.5601   0.2408   0.4597     H
H       0.5601   0.7592   0.9597     H
C       0.5678   0.1259   0.8556     C
C       0.5678   0.8741   0.3556     C
H       0.5746     0.22   0.0168     H
H       0.5746     0.78   0.5168     H
H       0.5748    0.024   0.7163     H
H       0.5748    0.976   0.2163     H
O      0.58153   0.4306   0.1629     O
O      0.58153   0.5694   0.6629     O
C      0.58236   0.4378   0.3059     C
C      0.58236   0.5622   0.8059     C
C       0.5891    0.054   0.8038     C
C       0.5891    0.946   0.3038     C
C      0.58975    0.171    0.983     C
C      0.58975    0.829    0.483     C
O      0.61821   0.4734   0.3895     O
O      0.61821   0.5266   0.8895     O
H       0.6308   0.1989   0.2734     H
H       0.6308   0.8011   0.7734     H
C       0.6323   0.0273   0.8842     C
C       0.6323   0.9727   0.3842     C
C      0.63347   0.1453   0.0612     C
C      0.63347   0.8547   0.5612     C
H       0.6464   0.0235   0.3529     H
H       0.6464   0.9765   0.8529     H
C       0.6539   0.1993   0.2018     C
C       0.6539   0.8007   0.7018     C
C      0.65587   0.0733   0.0112     C
C      0.65587   0.9267   0.5112     C
O      0.66061  0.32532   0.0375     O
O      0.66061  0.67468   0.5375     O
C      0.66613   0.2933   0.1716     C
C      0.66613   0.7067   0.6716     C
La     0.66754  0.48637  0.14202    La
La     0.66754  0.51363  0.64202    La
O       0.6806  0.33981   0.2881     O
O       0.6806  0.66019   0.7881     O
H       0.6828   0.1705   0.2526     H
H       0.6828   0.8295   0.7526     H
H       0.6967   0.0271    0.604     H
H       0.6967   0.9729    0.104     H
C      0.70156   0.0354   0.0926     C
C      0.70156   0.9646   0.5926     C
H       0.7074   0.0604   0.1957     H
H       0.7074   0.9396   0.6957     H
O      0.71322  0.47302    0.898     O
O      0.71322  0.52698    0.398     O
O      0.74528   0.0708   0.8828     O
O      0.74528   0.9292   0.3828     O
C      0.74689    0.048   0.0199     C
C      0.74689    0.952   0.5199     C
C      0.75311    0.452   0.9801     C
C      0.75311    0.548   0.4801     C
O      0.75472   0.4292   0.1172     O
O      0.75472   0.5708   0.6172     O
O      0.78678  0.02698    0.102     O
O      0.78678  0.97302    0.602     O
H       0.7926   0.4396   0.8043     H
H       0.7926   0.5604   0.3043     H
C      0.79844   0.4646   0.9074     C
C      0.79844   0.5354   0.4074     C
H       0.8033   0.4729    0.396     H
H       0.8033   0.5271    0.896     H
H       0.8172   0.3295   0.7474     H
H       0.8172   0.6705   0.2474     H
O       0.8194  0.16019   0.7119     O
O       0.8194  0.83981   0.2119     O
La     0.83246  0.01363  0.85798    La
La     0.83246  0.98637  0.35798    La
C      0.83387   0.2067   0.8284     C
C      0.83387   0.7933   0.3284     C
O      0.83939  0.17468   0.9625     O
O      0.83939  0.82532   0.4625     O
C      0.84413   0.4267   0.9888     C
C      0.84413   0.5733   0.4888     C
C       0.8461   0.3007   0.7982     C
C       0.8461   0.6993   0.2982     C
H       0.8536   0.4765   0.6471     H
H       0.8536   0.5235   0.1471     H
C      0.86653   0.3547   0.9388     C
C      0.86653   0.6453   0.4388     C
C       0.8677   0.4727   0.1158     C
C       0.8677   0.5273   0.6158     C
H       0.8692   0.3011   0.7266     H
H       0.8692   0.6989   0.2266     H
O      0.88179   0.0266   0.6105     O
O      0.88179   0.9734   0.1105     O
C      0.91025    0.329    0.017     C
C      0.91025    0.671    0.517     C
C       0.9109    0.446   0.1962     C
C       0.9109    0.554   0.6962     C
C      0.91764   0.0622   0.6941     C
C      0.91764   0.9378   0.1941     C
O      0.91847   0.0694   0.8371     O
O      0.91847   0.9306   0.3371     O
H       0.9252    0.476   0.2837     H
H       0.9252    0.524   0.7837     H
H       0.9254     0.28   0.9832     H
H       0.9254     0.72   0.4832     H
C       0.9322   0.3741   0.1444     C
C       0.9322   0.6259   0.6444     C
H       0.9399   0.2592   0.5403     H
H       0.9399   0.7408   0.0403     H
H       0.9485   0.1035   0.5096     H
H       0.9485   0.8965   0.0096     H
C      0.95949   0.0945    0.619     C
C      0.95949   0.9055    0.119     C
H       0.9618   0.3554   0.1956     H
H       0.9618   0.6446   0.6956     H
C       0.9643   0.2578   0.6249     C
C       0.9643   0.7422   0.1249     C
H       0.9728   0.3875   0.6426     H
H       0.9728   0.6125   0.1426     H
C       0.9813   0.1777   0.6865     C
C       0.9813   0.8223   0.1865     C
C       0.9834   0.3344   0.6879     C
C       0.9834   0.6656   0.1879     C
H       0.9841   0.0494   0.6288     H
H       0.9841   0.9506   0.1288     H
