data_I
_chemical_name_common  '/home/zhangsd/repos/MofS-CGCNN/ML/data/SSD/clean_cifs/ABAYOU_clean'
_cell_length_a 26.64700
_cell_length_b 26.64700
_cell_length_c 26.64700
_cell_angle_alpha 90.00000
_cell_angle_beta  90.00000
_cell_angle_gamma 90.00000
_space_group_name_H-M_alt      'P 1'


loop_
_space_group_symop_operation_xyz
  'x, y, z' 

loop_
_atom_site_label
_atom_site_fract_x
_atom_site_fract_y
_atom_site_fract_z
_atom_site_type_symbol
Cl         0.0   0.1496   0.1496    Cl
Cl         0.0   0.1496   0.8504    Cl
Co         0.0  0.21024  0.21024    Co
Co         0.0  0.21024  0.78976    Co
Co         0.0  0.28976  0.28976    Co
Co         0.0  0.28976  0.71024    Co
Cl         0.0   0.3504   0.3504    Cl
Cl         0.0   0.3504   0.6496    Cl
Cl         0.0   0.6496   0.3504    Cl
Cl         0.0   0.6496   0.6496    Cl
Co         0.0  0.71024  0.28976    Co
Co         0.0  0.71024  0.71024    Co
Co         0.0  0.78976  0.21024    Co
Co         0.0  0.78976  0.78976    Co
Cl         0.0   0.8504   0.1496    Cl
Cl         0.0   0.8504   0.8504    Cl
O       0.0531    0.183   0.2574     O
O       0.0531    0.183   0.7426     O
O       0.0531   0.2426    0.317     O
O       0.0531   0.2426    0.683     O
O       0.0531   0.2574    0.183     O
O       0.0531   0.2574    0.817     O
O       0.0531    0.317   0.2426     O
O       0.0531    0.317   0.7574     O
O       0.0531    0.683   0.2426     O
O       0.0531    0.683   0.7574     O
O       0.0531   0.7426    0.183     O
O       0.0531   0.7426    0.817     O
O       0.0531   0.7574    0.317     O
O       0.0531   0.7574    0.683     O
O       0.0531    0.817   0.2574     O
O       0.0531    0.817   0.7426     O
C        0.069   0.2024   0.2976     C
C        0.069   0.2024   0.7024     C
C        0.069   0.2976   0.2024     C
C        0.069   0.2976   0.7976     C
C        0.069   0.7024   0.2024     C
C        0.069   0.7024   0.7976     C
C        0.069   0.7976   0.2976     C
C        0.069   0.7976   0.7024     C
C       0.1143   0.1778   0.3222     C
C       0.1143   0.1778   0.6778     C
C       0.1143   0.3222   0.1778     C
C       0.1143   0.3222   0.8222     C
C       0.1143   0.6778   0.1778     C
C       0.1143   0.6778   0.8222     C
C       0.1143   0.8222   0.3222     C
C       0.1143   0.8222   0.6778     C
H       0.1202   0.1202   0.2737     H
H       0.1202   0.1202   0.7263     H
H       0.1202   0.2263   0.3798     H
H       0.1202   0.2263   0.6202     H
H       0.1202   0.2737   0.1202     H
H       0.1202   0.2737   0.8798     H
H       0.1202   0.3798   0.2263     H
H       0.1202   0.3798   0.7737     H
H       0.1202   0.6202   0.2263     H
H       0.1202   0.6202   0.7737     H
H       0.1202   0.7263   0.1202     H
H       0.1202   0.7263   0.8798     H
H       0.1202   0.7737   0.3798     H
H       0.1202   0.7737   0.6202     H
H       0.1202   0.8798   0.2737     H
H       0.1202   0.8798   0.7263     H
C        0.135    0.135   0.3016     C
C        0.135    0.135   0.6984     C
C        0.135   0.1984    0.365     C
C        0.135   0.1984    0.635     C
C        0.135   0.3016    0.135     C
C        0.135   0.3016    0.865     C
C        0.135    0.365   0.1984     C
C        0.135    0.365   0.8016     C
C        0.135    0.635   0.1984     C
C        0.135    0.635   0.8016     C
C        0.135   0.6984    0.135     C
C        0.135   0.6984    0.865     C
C        0.135   0.8016    0.365     C
C        0.135   0.8016    0.635     C
C        0.135    0.865   0.3016     C
C        0.135    0.865   0.6984     C
Cl      0.1496      0.0   0.1496    Cl
Cl      0.1496      0.0   0.8504    Cl
Cl      0.1496   0.1496      0.0    Cl
Cl      0.1496   0.3504      0.5    Cl
Cl      0.1496      0.5   0.3504    Cl
Cl      0.1496      0.5   0.6496    Cl
Cl      0.1496   0.6496      0.5    Cl
Cl      0.1496   0.8504      0.0    Cl
C       0.1778   0.1143   0.3222     C
C       0.1778   0.1143   0.6778     C
C       0.1778   0.1778   0.3857     C
C       0.1778   0.1778   0.6143     C
C       0.1778   0.3222   0.1143     C
C       0.1778   0.3222   0.8857     C
C       0.1778   0.3857   0.1778     C
C       0.1778   0.3857   0.8222     C
C       0.1778   0.6143   0.1778     C
C       0.1778   0.6143   0.8222     C
C       0.1778   0.6778   0.1143     C
C       0.1778   0.6778   0.8857     C
C       0.1778   0.8222   0.3857     C
C       0.1778   0.8222   0.6143     C
C       0.1778   0.8857   0.3222     C
C       0.1778   0.8857   0.6778     C
O        0.183   0.0531   0.2574     O
O        0.183   0.0531   0.7426     O
O        0.183   0.2426   0.4469     O
O        0.183   0.2426   0.5531     O
O        0.183   0.2574   0.0531     O
O        0.183   0.2574   0.9469     O
O        0.183   0.4469   0.2426     O
O        0.183   0.4469   0.7574     O
O        0.183   0.5531   0.2426     O
O        0.183   0.5531   0.7574     O
O        0.183   0.7426   0.0531     O
O        0.183   0.7426   0.9469     O
O        0.183   0.7574   0.4469     O
O        0.183   0.7574   0.5531     O
O        0.183   0.9469   0.2574     O
O        0.183   0.9469   0.7426     O
C       0.1984    0.135    0.365     C
C       0.1984    0.135    0.635     C
C       0.1984    0.365    0.135     C
C       0.1984    0.365    0.865     C
C       0.1984    0.635    0.135     C
C       0.1984    0.635    0.865     C
C       0.1984    0.865    0.365     C
C       0.1984    0.865    0.635     C
C       0.2024    0.069   0.2976     C
C       0.2024    0.069   0.7024     C
C       0.2024   0.2024    0.431     C
C       0.2024   0.2024    0.569     C
C       0.2024   0.2976    0.069     C
C       0.2024   0.2976    0.931     C
C       0.2024    0.431   0.2024     C
C       0.2024    0.431   0.7976     C
C       0.2024    0.569   0.2024     C
C       0.2024    0.569   0.7976     C
C       0.2024   0.7024    0.069     C
C       0.2024   0.7024    0.931     C
C       0.2024   0.7976    0.431     C
C       0.2024   0.7976    0.569     C
C       0.2024    0.931   0.2976     C
C       0.2024    0.931   0.7024     C
Co     0.21024      0.0  0.21024    Co
Co     0.21024      0.0  0.78976    Co
Co     0.21024  0.21024      0.0    Co
Co     0.21024  0.28976      0.5    Co
Co     0.21024      0.5  0.28976    Co
Co     0.21024      0.5  0.71024    Co
Co     0.21024  0.71024      0.5    Co
Co     0.21024  0.78976      0.0    Co
H       0.2263   0.1202   0.3798     H
H       0.2263   0.1202   0.6202     H
H       0.2263   0.3798   0.1202     H
H       0.2263   0.3798   0.8798     H
H       0.2263   0.6202   0.1202     H
H       0.2263   0.6202   0.8798     H
H       0.2263   0.8798   0.3798     H
H       0.2263   0.8798   0.6202     H
O       0.2426   0.0531    0.317     O
O       0.2426   0.0531    0.683     O
O       0.2426    0.183   0.4469     O
O       0.2426    0.183   0.5531     O
O       0.2426    0.317   0.0531     O
O       0.2426    0.317   0.9469     O
O       0.2426   0.4469    0.183     O
O       0.2426   0.4469    0.817     O
O       0.2426   0.5531    0.183     O
O       0.2426   0.5531    0.817     O
O       0.2426    0.683   0.0531     O
O       0.2426    0.683   0.9469     O
O       0.2426    0.817   0.4469     O
O       0.2426    0.817   0.5531     O
O       0.2426   0.9469    0.317     O
O       0.2426   0.9469    0.683     O
O       0.2574   0.0531    0.183     O
O       0.2574   0.0531    0.817     O
O       0.2574    0.183   0.0531     O
O       0.2574    0.183   0.9469     O
O       0.2574    0.317   0.4469     O
O       0.2574    0.317   0.5531     O
O       0.2574   0.4469    0.317     O
O       0.2574   0.4469    0.683     O
O       0.2574   0.5531    0.317     O
O       0.2574   0.5531    0.683     O
O       0.2574    0.683   0.4469     O
O       0.2574    0.683   0.5531     O
O       0.2574    0.817   0.0531     O
O       0.2574    0.817   0.9469     O
O       0.2574   0.9469    0.183     O
O       0.2574   0.9469    0.817     O
H       0.2737   0.1202   0.1202     H
H       0.2737   0.1202   0.8798     H
H       0.2737   0.3798   0.3798     H
H       0.2737   0.3798   0.6202     H
H       0.2737   0.6202   0.3798     H
H       0.2737   0.6202   0.6202     H
H       0.2737   0.8798   0.1202     H
H       0.2737   0.8798   0.8798     H
Co     0.28976      0.0  0.28976    Co
Co     0.28976      0.0  0.71024    Co
Co     0.28976  0.21024      0.5    Co
Co     0.28976  0.28976      0.0    Co
Co     0.28976      0.5  0.21024    Co
Co     0.28976      0.5  0.78976    Co
Co     0.28976  0.71024      0.0    Co
Co     0.28976  0.78976      0.5    Co
C       0.2976    0.069   0.2024     C
C       0.2976    0.069   0.7976     C
C       0.2976   0.2024    0.069     C
C       0.2976   0.2024    0.931     C
C       0.2976   0.2976    0.431     C
C       0.2976   0.2976    0.569     C
C       0.2976    0.431   0.2976     C
C       0.2976    0.431   0.7024     C
C       0.2976    0.569   0.2976     C
C       0.2976    0.569   0.7024     C
C       0.2976   0.7024    0.431     C
C       0.2976   0.7024    0.569     C
C       0.2976   0.7976    0.069     C
C       0.2976   0.7976    0.931     C
C       0.2976    0.931   0.2024     C
C       0.2976    0.931   0.7976     C
C       0.3016    0.135    0.135     C
C       0.3016    0.135    0.865     C
C       0.3016    0.365    0.365     C
C       0.3016    0.365    0.635     C
C       0.3016    0.635    0.365     C
C       0.3016    0.635    0.635     C
C       0.3016    0.865    0.135     C
C       0.3016    0.865    0.865     C
O        0.317   0.0531   0.2426     O
O        0.317   0.0531   0.7574     O
O        0.317   0.2426   0.0531     O
O        0.317   0.2426   0.9469     O
O        0.317   0.2574   0.4469     O
O        0.317   0.2574   0.5531     O
O        0.317   0.4469   0.2574     O
O        0.317   0.4469   0.7426     O
O        0.317   0.5531   0.2574     O
O        0.317   0.5531   0.7426     O
O        0.317   0.7426   0.4469     O
O        0.317   0.7426   0.5531     O
O        0.317   0.7574   0.0531     O
O        0.317   0.7574   0.9469     O
O        0.317   0.9469   0.2426     O
O        0.317   0.9469   0.7574     O
C       0.3222   0.1143   0.1778     C
C       0.3222   0.1143   0.8222     C
C       0.3222   0.1778   0.1143     C
C       0.3222   0.1778   0.8857     C
C       0.3222   0.3222   0.3857     C
C       0.3222   0.3222   0.6143     C
C       0.3222   0.3857   0.3222     C
C       0.3222   0.3857   0.6778     C
C       0.3222   0.6143   0.3222     C
C       0.3222   0.6143   0.6778     C
C       0.3222   0.6778   0.3857     C
C       0.3222   0.6778   0.6143     C
C       0.3222   0.8222   0.1143     C
C       0.3222   0.8222   0.8857     C
C       0.3222   0.8857   0.1778     C
C       0.3222   0.8857   0.8222     C
Cl      0.3504      0.0   0.3504    Cl
Cl      0.3504      0.0   0.6496    Cl
Cl      0.3504   0.1496      0.5    Cl
Cl      0.3504   0.3504      0.0    Cl
Cl      0.3504      0.5   0.1496    Cl
Cl      0.3504      0.5   0.8504    Cl
Cl      0.3504   0.6496      0.0    Cl
Cl      0.3504   0.8504      0.5    Cl
C        0.365    0.135   0.1984     C
C        0.365    0.135   0.8016     C
C        0.365   0.1984    0.135     C
C        0.365   0.1984    0.865     C
C        0.365   0.3016    0.365     C
C        0.365   0.3016    0.635     C
C        0.365    0.365   0.3016     C
C        0.365    0.365   0.6984     C
C        0.365    0.635   0.3016     C
C        0.365    0.635   0.6984     C
C        0.365   0.6984    0.365     C
C        0.365   0.6984    0.635     C
C        0.365   0.8016    0.135     C
C        0.365   0.8016    0.865     C
C        0.365    0.865   0.1984     C
C        0.365    0.865   0.8016     C
H       0.3798   0.1202   0.2263     H
H       0.3798   0.1202   0.7737     H
H       0.3798   0.2263   0.1202     H
H       0.3798   0.2263   0.8798     H
H       0.3798   0.2737   0.3798     H
H       0.3798   0.2737   0.6202     H
H       0.3798   0.3798   0.2737     H
H       0.3798   0.3798   0.7263     H
H       0.3798   0.6202   0.2737     H
H       0.3798   0.6202   0.7263     H
H       0.3798   0.7263   0.3798     H
H       0.3798   0.7263   0.6202     H
H       0.3798   0.7737   0.1202     H
H       0.3798   0.7737   0.8798     H
H       0.3798   0.8798   0.2263     H
H       0.3798   0.8798   0.7737     H
C       0.3857   0.1778   0.1778     C
C       0.3857   0.1778   0.8222     C
C       0.3857   0.3222   0.3222     C
C       0.3857   0.3222   0.6778     C
C       0.3857   0.6778   0.3222     C
C       0.3857   0.6778   0.6778     C
C       0.3857   0.8222   0.1778     C
C       0.3857   0.8222   0.8222     C
C        0.431   0.2024   0.2024     C
C        0.431   0.2024   0.7976     C
C        0.431   0.2976   0.2976     C
C        0.431   0.2976   0.7024     C
C        0.431   0.7024   0.2976     C
C        0.431   0.7024   0.7024     C
C        0.431   0.7976   0.2024     C
C        0.431   0.7976   0.7976     C
O       0.4469    0.183   0.2426     O
O       0.4469    0.183   0.7574     O
O       0.4469   0.2426    0.183     O
O       0.4469   0.2426    0.817     O
O       0.4469   0.2574    0.317     O
O       0.4469   0.2574    0.683     O
O       0.4469    0.317   0.2574     O
O       0.4469    0.317   0.7426     O
O       0.4469    0.683   0.2574     O
O       0.4469    0.683   0.7426     O
O       0.4469   0.7426    0.317     O
O       0.4469   0.7426    0.683     O
O       0.4469   0.7574    0.183     O
O       0.4469   0.7574    0.817     O
O       0.4469    0.817   0.2426     O
O       0.4469    0.817   0.7574     O
Cl         0.5   0.1496   0.3504    Cl
Cl         0.5   0.1496   0.6496    Cl
Co         0.5  0.21024  0.28976    Co
Co         0.5  0.21024  0.71024    Co
Co         0.5  0.28976  0.21024    Co
Co         0.5  0.28976  0.78976    Co
Cl         0.5   0.3504   0.1496    Cl
Cl         0.5   0.3504   0.8504    Cl
Cl         0.5   0.6496   0.1496    Cl
Cl         0.5   0.6496   0.8504    Cl
Co         0.5  0.71024  0.21024    Co
Co         0.5  0.71024  0.78976    Co
Co         0.5  0.78976  0.28976    Co
Co         0.5  0.78976  0.71024    Co
Cl         0.5   0.8504   0.3504    Cl
Cl         0.5   0.8504   0.6496    Cl
O       0.5531    0.183   0.2426     O
O       0.5531    0.183   0.7574     O
O       0.5531   0.2426    0.183     O
O       0.5531   0.2426    0.817     O
O       0.5531   0.2574    0.317     O
O       0.5531   0.2574    0.683     O
O       0.5531    0.317   0.2574     O
O       0.5531    0.317   0.7426     O
O       0.5531    0.683   0.2574     O
O       0.5531    0.683   0.7426     O
O       0.5531   0.7426    0.317     O
O       0.5531   0.7426    0.683     O
O       0.5531   0.7574    0.183     O
O       0.5531   0.7574    0.817     O
O       0.5531    0.817   0.2426     O
O       0.5531    0.817   0.7574     O
C        0.569   0.2024   0.2024     C
C        0.569   0.2024   0.7976     C
C        0.569   0.2976   0.2976     C
C        0.569   0.2976   0.7024     C
C        0.569   0.7024   0.2976     C
C        0.569   0.7024   0.7024     C
C        0.569   0.7976   0.2024     C
C        0.569   0.7976   0.7976     C
C       0.6143   0.1778   0.1778     C
C       0.6143   0.1778   0.8222     C
C       0.6143   0.3222   0.3222     C
C       0.6143   0.3222   0.6778     C
C       0.6143   0.6778   0.3222     C
C       0.6143   0.6778   0.6778     C
C       0.6143   0.8222   0.1778     C
C       0.6143   0.8222   0.8222     C
H       0.6202   0.1202   0.2263     H
H       0.6202   0.1202   0.7737     H
H       0.6202   0.2263   0.1202     H
H       0.6202   0.2263   0.8798     H
H       0.6202   0.2737   0.3798     H
H       0.6202   0.2737   0.6202     H
H       0.6202   0.3798   0.2737     H
H       0.6202   0.3798   0.7263     H
H       0.6202   0.6202   0.2737     H
H       0.6202   0.6202   0.7263     H
H       0.6202   0.7263   0.3798     H
H       0.6202   0.7263   0.6202     H
H       0.6202   0.7737   0.1202     H
H       0.6202   0.7737   0.8798     H
H       0.6202   0.8798   0.2263     H
H       0.6202   0.8798   0.7737     H
C        0.635    0.135   0.1984     C
C        0.635    0.135   0.8016     C
C        0.635   0.1984    0.135     C
C        0.635   0.1984    0.865     C
C        0.635   0.3016    0.365     C
C        0.635   0.3016    0.635     C
C        0.635    0.365   0.3016     C
C        0.635    0.365   0.6984     C
C        0.635    0.635   0.3016     C
C        0.635    0.635   0.6984     C
C        0.635   0.6984    0.365     C
C        0.635   0.6984    0.635     C
C        0.635   0.8016    0.135     C
C        0.635   0.8016    0.865     C
C        0.635    0.865   0.1984     C
C        0.635    0.865   0.8016     C
Cl      0.6496      0.0   0.3504    Cl
Cl      0.6496      0.0   0.6496    Cl
Cl      0.6496   0.1496      0.5    Cl
Cl      0.6496   0.3504      0.0    Cl
Cl      0.6496      0.5   0.1496    Cl
Cl      0.6496      0.5   0.8504    Cl
Cl      0.6496   0.6496      0.0    Cl
Cl      0.6496   0.8504      0.5    Cl
C       0.6778   0.1143   0.1778     C
C       0.6778   0.1143   0.8222     C
C       0.6778   0.1778   0.1143     C
C       0.6778   0.1778   0.8857     C
C       0.6778   0.3222   0.3857     C
C       0.6778   0.3222   0.6143     C
C       0.6778   0.3857   0.3222     C
C       0.6778   0.3857   0.6778     C
C       0.6778   0.6143   0.3222     C
C       0.6778   0.6143   0.6778     C
C       0.6778   0.6778   0.3857     C
C       0.6778   0.6778   0.6143     C
C       0.6778   0.8222   0.1143     C
C       0.6778   0.8222   0.8857     C
C       0.6778   0.8857   0.1778     C
C       0.6778   0.8857   0.8222     C
O        0.683   0.0531   0.2426     O
O        0.683   0.0531   0.7574     O
O        0.683   0.2426   0.0531     O
O        0.683   0.2426   0.9469     O
O        0.683   0.2574   0.4469     O
O        0.683   0.2574   0.5531     O
O        0.683   0.4469   0.2574     O
O        0.683   0.4469   0.7426     O
O        0.683   0.5531   0.2574     O
O        0.683   0.5531   0.7426     O
O        0.683   0.7426   0.4469     O
O        0.683   0.7426   0.5531     O
O        0.683   0.7574   0.0531     O
O        0.683   0.7574   0.9469     O
O        0.683   0.9469   0.2426     O
O        0.683   0.9469   0.7574     O
C       0.6984    0.135    0.135     C
C       0.6984    0.135    0.865     C
C       0.6984    0.365    0.365     C
C       0.6984    0.365    0.635     C
C       0.6984    0.635    0.365     C
C       0.6984    0.635    0.635     C
C       0.6984    0.865    0.135     C
C       0.6984    0.865    0.865     C
C       0.7024    0.069   0.2024     C
C       0.7024    0.069   0.7976     C
C       0.7024   0.2024    0.069     C
C       0.7024   0.2024    0.931     C
C       0.7024   0.2976    0.431     C
C       0.7024   0.2976    0.569     C
C       0.7024    0.431   0.2976     C
C       0.7024    0.431   0.7024     C
C       0.7024    0.569   0.2976     C
C       0.7024    0.569   0.7024     C
C       0.7024   0.7024    0.431     C
C       0.7024   0.7024    0.569     C
C       0.7024   0.7976    0.069     C
C       0.7024   0.7976    0.931     C
C       0.7024    0.931   0.2024     C
C       0.7024    0.931   0.7976     C
Co     0.71024      0.0  0.28976    Co
Co     0.71024      0.0  0.71024    Co
Co     0.71024  0.21024      0.5    Co
Co     0.71024  0.28976      0.0    Co
Co     0.71024      0.5  0.21024    Co
Co     0.71024      0.5  0.78976    Co
Co     0.71024  0.71024      0.0    Co
Co     0.71024  0.78976      0.5    Co
H       0.7263   0.1202   0.1202     H
H       0.7263   0.1202   0.8798     H
H       0.7263   0.3798   0.3798     H
H       0.7263   0.3798   0.6202     H
H       0.7263   0.6202   0.3798     H
H       0.7263   0.6202   0.6202     H
H       0.7263   0.8798   0.1202     H
H       0.7263   0.8798   0.8798     H
O       0.7426   0.0531    0.183     O
O       0.7426   0.0531    0.817     O
O       0.7426    0.183   0.0531     O
O       0.7426    0.183   0.9469     O
O       0.7426    0.317   0.4469     O
O       0.7426    0.317   0.5531     O
O       0.7426   0.4469    0.317     O
O       0.7426   0.4469    0.683     O
O       0.7426   0.5531    0.317     O
O       0.7426   0.5531    0.683     O
O       0.7426    0.683   0.4469     O
O       0.7426    0.683   0.5531     O
O       0.7426    0.817   0.0531     O
O       0.7426    0.817   0.9469     O
O       0.7426   0.9469    0.183     O
O       0.7426   0.9469    0.817     O
O       0.7574   0.0531    0.317     O
O       0.7574   0.0531    0.683     O
O       0.7574    0.183   0.4469     O
O       0.7574    0.183   0.5531     O
O       0.7574    0.317   0.0531     O
O       0.7574    0.317   0.9469     O
O       0.7574   0.4469    0.183     O
O       0.7574   0.4469    0.817     O
O       0.7574   0.5531    0.183     O
O       0.7574   0.5531    0.817     O
O       0.7574    0.683   0.0531     O
O       0.7574    0.683   0.9469     O
O       0.7574    0.817   0.4469     O
O       0.7574    0.817   0.5531     O
O       0.7574   0.9469    0.317     O
O       0.7574   0.9469    0.683     O
H       0.7737   0.1202   0.3798     H
H       0.7737   0.1202   0.6202     H
H       0.7737   0.3798   0.1202     H
H       0.7737   0.3798   0.8798     H
H       0.7737   0.6202   0.1202     H
H       0.7737   0.6202   0.8798     H
H       0.7737   0.8798   0.3798     H
H       0.7737   0.8798   0.6202     H
Co     0.78976      0.0  0.21024    Co
Co     0.78976      0.0  0.78976    Co
Co     0.78976  0.21024      0.0    Co
Co     0.78976  0.28976      0.5    Co
Co     0.78976      0.5  0.28976    Co
Co     0.78976      0.5  0.71024    Co
Co     0.78976  0.71024      0.5    Co
Co     0.78976  0.78976      0.0    Co
C       0.7976    0.069   0.2976     C
C       0.7976    0.069   0.7024     C
C       0.7976   0.2024    0.431     C
C       0.7976   0.2024    0.569     C
C       0.7976   0.2976    0.069     C
C       0.7976   0.2976    0.931     C
C       0.7976    0.431   0.2024     C
C       0.7976    0.431   0.7976     C
C       0.7976    0.569   0.2024     C
C       0.7976    0.569   0.7976     C
C       0.7976   0.7024    0.069     C
C       0.7976   0.7024    0.931     C
C       0.7976   0.7976    0.431     C
C       0.7976   0.7976    0.569     C
C       0.7976    0.931   0.2976     C
C       0.7976    0.931   0.7024     C
C       0.8016    0.135    0.365     C
C       0.8016    0.135    0.635     C
C       0.8016    0.365    0.135     C
C       0.8016    0.365    0.865     C
C       0.8016    0.635    0.135     C
C       0.8016    0.635    0.865     C
C       0.8016    0.865    0.365     C
C       0.8016    0.865    0.635     C
O        0.817   0.0531   0.2574     O
O        0.817   0.0531   0.7426     O
O        0.817   0.2426   0.4469     O
O        0.817   0.2426   0.5531     O
O        0.817   0.2574   0.0531     O
O        0.817   0.2574   0.9469     O
O        0.817   0.4469   0.2426     O
O        0.817   0.4469   0.7574     O
O        0.817   0.5531   0.2426     O
O        0.817   0.5531   0.7574     O
O        0.817   0.7426   0.0531     O
O        0.817   0.7426   0.9469     O
O        0.817   0.7574   0.4469     O
O        0.817   0.7574   0.5531     O
O        0.817   0.9469   0.2574     O
O        0.817   0.9469   0.7426     O
C       0.8222   0.1143   0.3222     C
C       0.8222   0.1143   0.6778     C
C       0.8222   0.1778   0.3857     C
C       0.8222   0.1778   0.6143     C
C       0.8222   0.3222   0.1143     C
C       0.8222   0.3222   0.8857     C
C       0.8222   0.3857   0.1778     C
C       0.8222   0.3857   0.8222     C
C       0.8222   0.6143   0.1778     C
C       0.8222   0.6143   0.8222     C
C       0.8222   0.6778   0.1143     C
C       0.8222   0.6778   0.8857     C
C       0.8222   0.8222   0.3857     C
C       0.8222   0.8222   0.6143     C
C       0.8222   0.8857   0.3222     C
C       0.8222   0.8857   0.6778     C
Cl      0.8504      0.0   0.1496    Cl
Cl      0.8504      0.0   0.8504    Cl
Cl      0.8504   0.1496      0.0    Cl
Cl      0.8504   0.3504      0.5    Cl
Cl      0.8504      0.5   0.3504    Cl
Cl      0.8504      0.5   0.6496    Cl
Cl      0.8504   0.6496      0.5    Cl
Cl      0.8504   0.8504      0.0    Cl
C        0.865    0.135   0.3016     C
C        0.865    0.135   0.6984     C
C        0.865   0.1984    0.365     C
C        0.865   0.1984    0.635     C
C        0.865   0.3016    0.135     C
C        0.865   0.3016    0.865     C
C        0.865    0.365   0.1984     C
C        0.865    0.365   0.8016     C
C        0.865    0.635   0.1984     C
C        0.865    0.635   0.8016     C
C        0.865   0.6984    0.135     C
C        0.865   0.6984    0.865     C
C        0.865   0.8016    0.365     C
C        0.865   0.8016    0.635     C
C        0.865    0.865   0.3016     C
C        0.865    0.865   0.6984     C
H       0.8798   0.1202   0.2737     H
H       0.8798   0.1202   0.7263     H
H       0.8798   0.2263   0.3798     H
H       0.8798   0.2263   0.6202     H
H       0.8798   0.2737   0.1202     H
H       0.8798   0.2737   0.8798     H
H       0.8798   0.3798   0.2263     H
H       0.8798   0.3798   0.7737     H
H       0.8798   0.6202   0.2263     H
H       0.8798   0.6202   0.7737     H
H       0.8798   0.7263   0.1202     H
H       0.8798   0.7263   0.8798     H
H       0.8798   0.7737   0.3798     H
H       0.8798   0.7737   0.6202     H
H       0.8798   0.8798   0.2737     H
H       0.8798   0.8798   0.7263     H
C       0.8857   0.1778   0.3222     C
C       0.8857   0.1778   0.6778     C
C       0.8857   0.3222   0.1778     C
C       0.8857   0.3222   0.8222     C
C       0.8857   0.6778   0.1778     C
C       0.8857   0.6778   0.8222     C
C       0.8857   0.8222   0.3222     C
C       0.8857   0.8222   0.6778     C
C        0.931   0.2024   0.2976     C
C        0.931   0.2024   0.7024     C
C        0.931   0.2976   0.2024     C
C        0.931   0.2976   0.7976     C
C        0.931   0.7024   0.2024     C
C        0.931   0.7024   0.7976     C
C        0.931   0.7976   0.2976     C
C        0.931   0.7976   0.7024     C
O       0.9469    0.183   0.2574     O
O       0.9469    0.183   0.7426     O
O       0.9469   0.2426    0.317     O
O       0.9469   0.2426    0.683     O
O       0.9469   0.2574    0.183     O
O       0.9469   0.2574    0.817     O
O       0.9469    0.317   0.2426     O
O       0.9469    0.317   0.7574     O
O       0.9469    0.683   0.2426     O
O       0.9469    0.683   0.7574     O
O       0.9469   0.7426    0.183     O
O       0.9469   0.7426    0.817     O
O       0.9469   0.7574    0.317     O
O       0.9469   0.7574    0.683     O
O       0.9469    0.817   0.2574     O
O       0.9469    0.817   0.7426     O
