data_I
_chemical_name_common  '/home/zhangsd/repos/MofS-CGCNN/ML/data/SSD/clean_cifs/ABAYIO_clean'
_cell_length_a 26.77100
_cell_length_b 26.77100
_cell_length_c 26.77100
_cell_angle_alpha 90.00000
_cell_angle_beta  90.00000
_cell_angle_gamma 90.00000
_space_group_name_H-M_alt      'P 1'


loop_
_space_group_symop_operation_xyz
  'x, y, z' 

loop_
_atom_site_label
_atom_site_fract_x
_atom_site_fract_y
_atom_site_fract_z
_atom_site_type_symbol
Cl         0.0  0.14539  0.14539    Cl
Cl         0.0  0.14539  0.85461    Cl
Mn         0.0  0.20777  0.20777    Mn
Mn         0.0  0.20777  0.79223    Mn
Mn         0.0  0.29223  0.29223    Mn
Mn         0.0  0.29223  0.70777    Mn
Cl         0.0  0.35461  0.35461    Cl
Cl         0.0  0.35461  0.64539    Cl
Cl         0.0  0.64539  0.35461    Cl
Cl         0.0  0.64539  0.64539    Cl
Mn         0.0  0.70777  0.29223    Mn
Mn         0.0  0.70777  0.70777    Mn
Mn         0.0  0.79223  0.20777    Mn
Mn         0.0  0.79223  0.79223    Mn
Cl         0.0  0.85461  0.14539    Cl
Cl         0.0  0.85461  0.85461    Cl
O       0.0546   0.1832   0.2587     O
O       0.0546   0.1832   0.7413     O
O       0.0546   0.2413   0.3168     O
O       0.0546   0.2413   0.6832     O
O       0.0546   0.2587   0.1832     O
O       0.0546   0.2587   0.8168     O
O       0.0546   0.3168   0.2413     O
O       0.0546   0.3168   0.7587     O
O       0.0546   0.6832   0.2413     O
O       0.0546   0.6832   0.7587     O
O       0.0546   0.7413   0.1832     O
O       0.0546   0.7413   0.8168     O
O       0.0546   0.7587   0.3168     O
O       0.0546   0.7587   0.6832     O
O       0.0546   0.8168   0.2587     O
O       0.0546   0.8168   0.7413     O
C       0.0702   0.2025   0.2975     C
C       0.0702   0.2025   0.7025     C
C       0.0702   0.2975   0.2025     C
C       0.0702   0.2975   0.7975     C
C       0.0702   0.7025   0.2025     C
C       0.0702   0.7025   0.7975     C
C       0.0702   0.7975   0.2975     C
C       0.0702   0.7975   0.7025     C
C        0.115   0.1779   0.3221     C
C        0.115   0.1779   0.6779     C
C        0.115   0.3221   0.1779     C
C        0.115   0.3221   0.8221     C
C        0.115   0.6779   0.1779     C
C        0.115   0.6779   0.8221     C
C        0.115   0.8221   0.3221     C
C        0.115   0.8221   0.6779     C
H       0.1217   0.1217   0.2718     H
H       0.1217   0.1217   0.7282     H
H       0.1217   0.2282   0.3783     H
H       0.1217   0.2282   0.6217     H
H       0.1217   0.2718   0.1217     H
H       0.1217   0.2718   0.8783     H
H       0.1217   0.3783   0.2282     H
H       0.1217   0.3783   0.7718     H
H       0.1217   0.6217   0.2282     H
H       0.1217   0.6217   0.7718     H
H       0.1217   0.7282   0.1217     H
H       0.1217   0.7282   0.8783     H
H       0.1217   0.7718   0.3783     H
H       0.1217   0.7718   0.6217     H
H       0.1217   0.8783   0.2718     H
H       0.1217   0.8783   0.7282     H
C       0.1363   0.1363   0.3012     C
C       0.1363   0.1363   0.6988     C
C       0.1363   0.1988   0.3637     C
C       0.1363   0.1988   0.6363     C
C       0.1363   0.3012   0.1363     C
C       0.1363   0.3012   0.8637     C
C       0.1363   0.3637   0.1988     C
C       0.1363   0.3637   0.8012     C
C       0.1363   0.6363   0.1988     C
C       0.1363   0.6363   0.8012     C
C       0.1363   0.6988   0.1363     C
C       0.1363   0.6988   0.8637     C
C       0.1363   0.8012   0.3637     C
C       0.1363   0.8012   0.6363     C
C       0.1363   0.8637   0.3012     C
C       0.1363   0.8637   0.6988     C
Cl     0.14539      0.0  0.14539    Cl
Cl     0.14539      0.0  0.85461    Cl
Cl     0.14539  0.14539      0.0    Cl
Cl     0.14539  0.35461      0.5    Cl
Cl     0.14539      0.5  0.35461    Cl
Cl     0.14539      0.5  0.64539    Cl
Cl     0.14539  0.64539      0.5    Cl
Cl     0.14539  0.85461      0.0    Cl
C       0.1779    0.115   0.3221     C
C       0.1779    0.115   0.6779     C
C       0.1779   0.1779    0.385     C
C       0.1779   0.1779    0.615     C
C       0.1779   0.3221    0.115     C
C       0.1779   0.3221    0.885     C
C       0.1779    0.385   0.1779     C
C       0.1779    0.385   0.8221     C
C       0.1779    0.615   0.1779     C
C       0.1779    0.615   0.8221     C
C       0.1779   0.6779    0.115     C
C       0.1779   0.6779    0.885     C
C       0.1779   0.8221    0.385     C
C       0.1779   0.8221    0.615     C
C       0.1779    0.885   0.3221     C
C       0.1779    0.885   0.6779     C
O       0.1832   0.0546   0.2587     O
O       0.1832   0.0546   0.7413     O
O       0.1832   0.2413   0.4454     O
O       0.1832   0.2413   0.5546     O
O       0.1832   0.2587   0.0546     O
O       0.1832   0.2587   0.9454     O
O       0.1832   0.4454   0.2413     O
O       0.1832   0.4454   0.7587     O
O       0.1832   0.5546   0.2413     O
O       0.1832   0.5546   0.7587     O
O       0.1832   0.7413   0.0546     O
O       0.1832   0.7413   0.9454     O
O       0.1832   0.7587   0.4454     O
O       0.1832   0.7587   0.5546     O
O       0.1832   0.9454   0.2587     O
O       0.1832   0.9454   0.7413     O
C       0.1988   0.1363   0.3637     C
C       0.1988   0.1363   0.6363     C
C       0.1988   0.3637   0.1363     C
C       0.1988   0.3637   0.8637     C
C       0.1988   0.6363   0.1363     C
C       0.1988   0.6363   0.8637     C
C       0.1988   0.8637   0.3637     C
C       0.1988   0.8637   0.6363     C
C       0.2025   0.0702   0.2975     C
C       0.2025   0.0702   0.7025     C
C       0.2025   0.2025   0.4298     C
C       0.2025   0.2025   0.5702     C
C       0.2025   0.2975   0.0702     C
C       0.2025   0.2975   0.9298     C
C       0.2025   0.4298   0.2025     C
C       0.2025   0.4298   0.7975     C
C       0.2025   0.5702   0.2025     C
C       0.2025   0.5702   0.7975     C
C       0.2025   0.7025   0.0702     C
C       0.2025   0.7025   0.9298     C
C       0.2025   0.7975   0.4298     C
C       0.2025   0.7975   0.5702     C
C       0.2025   0.9298   0.2975     C
C       0.2025   0.9298   0.7025     C
Mn     0.20777      0.0  0.20777    Mn
Mn     0.20777      0.0  0.79223    Mn
Mn     0.20777  0.20777      0.0    Mn
Mn     0.20777  0.29223      0.5    Mn
Mn     0.20777      0.5  0.29223    Mn
Mn     0.20777      0.5  0.70777    Mn
Mn     0.20777  0.70777      0.5    Mn
Mn     0.20777  0.79223      0.0    Mn
H       0.2282   0.1217   0.3783     H
H       0.2282   0.1217   0.6217     H
H       0.2282   0.3783   0.1217     H
H       0.2282   0.3783   0.8783     H
H       0.2282   0.6217   0.1217     H
H       0.2282   0.6217   0.8783     H
H       0.2282   0.8783   0.3783     H
H       0.2282   0.8783   0.6217     H
O       0.2413   0.0546   0.3168     O
O       0.2413   0.0546   0.6832     O
O       0.2413   0.1832   0.4454     O
O       0.2413   0.1832   0.5546     O
O       0.2413   0.3168   0.0546     O
O       0.2413   0.3168   0.9454     O
O       0.2413   0.4454   0.1832     O
O       0.2413   0.4454   0.8168     O
O       0.2413   0.5546   0.1832     O
O       0.2413   0.5546   0.8168     O
O       0.2413   0.6832   0.0546     O
O       0.2413   0.6832   0.9454     O
O       0.2413   0.8168   0.4454     O
O       0.2413   0.8168   0.5546     O
O       0.2413   0.9454   0.3168     O
O       0.2413   0.9454   0.6832     O
O       0.2587   0.0546   0.1832     O
O       0.2587   0.0546   0.8168     O
O       0.2587   0.1832   0.0546     O
O       0.2587   0.1832   0.9454     O
O       0.2587   0.3168   0.4454     O
O       0.2587   0.3168   0.5546     O
O       0.2587   0.4454   0.3168     O
O       0.2587   0.4454   0.6832     O
O       0.2587   0.5546   0.3168     O
O       0.2587   0.5546   0.6832     O
O       0.2587   0.6832   0.4454     O
O       0.2587   0.6832   0.5546     O
O       0.2587   0.8168   0.0546     O
O       0.2587   0.8168   0.9454     O
O       0.2587   0.9454   0.1832     O
O       0.2587   0.9454   0.8168     O
H       0.2718   0.1217   0.1217     H
H       0.2718   0.1217   0.8783     H
H       0.2718   0.3783   0.3783     H
H       0.2718   0.3783   0.6217     H
H       0.2718   0.6217   0.3783     H
H       0.2718   0.6217   0.6217     H
H       0.2718   0.8783   0.1217     H
H       0.2718   0.8783   0.8783     H
Mn     0.29223      0.0  0.29223    Mn
Mn     0.29223      0.0  0.70777    Mn
Mn     0.29223  0.20777      0.5    Mn
Mn     0.29223  0.29223      0.0    Mn
Mn     0.29223      0.5  0.20777    Mn
Mn     0.29223      0.5  0.79223    Mn
Mn     0.29223  0.70777      0.0    Mn
Mn     0.29223  0.79223      0.5    Mn
C       0.2975   0.0702   0.2025     C
C       0.2975   0.0702   0.7975     C
C       0.2975   0.2025   0.0702     C
C       0.2975   0.2025   0.9298     C
C       0.2975   0.2975   0.4298     C
C       0.2975   0.2975   0.5702     C
C       0.2975   0.4298   0.2975     C
C       0.2975   0.4298   0.7025     C
C       0.2975   0.5702   0.2975     C
C       0.2975   0.5702   0.7025     C
C       0.2975   0.7025   0.4298     C
C       0.2975   0.7025   0.5702     C
C       0.2975   0.7975   0.0702     C
C       0.2975   0.7975   0.9298     C
C       0.2975   0.9298   0.2025     C
C       0.2975   0.9298   0.7975     C
C       0.3012   0.1363   0.1363     C
C       0.3012   0.1363   0.8637     C
C       0.3012   0.3637   0.3637     C
C       0.3012   0.3637   0.6363     C
C       0.3012   0.6363   0.3637     C
C       0.3012   0.6363   0.6363     C
C       0.3012   0.8637   0.1363     C
C       0.3012   0.8637   0.8637     C
O       0.3168   0.0546   0.2413     O
O       0.3168   0.0546   0.7587     O
O       0.3168   0.2413   0.0546     O
O       0.3168   0.2413   0.9454     O
O       0.3168   0.2587   0.4454     O
O       0.3168   0.2587   0.5546     O
O       0.3168   0.4454   0.2587     O
O       0.3168   0.4454   0.7413     O
O       0.3168   0.5546   0.2587     O
O       0.3168   0.5546   0.7413     O
O       0.3168   0.7413   0.4454     O
O       0.3168   0.7413   0.5546     O
O       0.3168   0.7587   0.0546     O
O       0.3168   0.7587   0.9454     O
O       0.3168   0.9454   0.2413     O
O       0.3168   0.9454   0.7587     O
C       0.3221    0.115   0.1779     C
C       0.3221    0.115   0.8221     C
C       0.3221   0.1779    0.115     C
C       0.3221   0.1779    0.885     C
C       0.3221   0.3221    0.385     C
C       0.3221   0.3221    0.615     C
C       0.3221    0.385   0.3221     C
C       0.3221    0.385   0.6779     C
C       0.3221    0.615   0.3221     C
C       0.3221    0.615   0.6779     C
C       0.3221   0.6779    0.385     C
C       0.3221   0.6779    0.615     C
C       0.3221   0.8221    0.115     C
C       0.3221   0.8221    0.885     C
C       0.3221    0.885   0.1779     C
C       0.3221    0.885   0.8221     C
Cl     0.35461      0.0  0.35461    Cl
Cl     0.35461      0.0  0.64539    Cl
Cl     0.35461  0.14539      0.5    Cl
Cl     0.35461  0.35461      0.0    Cl
Cl     0.35461      0.5  0.14539    Cl
Cl     0.35461      0.5  0.85461    Cl
Cl     0.35461  0.64539      0.0    Cl
Cl     0.35461  0.85461      0.5    Cl
C       0.3637   0.1363   0.1988     C
C       0.3637   0.1363   0.8012     C
C       0.3637   0.1988   0.1363     C
C       0.3637   0.1988   0.8637     C
C       0.3637   0.3012   0.3637     C
C       0.3637   0.3012   0.6363     C
C       0.3637   0.3637   0.3012     C
C       0.3637   0.3637   0.6988     C
C       0.3637   0.6363   0.3012     C
C       0.3637   0.6363   0.6988     C
C       0.3637   0.6988   0.3637     C
C       0.3637   0.6988   0.6363     C
C       0.3637   0.8012   0.1363     C
C       0.3637   0.8012   0.8637     C
C       0.3637   0.8637   0.1988     C
C       0.3637   0.8637   0.8012     C
H       0.3783   0.1217   0.2282     H
H       0.3783   0.1217   0.7718     H
H       0.3783   0.2282   0.1217     H
H       0.3783   0.2282   0.8783     H
H       0.3783   0.2718   0.3783     H
H       0.3783   0.2718   0.6217     H
H       0.3783   0.3783   0.2718     H
H       0.3783   0.3783   0.7282     H
H       0.3783   0.6217   0.2718     H
H       0.3783   0.6217   0.7282     H
H       0.3783   0.7282   0.3783     H
H       0.3783   0.7282   0.6217     H
H       0.3783   0.7718   0.1217     H
H       0.3783   0.7718   0.8783     H
H       0.3783   0.8783   0.2282     H
H       0.3783   0.8783   0.7718     H
C        0.385   0.1779   0.1779     C
C        0.385   0.1779   0.8221     C
C        0.385   0.3221   0.3221     C
C        0.385   0.3221   0.6779     C
C        0.385   0.6779   0.3221     C
C        0.385   0.6779   0.6779     C
C        0.385   0.8221   0.1779     C
C        0.385   0.8221   0.8221     C
C       0.4298   0.2025   0.2025     C
C       0.4298   0.2025   0.7975     C
C       0.4298   0.2975   0.2975     C
C       0.4298   0.2975   0.7025     C
C       0.4298   0.7025   0.2975     C
C       0.4298   0.7025   0.7025     C
C       0.4298   0.7975   0.2025     C
C       0.4298   0.7975   0.7975     C
O       0.4454   0.1832   0.2413     O
O       0.4454   0.1832   0.7587     O
O       0.4454   0.2413   0.1832     O
O       0.4454   0.2413   0.8168     O
O       0.4454   0.2587   0.3168     O
O       0.4454   0.2587   0.6832     O
O       0.4454   0.3168   0.2587     O
O       0.4454   0.3168   0.7413     O
O       0.4454   0.6832   0.2587     O
O       0.4454   0.6832   0.7413     O
O       0.4454   0.7413   0.3168     O
O       0.4454   0.7413   0.6832     O
O       0.4454   0.7587   0.1832     O
O       0.4454   0.7587   0.8168     O
O       0.4454   0.8168   0.2413     O
O       0.4454   0.8168   0.7587     O
Cl         0.5  0.14539  0.35461    Cl
Cl         0.5  0.14539  0.64539    Cl
Mn         0.5  0.20777  0.29223    Mn
Mn         0.5  0.20777  0.70777    Mn
Mn         0.5  0.29223  0.20777    Mn
Mn         0.5  0.29223  0.79223    Mn
Cl         0.5  0.35461  0.14539    Cl
Cl         0.5  0.35461  0.85461    Cl
Cl         0.5  0.64539  0.14539    Cl
Cl         0.5  0.64539  0.85461    Cl
Mn         0.5  0.70777  0.20777    Mn
Mn         0.5  0.70777  0.79223    Mn
Mn         0.5  0.79223  0.29223    Mn
Mn         0.5  0.79223  0.70777    Mn
Cl         0.5  0.85461  0.35461    Cl
Cl         0.5  0.85461  0.64539    Cl
O       0.5546   0.1832   0.2413     O
O       0.5546   0.1832   0.7587     O
O       0.5546   0.2413   0.1832     O
O       0.5546   0.2413   0.8168     O
O       0.5546   0.2587   0.3168     O
O       0.5546   0.2587   0.6832     O
O       0.5546   0.3168   0.2587     O
O       0.5546   0.3168   0.7413     O
O       0.5546   0.6832   0.2587     O
O       0.5546   0.6832   0.7413     O
O       0.5546   0.7413   0.3168     O
O       0.5546   0.7413   0.6832     O
O       0.5546   0.7587   0.1832     O
O       0.5546   0.7587   0.8168     O
O       0.5546   0.8168   0.2413     O
O       0.5546   0.8168   0.7587     O
C       0.5702   0.2025   0.2025     C
C       0.5702   0.2025   0.7975     C
C       0.5702   0.2975   0.2975     C
C       0.5702   0.2975   0.7025     C
C       0.5702   0.7025   0.2975     C
C       0.5702   0.7025   0.7025     C
C       0.5702   0.7975   0.2025     C
C       0.5702   0.7975   0.7975     C
C        0.615   0.1779   0.1779     C
C        0.615   0.1779   0.8221     C
C        0.615   0.3221   0.3221     C
C        0.615   0.3221   0.6779     C
C        0.615   0.6779   0.3221     C
C        0.615   0.6779   0.6779     C
C        0.615   0.8221   0.1779     C
C        0.615   0.8221   0.8221     C
H       0.6217   0.1217   0.2282     H
H       0.6217   0.1217   0.7718     H
H       0.6217   0.2282   0.1217     H
H       0.6217   0.2282   0.8783     H
H       0.6217   0.2718   0.3783     H
H       0.6217   0.2718   0.6217     H
H       0.6217   0.3783   0.2718     H
H       0.6217   0.3783   0.7282     H
H       0.6217   0.6217   0.2718     H
H       0.6217   0.6217   0.7282     H
H       0.6217   0.7282   0.3783     H
H       0.6217   0.7282   0.6217     H
H       0.6217   0.7718   0.1217     H
H       0.6217   0.7718   0.8783     H
H       0.6217   0.8783   0.2282     H
H       0.6217   0.8783   0.7718     H
C       0.6363   0.1363   0.1988     C
C       0.6363   0.1363   0.8012     C
C       0.6363   0.1988   0.1363     C
C       0.6363   0.1988   0.8637     C
C       0.6363   0.3012   0.3637     C
C       0.6363   0.3012   0.6363     C
C       0.6363   0.3637   0.3012     C
C       0.6363   0.3637   0.6988     C
C       0.6363   0.6363   0.3012     C
C       0.6363   0.6363   0.6988     C
C       0.6363   0.6988   0.3637     C
C       0.6363   0.6988   0.6363     C
C       0.6363   0.8012   0.1363     C
C       0.6363   0.8012   0.8637     C
C       0.6363   0.8637   0.1988     C
C       0.6363   0.8637   0.8012     C
Cl     0.64539      0.0  0.35461    Cl
Cl     0.64539      0.0  0.64539    Cl
Cl     0.64539  0.14539      0.5    Cl
Cl     0.64539  0.35461      0.0    Cl
Cl     0.64539      0.5  0.14539    Cl
Cl     0.64539      0.5  0.85461    Cl
Cl     0.64539  0.64539      0.0    Cl
Cl     0.64539  0.85461      0.5    Cl
C       0.6779    0.115   0.1779     C
C       0.6779    0.115   0.8221     C
C       0.6779   0.1779    0.115     C
C       0.6779   0.1779    0.885     C
C       0.6779   0.3221    0.385     C
C       0.6779   0.3221    0.615     C
C       0.6779    0.385   0.3221     C
C       0.6779    0.385   0.6779     C
C       0.6779    0.615   0.3221     C
C       0.6779    0.615   0.6779     C
C       0.6779   0.6779    0.385     C
C       0.6779   0.6779    0.615     C
C       0.6779   0.8221    0.115     C
C       0.6779   0.8221    0.885     C
C       0.6779    0.885   0.1779     C
C       0.6779    0.885   0.8221     C
O       0.6832   0.0546   0.2413     O
O       0.6832   0.0546   0.7587     O
O       0.6832   0.2413   0.0546     O
O       0.6832   0.2413   0.9454     O
O       0.6832   0.2587   0.4454     O
O       0.6832   0.2587   0.5546     O
O       0.6832   0.4454   0.2587     O
O       0.6832   0.4454   0.7413     O
O       0.6832   0.5546   0.2587     O
O       0.6832   0.5546   0.7413     O
O       0.6832   0.7413   0.4454     O
O       0.6832   0.7413   0.5546     O
O       0.6832   0.7587   0.0546     O
O       0.6832   0.7587   0.9454     O
O       0.6832   0.9454   0.2413     O
O       0.6832   0.9454   0.7587     O
C       0.6988   0.1363   0.1363     C
C       0.6988   0.1363   0.8637     C
C       0.6988   0.3637   0.3637     C
C       0.6988   0.3637   0.6363     C
C       0.6988   0.6363   0.3637     C
C       0.6988   0.6363   0.6363     C
C       0.6988   0.8637   0.1363     C
C       0.6988   0.8637   0.8637     C
C       0.7025   0.0702   0.2025     C
C       0.7025   0.0702   0.7975     C
C       0.7025   0.2025   0.0702     C
C       0.7025   0.2025   0.9298     C
C       0.7025   0.2975   0.4298     C
C       0.7025   0.2975   0.5702     C
C       0.7025   0.4298   0.2975     C
C       0.7025   0.4298   0.7025     C
C       0.7025   0.5702   0.2975     C
C       0.7025   0.5702   0.7025     C
C       0.7025   0.7025   0.4298     C
C       0.7025   0.7025   0.5702     C
C       0.7025   0.7975   0.0702     C
C       0.7025   0.7975   0.9298     C
C       0.7025   0.9298   0.2025     C
C       0.7025   0.9298   0.7975     C
Mn     0.70777      0.0  0.29223    Mn
Mn     0.70777      0.0  0.70777    Mn
Mn     0.70777  0.20777      0.5    Mn
Mn     0.70777  0.29223      0.0    Mn
Mn     0.70777      0.5  0.20777    Mn
Mn     0.70777      0.5  0.79223    Mn
Mn     0.70777  0.70777      0.0    Mn
Mn     0.70777  0.79223      0.5    Mn
H       0.7282   0.1217   0.1217     H
H       0.7282   0.1217   0.8783     H
H       0.7282   0.3783   0.3783     H
H       0.7282   0.3783   0.6217     H
H       0.7282   0.6217   0.3783     H
H       0.7282   0.6217   0.6217     H
H       0.7282   0.8783   0.1217     H
H       0.7282   0.8783   0.8783     H
O       0.7413   0.0546   0.1832     O
O       0.7413   0.0546   0.8168     O
O       0.7413   0.1832   0.0546     O
O       0.7413   0.1832   0.9454     O
O       0.7413   0.3168   0.4454     O
O       0.7413   0.3168   0.5546     O
O       0.7413   0.4454   0.3168     O
O       0.7413   0.4454   0.6832     O
O       0.7413   0.5546   0.3168     O
O       0.7413   0.5546   0.6832     O
O       0.7413   0.6832   0.4454     O
O       0.7413   0.6832   0.5546     O
O       0.7413   0.8168   0.0546     O
O       0.7413   0.8168   0.9454     O
O       0.7413   0.9454   0.1832     O
O       0.7413   0.9454   0.8168     O
O       0.7587   0.0546   0.3168     O
O       0.7587   0.0546   0.6832     O
O       0.7587   0.1832   0.4454     O
O       0.7587   0.1832   0.5546     O
O       0.7587   0.3168   0.0546     O
O       0.7587   0.3168   0.9454     O
O       0.7587   0.4454   0.1832     O
O       0.7587   0.4454   0.8168     O
O       0.7587   0.5546   0.1832     O
O       0.7587   0.5546   0.8168     O
O       0.7587   0.6832   0.0546     O
O       0.7587   0.6832   0.9454     O
O       0.7587   0.8168   0.4454     O
O       0.7587   0.8168   0.5546     O
O       0.7587   0.9454   0.3168     O
O       0.7587   0.9454   0.6832     O
H       0.7718   0.1217   0.3783     H
H       0.7718   0.1217   0.6217     H
H       0.7718   0.3783   0.1217     H
H       0.7718   0.3783   0.8783     H
H       0.7718   0.6217   0.1217     H
H       0.7718   0.6217   0.8783     H
H       0.7718   0.8783   0.3783     H
H       0.7718   0.8783   0.6217     H
Mn     0.79223      0.0  0.20777    Mn
Mn     0.79223      0.0  0.79223    Mn
Mn     0.79223  0.20777      0.0    Mn
Mn     0.79223  0.29223      0.5    Mn
Mn     0.79223      0.5  0.29223    Mn
Mn     0.79223      0.5  0.70777    Mn
Mn     0.79223  0.70777      0.5    Mn
Mn     0.79223  0.79223      0.0    Mn
C       0.7975   0.0702   0.2975     C
C       0.7975   0.0702   0.7025     C
C       0.7975   0.2025   0.4298     C
C       0.7975   0.2025   0.5702     C
C       0.7975   0.2975   0.0702     C
C       0.7975   0.2975   0.9298     C
C       0.7975   0.4298   0.2025     C
C       0.7975   0.4298   0.7975     C
C       0.7975   0.5702   0.2025     C
C       0.7975   0.5702   0.7975     C
C       0.7975   0.7025   0.0702     C
C       0.7975   0.7025   0.9298     C
C       0.7975   0.7975   0.4298     C
C       0.7975   0.7975   0.5702     C
C       0.7975   0.9298   0.2975     C
C       0.7975   0.9298   0.7025     C
C       0.8012   0.1363   0.3637     C
C       0.8012   0.1363   0.6363     C
C       0.8012   0.3637   0.1363     C
C       0.8012   0.3637   0.8637     C
C       0.8012   0.6363   0.1363     C
C       0.8012   0.6363   0.8637     C
C       0.8012   0.8637   0.3637     C
C       0.8012   0.8637   0.6363     C
O       0.8168   0.0546   0.2587     O
O       0.8168   0.0546   0.7413     O
O       0.8168   0.2413   0.4454     O
O       0.8168   0.2413   0.5546     O
O       0.8168   0.2587   0.0546     O
O       0.8168   0.2587   0.9454     O
O       0.8168   0.4454   0.2413     O
O       0.8168   0.4454   0.7587     O
O       0.8168   0.5546   0.2413     O
O       0.8168   0.5546   0.7587     O
O       0.8168   0.7413   0.0546     O
O       0.8168   0.7413   0.9454     O
O       0.8168   0.7587   0.4454     O
O       0.8168   0.7587   0.5546     O
O       0.8168   0.9454   0.2587     O
O       0.8168   0.9454   0.7413     O
C       0.8221    0.115   0.3221     C
C       0.8221    0.115   0.6779     C
C       0.8221   0.1779    0.385     C
C       0.8221   0.1779    0.615     C
C       0.8221   0.3221    0.115     C
C       0.8221   0.3221    0.885     C
C       0.8221    0.385   0.1779     C
C       0.8221    0.385   0.8221     C
C       0.8221    0.615   0.1779     C
C       0.8221    0.615   0.8221     C
C       0.8221   0.6779    0.115     C
C       0.8221   0.6779    0.885     C
C       0.8221   0.8221    0.385     C
C       0.8221   0.8221    0.615     C
C       0.8221    0.885   0.3221     C
C       0.8221    0.885   0.6779     C
Cl     0.85461      0.0  0.14539    Cl
Cl     0.85461      0.0  0.85461    Cl
Cl     0.85461  0.14539      0.0    Cl
Cl     0.85461  0.35461      0.5    Cl
Cl     0.85461      0.5  0.35461    Cl
Cl     0.85461      0.5  0.64539    Cl
Cl     0.85461  0.64539      0.5    Cl
Cl     0.85461  0.85461      0.0    Cl
C       0.8637   0.1363   0.3012     C
C       0.8637   0.1363   0.6988     C
C       0.8637   0.1988   0.3637     C
C       0.8637   0.1988   0.6363     C
C       0.8637   0.3012   0.1363     C
C       0.8637   0.3012   0.8637     C
C       0.8637   0.3637   0.1988     C
C       0.8637   0.3637   0.8012     C
C       0.8637   0.6363   0.1988     C
C       0.8637   0.6363   0.8012     C
C       0.8637   0.6988   0.1363     C
C       0.8637   0.6988   0.8637     C
C       0.8637   0.8012   0.3637     C
C       0.8637   0.8012   0.6363     C
C       0.8637   0.8637   0.3012     C
C       0.8637   0.8637   0.6988     C
H       0.8783   0.1217   0.2718     H
H       0.8783   0.1217   0.7282     H
H       0.8783   0.2282   0.3783     H
H       0.8783   0.2282   0.6217     H
H       0.8783   0.2718   0.1217     H
H       0.8783   0.2718   0.8783     H
H       0.8783   0.3783   0.2282     H
H       0.8783   0.3783   0.7718     H
H       0.8783   0.6217   0.2282     H
H       0.8783   0.6217   0.7718     H
H       0.8783   0.7282   0.1217     H
H       0.8783   0.7282   0.8783     H
H       0.8783   0.7718   0.3783     H
H       0.8783   0.7718   0.6217     H
H       0.8783   0.8783   0.2718     H
H       0.8783   0.8783   0.7282     H
C        0.885   0.1779   0.3221     C
C        0.885   0.1779   0.6779     C
C        0.885   0.3221   0.1779     C
C        0.885   0.3221   0.8221     C
C        0.885   0.6779   0.1779     C
C        0.885   0.6779   0.8221     C
C        0.885   0.8221   0.3221     C
C        0.885   0.8221   0.6779     C
C       0.9298   0.2025   0.2975     C
C       0.9298   0.2025   0.7025     C
C       0.9298   0.2975   0.2025     C
C       0.9298   0.2975   0.7975     C
C       0.9298   0.7025   0.2025     C
C       0.9298   0.7025   0.7975     C
C       0.9298   0.7975   0.2975     C
C       0.9298   0.7975   0.7025     C
O       0.9454   0.1832   0.2587     O
O       0.9454   0.1832   0.7413     O
O       0.9454   0.2413   0.3168     O
O       0.9454   0.2413   0.6832     O
O       0.9454   0.2587   0.1832     O
O       0.9454   0.2587   0.8168     O
O       0.9454   0.3168   0.2413     O
O       0.9454   0.3168   0.7587     O
O       0.9454   0.6832   0.2413     O
O       0.9454   0.6832   0.7587     O
O       0.9454   0.7413   0.1832     O
O       0.9454   0.7413   0.8168     O
O       0.9454   0.7587   0.3168     O
O       0.9454   0.7587   0.6832     O
O       0.9454   0.8168   0.2587     O
O       0.9454   0.8168   0.7413     O
