data_I
_chemical_name_common  '/home/zhangsd/repos/MofS-CGCNN/ML/data/SSD/clean_cifs/ACOLIP_clean'
_cell_length_a 11.56700
_cell_length_b 11.83930
_cell_length_c 14.22700
_cell_angle_alpha 112.49700
_cell_angle_beta  90.00000
_cell_angle_gamma 119.24200
_space_group_name_H-M_alt      'P 1'


loop_
_space_group_symop_operation_xyz
  'x, y, z' 

loop_
_atom_site_label
_atom_site_fract_x
_atom_site_fract_y
_atom_site_fract_z
_atom_site_type_symbol
H       0.0106   0.8536   0.9367     H
H       0.0205   0.5574   0.8908     H
H       0.0256   0.1864   0.4683     H
H       0.0559   0.9052   0.5012     H
C       0.0591   0.6602   0.9296     C
H       0.0712   0.4974   0.4736     H
H       0.0897   0.7032   0.8815     H
C       0.1264    0.566   0.4511     C
C       0.1267   0.4316   0.6298     C
C       0.1336   0.7932   0.5925     C
H       0.1353   0.5538   0.0477     H
H       0.1359    0.763   0.6466     H
O       0.1413    0.548   0.6907     O
H       0.1608   0.1864   0.9683     H
N       0.1675   0.7146   0.4974     N
H       0.1748   0.4566   0.3178     H
N       0.1778    0.722    0.014     N
C       0.1869   0.5444   0.3639     C
O        0.188   0.4176   0.1206     O
H       0.1897   0.0068   0.8701     H
C       0.1912   0.6516   0.0663     C
H       0.1955   0.8966   0.6204     H
O       0.2296   0.4176   0.6206     O
C       0.2449   0.1978   0.9842     C
C       0.2603   0.0904    0.924     C
C       0.2655   0.7874   0.4434     C
N       0.2701   0.6796   0.3579     N
C       0.2741   0.8688   0.0702     C
H       0.2818   0.4566   0.8178     H
H       0.2849   0.9416   0.0535     H
N       0.3016   0.7498   0.1512     N
O        0.302   0.8662    0.822     O
C       0.3049   0.4316   0.1298     C
H        0.315   0.8858   0.4622     H
C       0.3398    0.323    0.067     C
Zn     0.34514  0.71626  0.75624    Zn
C       0.3524   0.8872   0.1571     C
C       0.3575   0.5444   0.8639     C
Zn     0.37112  0.71626  0.25624    Zn
C       0.3896     0.11    0.946     C
C       0.4041   0.9834    0.882     C
O       0.4067    0.548   0.1907     O
N       0.4095   0.6796   0.8579     N
H       0.4185   0.5538   0.5477     H
H       0.4238   0.9738   0.2083     H
H       0.4262   0.4974   0.9736     H
C       0.4396    0.566   0.9511     C
N       0.4482   0.7498   0.6512     N
C       0.4604   0.6516   0.5663     C
C       0.4643    0.339   0.0891     C
O        0.486   0.0114   0.3961     O
C       0.4962   0.2328   0.0279     C
C       0.5219   0.7874   0.9434     C
O       0.5254   0.0114   0.8961     O
H       0.5308   0.4218   0.1461     H
C       0.5348   0.8872   0.6571     C
H       0.5369   0.5574   0.3908     H
N       0.5442    0.722    0.514     N
N       0.5471   0.7146   0.9974     N
H         0.55   0.9738   0.7083     H
O       0.5642   0.8662    0.322     O
H       0.5697   0.2094    0.496     H
H       0.5708   0.8858   0.9622     H
C       0.5793   0.9834    0.382     C
C       0.5947   0.8688   0.5702     C
C       0.6011   0.6602   0.4296     C
H       0.6135   0.7032   0.3815     H
N       0.6176    0.265     0.04     N
H       0.6271    0.763   0.1466     H
H       0.6397   0.2094    0.996     H
N       0.6474    0.265     0.54     N
H       0.6567   0.9416   0.5535     H
C       0.6596   0.7932   0.0925     C
H       0.6639   0.3426   0.5923     H
H       0.6659   0.5286   0.5193     H
H       0.6787   0.3426   0.0923     H
H       0.7011   0.8966   0.1204     H
H       0.7014   0.5802   0.0838     H
C       0.7204     0.11    0.446     C
C       0.7334    0.686   0.4716     C
C       0.7366   0.2328   0.5279     C
C       0.7441    0.604   0.5156     C
C       0.7593   0.7478   0.0489     C
C       0.7633    0.635   0.0543     C
H       0.8171   0.0068   0.3701     H
C       0.8301   0.0904    0.424     C
H        0.843   0.8536   0.4367     H
H       0.8493   0.9052   0.0012     H
C       0.8502   0.7988   0.4662     C
C        0.852   0.8298   0.0048     C
C       0.8599    0.604   0.0156     C
H       0.8627   0.5286   0.0193     H
C       0.8717    0.635   0.5543     C
C       0.8747    0.339   0.5891     C
H       0.8788   0.5802   0.5838     H
H        0.891   0.4218   0.6461     H
C       0.9486   0.7988   0.9662     C
C       0.9526    0.686   0.9716     C
C       0.9529   0.1978   0.4842     C
C       0.9778   0.8298   0.5048     C
C       0.9832    0.323    0.567     C
C       0.9885   0.7478   0.5489     C
