data_I
_chemical_name_common  '/home/zhangsd/repos/MofS-CGCNN/ML/data/SSD/clean_cifs/ADODOO_clean'
_cell_length_a  7.10910
_cell_length_b 14.53990
_cell_length_c 16.77540
_cell_angle_alpha 104.11900
_cell_angle_beta  102.23300
_cell_angle_gamma 90.00000
_space_group_name_H-M_alt      'P 1'


loop_
_space_group_symop_operation_xyz
  'x, y, z' 

loop_
_atom_site_label
_atom_site_fract_x
_atom_site_fract_y
_atom_site_fract_z
_atom_site_type_symbol
C       0.0002   0.3299   0.0418     C
O       0.0039    0.682   0.7926     O
Eu     0.00651  0.03118  0.49744    Eu
C       0.0156   0.5869   0.8936     C
C        0.022   0.2228   0.9116     C
C       0.0412   0.8316   0.6524     C
C       0.0448   0.1386   0.7724     C
H       0.0732     0.79    0.424     H
O       0.0774      0.5      0.0     O
C       0.0809   0.9412   0.3332     C
C       0.0832   0.7223   0.7418     C
O       0.0888   0.5445   0.2184     O
C       0.0889   0.6743   0.3304     C
C       0.0962   0.8871    0.247     C
C       0.1104   0.7772   0.0884     C
O       0.1146   0.2793   0.9872     O
H       0.1183   0.1195    0.732     H
C        0.122   0.4131   0.1064     C
C       0.1239   0.6203   0.8352     C
O       0.1274   0.7207   0.0128     O
O       0.1277   0.1766   0.6038     O
C       0.1296   0.1932   0.8522     C
H       0.1354    0.203   0.2834     H
H       0.1542    0.566   0.7942     H
C       0.1576   0.5285   0.9396     C
H        0.187    0.473   0.8996     H
O       0.2113    0.318   0.2074     O
C        0.218   0.4715   0.0604     C
O        0.219   0.9336   0.5596     O
H       0.2222   0.6717   0.3434     H
C       0.2259   0.8154   0.6378     C
O       0.2263   0.9595   0.3952     O
H       0.2438   0.6544   0.8678     H
H        0.261   0.2098   0.8656     H
C       0.2617   0.7034   0.7254     C
C       0.2682    0.215   0.2944     C
C       0.2724   0.8614   0.2276     C
H       0.2767   0.5662    0.967     H
C       0.2774   0.8068   0.1478     C
H       0.2813   0.3165   0.7194     H
H       0.2874    0.527   0.1004     H
C       0.2887   0.3797   0.1648     C
C         0.29   0.1771    0.588     C
C       0.3059   0.8648    0.584     C
H       0.3097   0.4338    0.033     H
C       0.3296   0.7507   0.6732     C
O       0.3309   0.1111   0.5288     O
H       0.3358   0.6598   0.7486     H
H       0.3374   0.1272   0.3728     H
C       0.3414   0.2777   0.2582     C
H         0.36    0.434   0.2058     H
H        0.376   0.3456   0.1322     H
H       0.3863   0.8805    0.268     H
C       0.3888   0.1684   0.3476     C
H       0.3954   0.7902   0.1344     H
C       0.4008     0.32   0.7056     C
C       0.4405   0.2546   0.6376     C
H        0.451   0.7377    0.662     H
O       0.4653   0.8407   0.5648     O
H       0.5053   0.4379   0.7968     H
Eu     0.50907  0.96882  0.50256    Eu
O       0.5239   0.8234   0.3962     O
C       0.5363   0.2966   0.2746     C
C        0.537   0.3909    0.754     C
H       0.5619   0.6835   0.2806     H
O      0.58042   0.0333  0.65484     O
H       0.5872   0.3402   0.2514     H
C       0.5881   0.1846   0.3622     C
H       0.6114   0.1273   0.7988     H
C       0.6199   0.2558   0.6204     C
H       0.6492     0.21    0.576     H
C       0.6564   0.2493   0.3268     C
O       0.6594   0.0664   0.4404     O
C       0.6952     0.68   0.2944     C
C        0.702   0.8229    0.412     C
H       0.7085   0.5621   0.2032     H
C       0.7182   0.3916   0.7384     C
C       0.7219   0.1352    0.416     C
H       0.7391   0.5718   0.8242     H
C       0.7431   0.1429   0.8122     C
C       0.7477   0.0588   0.6668     C
H       0.7571   0.2154    0.934     H
C       0.7585   0.3257   0.6696     C
H        0.776    0.505   0.8862     H
C        0.783   0.6091    0.246     C
H        0.789   0.2623    0.338     H
O       0.8021   0.8889   0.4712     O
C       0.8029   0.7454   0.3624     C
H       0.8126   0.8727   0.2012     H
H       0.8231   0.7846    0.066     H
C       0.8297   0.1971   0.8932     C
C        0.831   0.5309   0.8476     C
O       0.8311   0.0405   0.6048     O
C       0.8492   0.1129    0.753     C
H        0.852    0.797   0.7166     H
O       0.8704   0.4555   0.7816     O
H       0.8788   0.3283   0.6566     H
H       0.8811   0.6464   0.9908     H
H       0.8819   0.7124   0.9294     H
H       0.8898    0.495   0.1138     H
H       0.8903   0.3536   0.0092     H
O       0.9005   0.1593   0.4352     O
H       0.9149   0.4282   0.1758     H
O      0.92558   0.9667  0.34516     O
C       0.9309   0.8571   0.1878     C
C       0.9365   0.8029   0.1068     C
H       0.9525   0.2876   0.0706     H
C       0.9584   0.6701   0.9582     C
H       0.9646   0.8728   0.6272     H
C       0.9738    0.785   0.7056     C
C       0.9798   0.6084   0.2616     C
C       0.9834   0.4691   0.1524     C
C       0.9995   0.7442   0.3796     C
