data_I
_chemical_name_common  '/home/zhangsd/repos/MofS-CGCNN/ML/data/SSD/clean_cifs/ADUWIH_clean'
_cell_length_a 22.07200
_cell_length_b 22.07200
_cell_length_c 22.07200
_cell_angle_alpha 90.00000
_cell_angle_beta  90.00000
_cell_angle_gamma 90.00000
_space_group_name_H-M_alt      'P 1'


loop_
_space_group_symop_operation_xyz
  'x, y, z' 

loop_
_atom_site_label
_atom_site_fract_x
_atom_site_fract_y
_atom_site_fract_z
_atom_site_type_symbol
Zn         0.0      0.0      0.0    Zn
Zn         0.0      0.5      0.5    Zn
O       0.0014   0.1534  0.54622     O
O       0.0014   0.3466  0.95378     O
H       0.0035   0.0356   0.2525     H
H       0.0035   0.4644   0.2475     H
C      0.00717  0.70996  0.06889     C
C      0.00717  0.79004  0.43111     C
H       0.0101   0.5982   0.1172     H
H       0.0101   0.9018   0.3828     H
C      0.01154  0.53662  0.63546     C
C      0.01154  0.96338  0.86454     C
C      0.01173  0.18489  0.94898     C
C      0.01173  0.31511  0.55102     C
C      0.01214   0.5492  0.03737     C
C      0.01214   0.9508  0.46263     C
C      0.01652  0.24335  0.96709     C
C      0.01652  0.25665  0.53291     C
C       0.0168  0.67049   0.3947     C
C       0.0168  0.82951   0.1053     C
H        0.019   0.6305   0.3815     H
H        0.019   0.8695   0.1185     H
C      0.02674  0.60328  0.07679     C
C      0.02674  0.89672  0.42321     C
O      0.02945  0.53458  0.58245     O
O      0.02945  0.96542  0.91755     O
C      0.03291  0.51652  0.74335     C
C      0.03291  0.98348  0.75665     C
O      0.03458  0.08245  0.97055     O
O      0.03458  0.41755  0.52945     O
H       0.0356   0.2475   0.4965     H
H       0.0356   0.2525   0.0035     H
C      0.03662  0.13546  0.98846     C
C      0.03662  0.36454  0.51154     C
C        0.037   0.7241   0.1217     C
C        0.037   0.7759   0.3783     C
C      0.03737  0.01214   0.5492     C
C      0.03737  0.48786   0.9508     C
O      0.03876  0.05924   0.1523     O
O      0.03876  0.44076   0.3477     O
C       0.0414   0.7158   0.3612     C
C       0.0414   0.7842   0.1388     C
O      0.04622   0.5014   0.8466     O
O      0.04622   0.9986   0.6534     O
C       0.0492  0.53737  0.98786     C
C       0.0492  0.96263  0.51214     C
C      0.05102  0.51173  0.68489     C
C      0.05102  0.98827  0.81511     C
H       0.0539   0.6938   0.1455     H
H       0.0539   0.8062   0.3545     H
O      0.05924   0.1523  0.03876     O
O      0.05924   0.3477  0.46124     O
H       0.0619   0.7061   0.3256     H
H       0.0619   0.7939   0.1744     H
C      0.06889  0.00717  0.70996     C
C      0.06889  0.49283  0.79004     C
H       0.0702   0.6092   0.0799     H
H       0.0702   0.8908   0.4201     H
C      0.07679  0.02674  0.60328     C
C      0.07679  0.47326  0.89672     C
H       0.0799   0.0702   0.6092     H
H       0.0799   0.4298   0.8908     H
O      0.08245  0.52945  0.46542     O
O      0.08245  0.97055  0.03458     O
Zn     0.09254  0.09254  0.09254    Zn
Zn     0.09254  0.40746  0.40746    Zn
H       0.0982   0.6172   0.9899     H
H       0.0982   0.8828   0.5101     H
C      0.10328  0.57679  0.97326     C
C      0.10328  0.92321  0.52674     C
C       0.1053   0.0168  0.82951     C
C       0.1053   0.4832  0.67049     C
H       0.1092   0.5799   0.9298     H
H       0.1092   0.9201   0.5702     H
H       0.1172   0.0101   0.5982     H
H       0.1172   0.4899   0.9018     H
H       0.1185    0.019   0.8695     H
H       0.1185    0.481   0.6305     H
C       0.1217    0.037   0.7241     C
C       0.1217    0.463   0.7759     C
H       0.1305   0.6185    0.519     H
H       0.1305   0.8815    0.981     H
C      0.13546  0.51154  0.46338     C
C      0.13546  0.98846  0.03662     C
C       0.1388   0.0414   0.7842     C
C       0.1388   0.4586   0.7158     C
H       0.1455   0.0539   0.6938     H
H       0.1455   0.4461   0.8062     H
O       0.1523  0.03876  0.05924     O
O       0.1523  0.46124  0.44076     O
O       0.1534  0.54622   0.0014     O
O       0.1534  0.95378   0.4986     O
C      0.17049   0.6053   0.5168     C
C      0.17049   0.8947   0.9832     C
H       0.1744   0.0619   0.7939     H
H       0.1744   0.4381   0.7061     H
C      0.18489  0.55102  0.48827     C
C      0.18489  0.94898  0.01173     C
H       0.1938   0.6455   0.9461     H
H       0.1938   0.8545   0.5539     H
H       0.2061   0.6744   0.5619     H
H       0.2061   0.8256   0.9381     H
C      0.20996  0.56889  0.99283     C
C      0.20996  0.93111  0.50717     C
C       0.2158   0.6388   0.5414     C
C       0.2158   0.8612   0.9586     C
C       0.2241   0.6217    0.963     C
C       0.2241   0.8783    0.537     C
C      0.24335  0.53291  0.48348     C
C      0.24335  0.96709  0.01652     C
H       0.2475   0.0035   0.4644     H
H       0.2475   0.4965   0.0356     H
H       0.2525   0.0035   0.0356     H
H       0.2525   0.4965   0.4644     H
C      0.25665  0.53291  0.01652     C
C      0.25665  0.96709  0.48348     C
C       0.2759   0.6217    0.537     C
C       0.2759   0.8783    0.963     C
C       0.2842   0.6388   0.9586     C
C       0.2842   0.8612   0.5414     C
C      0.29004  0.56889  0.50717     C
C      0.29004  0.93111  0.99283     C
H       0.2939   0.6744   0.9381     H
H       0.2939   0.8256   0.5619     H
H       0.3062   0.6455   0.5539     H
H       0.3062   0.8545   0.9461     H
C      0.31511  0.55102  0.01173     C
C      0.31511  0.94898  0.48827     C
H       0.3256   0.0619   0.7061     H
H       0.3256   0.4381   0.7939     H
C      0.32951   0.6053   0.9832     C
C      0.32951   0.8947   0.5168     C
O       0.3466  0.54622   0.4986     O
O       0.3466  0.95378   0.0014     O
O       0.3477  0.03876  0.44076     O
O       0.3477  0.46124  0.05924     O
H       0.3545   0.0539   0.8062     H
H       0.3545   0.4461   0.6938     H
C       0.3612   0.0414   0.7158     C
C       0.3612   0.4586   0.7842     C
C      0.36454  0.51154  0.03662     C
C      0.36454  0.98846  0.46338     C
H       0.3695   0.6185    0.981     H
H       0.3695   0.8815    0.519     H
C       0.3783    0.037   0.7759     C
C       0.3783    0.463   0.7241     C
H       0.3815    0.019   0.6305     H
H       0.3815    0.481   0.8695     H
H       0.3828   0.0101   0.9018     H
H       0.3828   0.4899   0.5982     H
H       0.3908   0.5799   0.5702     H
H       0.3908   0.9201   0.9298     H
C       0.3947   0.0168  0.67049     C
C       0.3947   0.4832  0.82951     C
C      0.39672  0.57679  0.52674     C
C      0.39672  0.92321  0.97326     C
H       0.4018   0.6172   0.5101     H
H       0.4018   0.8828   0.9899     H
Zn     0.40746  0.09254  0.40746    Zn
Zn     0.40746  0.40746  0.09254    Zn
O      0.41755  0.52945  0.03458     O
O      0.41755  0.97055  0.46542     O
H       0.4201   0.0702   0.8908     H
H       0.4201   0.4298   0.6092     H
C      0.42321  0.02674  0.89672     C
C      0.42321  0.47326  0.60328     C
H       0.4298   0.6092   0.4201     H
H       0.4298   0.8908   0.0799     H
C      0.43111  0.00717  0.79004     C
C      0.43111  0.49283  0.70996     C
H       0.4381   0.7061   0.1744     H
H       0.4381   0.7939   0.3256     H
O      0.44076   0.1523  0.46124     O
O      0.44076   0.3477  0.03876     O
H       0.4461   0.6938   0.3545     H
H       0.4461   0.8062   0.1455     H
C      0.44898  0.51173  0.81511     C
C      0.44898  0.98827  0.68489     C
C       0.4508  0.53737  0.51214     C
C       0.4508  0.96263  0.98786     C
O      0.45378   0.5014   0.6534     O
O      0.45378   0.9986   0.8466     O
C       0.4586   0.7158   0.1388     C
C       0.4586   0.7842   0.3612     C
O      0.46124  0.05924   0.3477     O
O      0.46124  0.44076   0.1523     O
C      0.46263  0.01214   0.9508     C
C      0.46263  0.48786   0.5492     C
C        0.463   0.7241   0.3783     C
C        0.463   0.7759   0.1217     C
C      0.46338  0.13546  0.51154     C
C      0.46338  0.36454  0.98846     C
H       0.4644   0.2475   0.0035     H
H       0.4644   0.2525   0.4965     H
O      0.46542  0.08245  0.52945     O
O      0.46542  0.41755  0.97055     O
C      0.46709  0.51652  0.75665     C
C      0.46709  0.98348  0.74335     C
O      0.47055  0.53458  0.91755     O
O      0.47055  0.96542  0.58245     O
C      0.47326  0.60328  0.42321     C
C      0.47326  0.89672  0.07679     C
H        0.481   0.6305   0.1185     H
H        0.481   0.8695   0.3815     H
C       0.4832  0.67049   0.1053     C
C       0.4832  0.82951   0.3947     C
C      0.48348  0.24335  0.53291     C
C      0.48348  0.25665  0.96709     C
C      0.48786   0.5492  0.46263     C
C      0.48786   0.9508  0.03737     C
C      0.48827  0.18489  0.55102     C
C      0.48827  0.31511  0.94898     C
C      0.48846  0.53662  0.86454     C
C      0.48846  0.96338  0.63546     C
H       0.4899   0.5982   0.3828     H
H       0.4899   0.9018   0.1172     H
C      0.49283  0.70996  0.43111     C
C      0.49283  0.79004  0.06889     C
H       0.4965   0.0356   0.2475     H
H       0.4965   0.4644   0.2525     H
O       0.4986   0.1534  0.95378     O
O       0.4986   0.3466  0.54622     O
Zn         0.5      0.0      0.5    Zn
Zn         0.5      0.5      0.0    Zn
O       0.5014   0.6534  0.45378     O
O       0.5014   0.8466  0.04622     O
H       0.5035   0.5356   0.7475     H
H       0.5035   0.9644   0.7525     H
C      0.50717  0.20996  0.93111     C
C      0.50717  0.29004  0.56889     C
H       0.5101   0.0982   0.8828     H
H       0.5101   0.4018   0.6172     H
C      0.51154  0.03662  0.36454     C
C      0.51154  0.46338  0.13546     C
C      0.51173  0.68489  0.05102     C
C      0.51173  0.81511  0.44898     C
C      0.51214   0.0492  0.96263     C
C      0.51214   0.4508  0.53737     C
C      0.51652  0.74335  0.03291     C
C      0.51652  0.75665  0.46709     C
C       0.5168  0.17049   0.6053     C
C       0.5168  0.32951   0.8947     C
H        0.519   0.1305   0.6185     H
H        0.519   0.3695   0.8815     H
C      0.52674  0.10328  0.92321     C
C      0.52674  0.39672  0.57679     C
O      0.52945  0.03458  0.41755     O
O      0.52945  0.46542  0.08245     O
C      0.53291  0.01652  0.25665     C
C      0.53291  0.48348  0.24335     C
O      0.53458  0.58245  0.02945     O
O      0.53458  0.91755  0.47055     O
H       0.5356   0.7475   0.5035     H
H       0.5356   0.7525   0.9965     H
C      0.53662  0.63546  0.01154     C
C      0.53662  0.86454  0.48846     C
C        0.537   0.2241   0.8783     C
C        0.537   0.2759   0.6217     C
C      0.53737  0.51214   0.4508     C
C      0.53737  0.98786   0.0492     C
O      0.53876  0.55924   0.8477     O
O      0.53876  0.94076   0.6523     O
C       0.5414   0.2158   0.6388     C
C       0.5414   0.2842   0.8612     C
O      0.54622   0.0014   0.1534     O
O      0.54622   0.4986   0.3466     O
C       0.5492  0.03737  0.01214     C
C       0.5492  0.46263  0.48786     C
C      0.55102  0.01173  0.31511     C
C      0.55102  0.48827  0.18489     C
H       0.5539   0.1938   0.8545     H
H       0.5539   0.3062   0.6455     H
O      0.55924   0.6523  0.96124     O
O      0.55924   0.8477  0.53876     O
H       0.5619   0.2061   0.6744     H
H       0.5619   0.2939   0.8256     H
C      0.56889  0.50717  0.29004     C
C      0.56889  0.99283  0.20996     C
H       0.5702   0.1092   0.9201     H
H       0.5702   0.3908   0.5799     H
C      0.57679  0.52674  0.39672     C
C      0.57679  0.97326  0.10328     C
H       0.5799   0.5702   0.3908     H
H       0.5799   0.9298   0.1092     H
O      0.58245  0.02945  0.53458     O
O      0.58245  0.47055  0.96542     O
Zn     0.59254  0.59254  0.90746    Zn
Zn     0.59254  0.90746  0.59254    Zn
H       0.5982   0.1172   0.0101     H
H       0.5982   0.3828   0.4899     H
C      0.60328  0.07679  0.02674     C
C      0.60328  0.42321  0.47326     C
C       0.6053   0.5168  0.17049     C
C       0.6053   0.9832  0.32951     C
H       0.6092   0.0799   0.0702     H
H       0.6092   0.4201   0.4298     H
H       0.6172   0.5101   0.4018     H
H       0.6172   0.9899   0.0982     H
H       0.6185    0.519   0.1305     H
H       0.6185    0.981   0.3695     H
C       0.6217    0.537   0.2759     C
C       0.6217    0.963   0.2241     C
H       0.6305   0.1185    0.481     H
H       0.6305   0.3815    0.019     H
C      0.63546  0.01154  0.53662     C
C      0.63546  0.48846  0.96338     C
C       0.6388   0.5414   0.2158     C
C       0.6388   0.9586   0.2842     C
H       0.6455   0.5539   0.3062     H
H       0.6455   0.9461   0.1938     H
O       0.6523  0.53876  0.94076     O
O       0.6523  0.96124  0.55924     O
O       0.6534  0.04622   0.9986     O
O       0.6534  0.45378   0.5014     O
C      0.67049   0.1053   0.4832     C
C      0.67049   0.3947   0.0168     C
H       0.6744   0.5619   0.2061     H
H       0.6744   0.9381   0.2939     H
C      0.68489  0.05102  0.51173     C
C      0.68489  0.44898  0.98827     C
H       0.6938   0.1455   0.0539     H
H       0.6938   0.3545   0.4461     H
H       0.7061   0.1744   0.4381     H
H       0.7061   0.3256   0.0619     H
C      0.70996  0.06889  0.00717     C
C      0.70996  0.43111  0.49283     C
C       0.7158   0.1388   0.4586     C
C       0.7158   0.3612   0.0414     C
C       0.7241   0.1217    0.037     C
C       0.7241   0.3783    0.463     C
C      0.74335  0.03291  0.51652     C
C      0.74335  0.46709  0.98348     C
H       0.7475   0.5035   0.5356     H
H       0.7475   0.9965   0.9644     H
H       0.7525   0.5035   0.9644     H
H       0.7525   0.9965   0.5356     H
C      0.75665  0.03291  0.98348     C
C      0.75665  0.46709  0.51652     C
C       0.7759   0.1217    0.463     C
C       0.7759   0.3783    0.037     C
C       0.7842   0.1388   0.0414     C
C       0.7842   0.3612   0.4586     C
C      0.79004  0.06889  0.49283     C
C      0.79004  0.43111  0.00717     C
H       0.7939   0.1744   0.0619     H
H       0.7939   0.3256   0.4381     H
H       0.8062   0.1455   0.4461     H
H       0.8062   0.3545   0.0539     H
C      0.81511  0.05102  0.98827     C
C      0.81511  0.44898  0.51173     C
H       0.8256   0.5619   0.2939     H
H       0.8256   0.9381   0.2061     H
C      0.82951   0.1053   0.0168     C
C      0.82951   0.3947   0.4832     C
O       0.8466  0.04622   0.5014     O
O       0.8466  0.45378   0.9986     O
O       0.8477  0.53876  0.55924     O
O       0.8477  0.96124  0.94076     O
H       0.8545   0.5539   0.1938     H
H       0.8545   0.9461   0.3062     H
C       0.8612   0.5414   0.2842     C
C       0.8612   0.9586   0.2158     C
C      0.86454  0.01154  0.96338     C
C      0.86454  0.48846  0.53662     C
H       0.8695   0.1185    0.019     H
H       0.8695   0.3815    0.481     H
C       0.8783    0.537   0.2241     C
C       0.8783    0.963   0.2759     C
H       0.8815    0.519   0.3695     H
H       0.8815    0.981   0.1305     H
H       0.8828   0.5101   0.0982     H
H       0.8828   0.9899   0.4018     H
H       0.8908   0.0799   0.4298     H
H       0.8908   0.4201   0.0702     H
C       0.8947   0.5168  0.32951     C
C       0.8947   0.9832  0.17049     C
C      0.89672  0.07679  0.47326     C
C      0.89672  0.42321  0.02674     C
H       0.9018   0.1172   0.4899     H
H       0.9018   0.3828   0.0101     H
Zn     0.90746  0.59254  0.59254    Zn
Zn     0.90746  0.90746  0.90746    Zn
O      0.91755  0.02945  0.96542     O
O      0.91755  0.47055  0.53458     O
H       0.9201   0.5702   0.1092     H
H       0.9201   0.9298   0.3908     H
C      0.92321  0.52674  0.10328     C
C      0.92321  0.97326  0.39672     C
H       0.9298   0.1092   0.5799     H
H       0.9298   0.3908   0.9201     H
C      0.93111  0.50717  0.20996     C
C      0.93111  0.99283  0.29004     C
H       0.9381   0.2061   0.8256     H
H       0.9381   0.2939   0.6744     H
O      0.94076   0.6523  0.53876     O
O      0.94076   0.8477  0.96124     O
H       0.9461   0.1938   0.6455     H
H       0.9461   0.3062   0.8545     H
C      0.94898  0.01173  0.18489     C
C      0.94898  0.48827  0.31511     C
C       0.9508  0.03737  0.48786     C
C       0.9508  0.46263  0.01214     C
O      0.95378   0.0014   0.3466     O
O      0.95378   0.4986   0.1534     O
C       0.9586   0.2158   0.8612     C
C       0.9586   0.2842   0.6388     C
O      0.96124  0.55924   0.6523     O
O      0.96124  0.94076   0.8477     O
C      0.96263  0.51214   0.0492     C
C      0.96263  0.98786   0.4508     C
C        0.963   0.2241   0.6217     C
C        0.963   0.2759   0.8783     C
C      0.96338  0.63546  0.48846     C
C      0.96338  0.86454  0.01154     C
H       0.9644   0.7475   0.9965     H
H       0.9644   0.7525   0.5035     H
O      0.96542  0.58245  0.47055     O
O      0.96542  0.91755  0.02945     O
C      0.96709  0.01652  0.24335     C
C      0.96709  0.48348  0.25665     C
O      0.97055  0.03458  0.08245     O
O      0.97055  0.46542  0.41755     O
C      0.97326  0.10328  0.57679     C
C      0.97326  0.39672  0.92321     C
H        0.981   0.1305   0.8815     H
H        0.981   0.3695   0.6185     H
C       0.9832  0.17049   0.8947     C
C       0.9832  0.32951   0.6053     C
C      0.98348  0.74335  0.46709     C
C      0.98348  0.75665  0.03291     C
C      0.98786   0.0492  0.53737     C
C      0.98786   0.4508  0.96263     C
C      0.98827  0.68489  0.44898     C
C      0.98827  0.81511  0.05102     C
C      0.98846  0.03662  0.13546     C
C      0.98846  0.46338  0.36454     C
H       0.9899   0.0982   0.6172     H
H       0.9899   0.4018   0.8828     H
C      0.99283  0.20996  0.56889     C
C      0.99283  0.29004  0.93111     C
H       0.9965   0.5356   0.7525     H
H       0.9965   0.9644   0.7475     H
O       0.9986   0.6534  0.04622     O
O       0.9986   0.8466  0.45378     O
