data_I
_chemical_name_common  '/home/zhangsd/repos/MofS-CGCNN/ML/data/SSD/clean_cifs/AFOYAW_clean'
_cell_length_a 13.34270
_cell_length_b 13.40470
_cell_length_c 13.56200
_cell_angle_alpha 102.33900
_cell_angle_beta  104.36900
_cell_angle_gamma 90.47700
_space_group_name_H-M_alt      'P 1'


loop_
_space_group_symop_operation_xyz
  'x, y, z' 

loop_
_atom_site_label
_atom_site_fract_x
_atom_site_fract_y
_atom_site_fract_z
_atom_site_type_symbol
Cu         0.0      0.5      0.5    Cu
C       0.0027   0.2822   0.5105     C
C       0.0058   0.5205   0.2838     C
C       0.0289   0.4948    0.102     C
C       0.0323   0.0986   0.5065     C
C       0.0405   0.9194   0.4424     C
N       0.0552   0.5012   0.3731     N
N       0.0562   0.3638   0.5096     N
H       0.0579   0.4487   0.7285     H
N       0.0601   0.4895   0.2112     N
N       0.0645    0.202   0.5118     N
H       0.0677   0.7207   0.4896     H
H       0.0678   0.8644   0.4038     H
C       0.0705   0.5342   0.9533     C
C       0.0737   0.0199   0.4483     C
C       0.1004   0.5287   0.0579     C
H       0.1184   0.5576   0.9215     H
H       0.1232   0.0338   0.4135     H
N       0.1457   0.4579   0.3583     N
C       0.1465   0.4509   0.2613     C
N       0.1554   0.3368   0.5097     N
C       0.1591   0.2404    0.511     C
H       0.1689   0.5481   0.0977     H
H       0.1991   0.4234   0.2308     H
H       0.2182   0.2027   0.5114     H
H       0.2354   0.1844   0.2882     H
Cu     0.25871  0.42718  0.47608    Cu
H       0.2613   0.1022    0.108     H
H       0.2772   0.9637   0.9785     H
H       0.2929   0.8222   0.8594     H
H       0.2935   0.4181   0.7277     H
C       0.3034   0.2137   0.3174     C
C       0.3195   0.0629   0.1185     C
C       0.3294   0.9811   0.0413     C
N       0.3295   0.2975   0.3906     N
H       0.3373   0.5359   0.3935     H
H       0.3379   0.5436   0.9133     H
C       0.3539   0.4382   0.7112     C
O       0.3546   0.5225   0.4544     O
C       0.3607   0.8019   0.8805     C
N       0.3611   0.4404   0.6176     N
H       0.3853   0.5733   0.0952     H
N       0.3887   0.1756   0.2898     N
C       0.3955   0.0868   0.2117     C
N       0.4017   0.7311   0.8237     N
C       0.4031   0.5263   0.9486     C
C       0.4158   0.9248   0.0557     C
H       0.4199   0.4835   0.2453     H
H       0.4256   0.2019   0.9767     H
N        0.428   0.8426   0.9739     N
C       0.4311   0.5437   0.0564     C
N       0.4356   0.3164   0.4116     N
N       0.4463   0.4692   0.7814     N
H       0.4501   0.0891   0.8421     H
H        0.462   0.7622    0.651     H
N       0.4621   0.4742   0.6267     N
C       0.4683   0.2435   0.3509     C
H       0.4683   0.9543   0.7096     H
C       0.4724   0.4832   0.8934     C
C       0.4805   0.0299   0.2267     C
C       0.4866    0.211    0.031     C
C       0.4895   0.5083   0.2737     C
C        0.491   0.9492    0.148     C
N       0.4994   0.2758    0.119     N
Cu         0.5      0.5      0.5    Cu
N       0.5006   0.7242    0.881     N
C        0.509   0.0508    0.852     C
C       0.5105   0.4917   0.7263     C
C       0.5134    0.789    0.969     C
C       0.5195   0.9701   0.7733     C
C       0.5276   0.5168   0.1066     C
H       0.5317   0.0457   0.2904     H
C       0.5317   0.7565   0.6491     C
N       0.5379   0.5258   0.3733     N
H        0.538   0.2378    0.349     H
H       0.5499   0.9109   0.1579     H
N       0.5537   0.5308   0.2186     N
N       0.5644   0.6836   0.5884     N
C       0.5689   0.4563   0.9436     C
N        0.572   0.1574   0.0261     N
H       0.5744   0.7981   0.0233     H
H       0.5801   0.5165   0.7547     H
C       0.5842   0.0752   0.9443     C
C       0.5969   0.4737   0.0514     C
N       0.5983   0.2689   0.1763     N
C       0.6045   0.9132   0.7883     C
N       0.6113   0.8244   0.7102     N
H       0.6147   0.4267   0.9048     H
N       0.6389   0.5596   0.3824     N
C       0.6393   0.1981   0.1195     C
O       0.6454   0.4775   0.5456     O
C       0.6461   0.5618   0.2888     C
H       0.6621   0.4564   0.0867     H
H       0.6627   0.4641   0.6065     H
N       0.6705   0.7025   0.6094     N
C       0.6706   0.0189   0.9587     C
C       0.6805   0.9371   0.8815     C
C       0.6966   0.7863   0.6826     C
H       0.7065   0.5819   0.2723     H
H       0.7071   0.1778   0.1406     H
H       0.7228   0.0363   0.0215     H
H       0.7387   0.8978    0.892     H
Cu     0.74129  0.57282  0.52392    Cu
H       0.7646   0.8156   0.7118     H
H       0.7818   0.7973   0.4886     H
H       0.8009   0.5766   0.7692     H
H       0.8311   0.4519   0.9023     H
C       0.8409   0.7596    0.489     C
N       0.8446   0.6632   0.4903     N
C       0.8535   0.5491   0.7387     C
N       0.8543   0.5421   0.6417     N
H       0.8768   0.9662   0.5865     H
H       0.8816   0.4424   0.0785     H
C       0.8996   0.4713   0.9421     C
C       0.9263   0.9801   0.5517     C
C       0.9295   0.4658   0.0467     C
H       0.9322   0.1356   0.5962     H
H       0.9323   0.2793   0.5104     H
N       0.9355    0.798   0.4882     N
N       0.9399   0.5105   0.7888     N
H       0.9421   0.5513   0.2715     H
N       0.9438   0.6362   0.4904     N
N       0.9448   0.4988   0.6269     N
C       0.9595   0.0806   0.5576     C
C       0.9677   0.9014   0.4935     C
C       0.9711   0.5052    0.898     C
C       0.9942   0.4795   0.7162     C
C       0.9973   0.7178   0.4895     C
