data_I
_chemical_name_common  '/home/zhangsd/repos/MofS-CGCNN/ML/data/SSD/clean_cifs/AGUTUS_clean'
_cell_length_a 10.63320
_cell_length_b 12.03610
_cell_length_c 12.80520
_cell_angle_alpha 90.00000
_cell_angle_beta  92.25600
_cell_angle_gamma 90.00000
_space_group_name_H-M_alt      'P 1'


loop_
_space_group_symop_operation_xyz
  'x, y, z' 

loop_
_atom_site_label
_atom_site_fract_x
_atom_site_fract_y
_atom_site_fract_z
_atom_site_type_symbol
H        0.027    0.233   0.8476     H
N      0.03044  0.30208   0.7053     N
N      0.05986  0.41884  0.27082     N
H        0.067   0.4723   0.1212     H
N      0.06755  0.12569  0.45546     N
C      0.06864  0.24544  0.78722     C
H        0.089    0.973   0.4032     H
N       0.0919  0.61853   0.5366     N
C       0.1042  0.46888  0.19046     C
C      0.11203  0.04356  0.40258     C
Cu     0.12227  0.37021  0.49515    Cu
N      0.12645  0.29713  0.63562     N
H        0.129   0.7672    0.594     H
N      0.13704  0.21908   0.4295     N
C      0.14556  0.69561   0.5943     C
N      0.14565  0.43851  0.35439     N
N      0.15217  0.51861  0.56325     N
N      0.18546  0.20457  0.77208     N
H        0.198   0.0244   0.1383     H
H       0.2055   0.9875   0.8372     H
N      0.20767  0.08084  0.34302     N
H         0.21    0.721    0.851     H
N       0.2159  0.51992  0.21979     N
C      0.21868  0.23905  0.67681     C
C      0.21979  0.19067  0.36298     C
H        0.225    0.733   0.1709     H
N      0.23745  0.64854  0.65673     N
C      0.23772  0.49869  0.32316     C
C      0.23917  0.53831  0.63546     C
C      0.26083  0.03831  0.86454     C
C      0.26228  0.99869  0.17684     C
N      0.26255  0.14854  0.84327     N
H        0.275    0.233   0.3291     H
C      0.28021  0.69067  0.13702     C
C      0.28132  0.73905  0.82319     C
N       0.2841  0.01992  0.28021     N
H         0.29    0.221    0.649     H
N      0.29233  0.58084  0.15698     N
H       0.2945   0.4875   0.6628     H
H        0.302   0.5244   0.3617     H
N      0.31454  0.70457  0.72792     N
N      0.34783  0.01861  0.93675     N
N      0.35435  0.93851  0.14561     N
C      0.35444  0.19561   0.9057     C
N      0.36296  0.71908   0.0705     N
H        0.371   0.2672    0.906     H
N      0.37355  0.79713  0.86438     N
Cu     0.37773  0.87021  0.00485    Cu
C      0.38797  0.54356  0.09742     C
C       0.3958  0.96888  0.30954     C
N       0.4081  0.11853   0.9634     N
H        0.411    0.473   0.0968     H
C      0.43136  0.74544  0.71278     C
N      0.43245  0.62569  0.04454     N
H        0.433   0.9723   0.3788     H
N      0.44014  0.91884  0.22918     N
N      0.46956  0.80208   0.7947     N
H        0.473    0.733   0.6524     H
H        0.527    0.267   0.3476     H
N      0.53044  0.19792   0.2053     N
N      0.55986  0.08116  0.77082     N
H        0.567   0.0277   0.6212     H
N      0.56755  0.37431  0.95546     N
C      0.56864  0.25456  0.28722     C
H        0.589    0.527   0.9032     H
N       0.5919  0.88147   0.0366     N
C       0.6042  0.03112  0.69046     C
C      0.61203  0.45644  0.90258     C
Cu     0.62227  0.12979  0.99515    Cu
N      0.62645  0.20287  0.13562     N
H        0.629   0.7328    0.094     H
N      0.63704  0.28092   0.9295     N
C      0.64556  0.80439   0.0943     C
N      0.64565  0.06149  0.85439     N
N      0.65217  0.98139  0.06325     N
N      0.68546  0.29543  0.27208     N
H        0.698   0.4756   0.6383     H
H       0.7055   0.5125   0.3372     H
N      0.70767  0.41916  0.84302     N
H         0.71    0.779    0.351     H
N       0.7159  0.98008  0.71979     N
C      0.71868  0.26095  0.17681     C
C      0.71979  0.30933  0.86298     C
H        0.725    0.767   0.6709     H
N      0.73745  0.85146  0.15673     N
C      0.73772  0.00131  0.82316     C
C      0.73917  0.96169  0.13546     C
C      0.76083  0.46169  0.36454     C
C      0.76228  0.50131  0.67684     C
N      0.76255  0.35146  0.34327     N
H        0.775    0.267   0.8291     H
C      0.78021  0.80933  0.63702     C
C      0.78132  0.76095  0.32319     C
N       0.7841  0.48008  0.78021     N
H         0.79    0.279    0.149     H
N      0.79233  0.91916  0.65698     N
H       0.7945   0.0125   0.1628     H
H        0.802   0.9756   0.8617     H
N      0.81454  0.79543  0.22792     N
N      0.84783  0.48139  0.43675     N
N      0.85435  0.56149  0.64561     N
C      0.85444  0.30439   0.4057     C
N      0.86296  0.78092   0.5705     N
H        0.871   0.2328    0.406     H
N      0.87355  0.70287  0.36438     N
Cu     0.87773  0.62979  0.50485    Cu
C      0.88797  0.95644  0.59742     C
C       0.8958  0.53112  0.80954     C
N       0.9081  0.38147   0.4634     N
H        0.911    0.027   0.5968     H
C      0.93136  0.75456  0.21278     C
N      0.93245  0.87431  0.54454     N
H        0.933   0.5277   0.8788     H
N      0.94014  0.58116  0.72918     N
N      0.96956  0.69792   0.2947     N
H        0.973    0.767   0.1524     H
