data_I
_chemical_name_common  '/home/zhangsd/repos/MofS-CGCNN/ML/data/SSD/clean_cifs/AHOJUC_clean'
_cell_length_a  9.24300
_cell_length_b  8.81700
_cell_length_c  9.68400
_cell_angle_alpha 90.00000
_cell_angle_beta  120.92000
_cell_angle_gamma 90.00000
_space_group_name_H-M_alt      'P 1'


loop_
_space_group_symop_operation_xyz
  'x, y, z' 

loop_
_atom_site_label
_atom_site_fract_x
_atom_site_fract_y
_atom_site_fract_z
_atom_site_type_symbol
V          0.0   0.3927     0.25     V
V          0.0   0.6073     0.75     V
O        0.136    0.399    0.155     O
O        0.136    0.601    0.655     O
O        0.137    0.232    0.395     O
O        0.137    0.768    0.895     O
O        0.152    0.448    0.895     O
O        0.152    0.552    0.395     O
P       0.1674   0.3329   0.0272     P
P       0.1674   0.6671   0.5272     P
P       0.2576   0.1017   0.4265     P
P       0.2576   0.8983   0.9265     P
O        0.346    0.257     0.09     O
O        0.346    0.743     0.59     O
O        0.356    0.058    0.604     O
O        0.356    0.942    0.104     O
O        0.369    0.115    0.361     O
O        0.369    0.885    0.861     O
V          0.5   0.1104     0.25     V
V          0.5   0.8896     0.75     V
O        0.631    0.115    0.139     O
O        0.631    0.885    0.639     O
O        0.644    0.058    0.896     O
O        0.644    0.942    0.396     O
O        0.654    0.257     0.41     O
O        0.654    0.743     0.91     O
P       0.7424   0.1017   0.0735     P
P       0.7424   0.8983   0.5735     P
P       0.8326   0.3329   0.4728     P
P       0.8326   0.6671   0.9728     P
O        0.848    0.448    0.605     O
O        0.848    0.552    0.105     O
O        0.863    0.232    0.105     O
O        0.863    0.768    0.605     O
O        0.864    0.399    0.345     O
O        0.864    0.601    0.845     O
