data_I
_chemical_name_common  '/home/zhangsd/repos/MofS-CGCNN/ML/data/SSD/clean_cifs/AHOKOX_clean'
_cell_length_a 22.37730
_cell_length_b  6.76330
_cell_length_c  4.35290
_cell_angle_alpha 90.00000
_cell_angle_beta  90.00000
_cell_angle_gamma 90.00000
_space_group_name_H-M_alt      'P 1'


loop_
_space_group_symop_operation_xyz
  'x, y, z' 

loop_
_atom_site_label
_atom_site_fract_x
_atom_site_fract_y
_atom_site_fract_z
_atom_site_type_symbol
Cu         0.0      0.0      0.0    Cu
Cu         0.0      0.5      0.0    Cu
O       0.0186     0.75   0.2368     O
O       0.0596   0.5637   0.6905     O
O       0.0596   0.9363   0.6905     O
P       0.0666     0.75   0.4999     P
C       0.1388     0.75    0.308     C
C       0.1932     0.75    0.544     C
C         0.25     0.75    0.366     C
C       0.3068     0.75    0.544     C
C       0.3612     0.75    0.308     C
P       0.4334     0.75   0.4999     P
O       0.4404   0.5637   0.6905     O
O       0.4404   0.9363   0.6905     O
O       0.4814     0.75   0.2368     O
Cu         0.5      0.0      0.0    Cu
Cu         0.5      0.5      0.0    Cu
O       0.5186     0.25   0.7632     O
O       0.5596   0.0637   0.3095     O
O       0.5596   0.4363   0.3095     O
P       0.5666     0.25   0.5001     P
C       0.6388     0.25    0.692     C
C       0.6932     0.25    0.456     C
C         0.75     0.25    0.634     C
C       0.8068     0.25    0.456     C
C       0.8612     0.25    0.692     C
P       0.9334     0.25   0.5001     P
O       0.9404   0.0637   0.3095     O
O       0.9404   0.4363   0.3095     O
O       0.9814     0.25   0.7632     O
