data_I
_chemical_name_common  '/home/zhangsd/repos/MofS-CGCNN/ML/data/SSD/clean_cifs/AHOKAJ_clean'
_cell_length_a  9.24700
_cell_length_b  8.82400
_cell_length_c  9.69300
_cell_angle_alpha 90.00000
_cell_angle_beta  120.72000
_cell_angle_gamma 90.00000
_space_group_name_H-M_alt      'P 1'


loop_
_space_group_symop_operation_xyz
  'x, y, z' 

loop_
_atom_site_label
_atom_site_fract_x
_atom_site_fract_y
_atom_site_fract_z
_atom_site_type_symbol
Fe         0.0   0.3904     0.25    Fe
Fe         0.0   0.6096     0.75    Fe
O        0.138     0.23    0.401     O
O        0.138     0.77    0.901     O
O        0.143    0.404    0.158     O
O        0.143    0.596    0.658     O
O        0.149    0.444    0.895     O
O        0.149    0.556    0.395     O
P       0.1647   0.3324   0.0269     P
P       0.1647   0.6676   0.5269     P
P       0.2632   0.1025   0.4315     P
P       0.2632   0.8975   0.9315     P
O        0.332    0.265    0.086     O
O        0.332    0.735    0.586     O
O        0.347    0.059    0.607     O
O        0.347    0.941    0.107     O
O        0.374    0.118    0.368     O
O        0.374    0.882    0.868     O
Fe         0.5   0.1123     0.25    Fe
Fe         0.5   0.8877     0.75    Fe
O        0.626    0.118    0.132     O
O        0.626    0.882    0.632     O
O        0.653    0.059    0.893     O
O        0.653    0.941    0.393     O
O        0.668    0.265    0.414     O
O        0.668    0.735    0.914     O
P       0.7368   0.1025   0.0685     P
P       0.7368   0.8975   0.5685     P
P       0.8353   0.3324   0.4731     P
P       0.8353   0.6676   0.9731     P
O        0.851    0.444    0.605     O
O        0.851    0.556    0.105     O
O        0.857    0.404    0.342     O
O        0.857    0.596    0.842     O
O        0.862     0.23    0.099     O
O        0.862     0.77    0.599     O
