data_I
_chemical_name_common  '/home/zhangsd/repos/MofS-CGCNN/ML/data/SSD/clean_cifs/AKEDIF_clean'
_cell_length_a 31.32560
_cell_length_b  5.88880
_cell_length_c 20.44850
_cell_angle_alpha 90.00000
_cell_angle_beta  102.22900
_cell_angle_gamma 90.00000
_space_group_name_H-M_alt      'P 1'


loop_
_space_group_symop_operation_xyz
  'x, y, z' 

loop_
_atom_site_label
_atom_site_fract_x
_atom_site_fract_y
_atom_site_fract_z
_atom_site_type_symbol
Zn         0.0  0.17886     0.75    Zn
Zn         0.0  0.82114     0.25    Zn
O      0.00256   0.3884  0.67641     O
O      0.00256   0.6116  0.17641     O
C      0.00669    0.395  0.56213     C
C      0.00669    0.605  0.06213     C
C       0.0123   0.3916  0.44658     C
C       0.0123   0.6084  0.94658     C
C       0.0129   0.2755  0.62837     C
C       0.0129   0.7245  0.12837     C
C      0.01912   0.2874  0.50852     C
C      0.01912   0.7126  0.00852     C
H       0.0206   0.3169     0.41     H
H       0.0206   0.6831     0.91     H
O       0.0261   0.0777  0.63404     O
O       0.0261   0.9223  0.13404     O
H       0.0324   0.1416   0.5145     H
H       0.0324   0.8584   0.0145     H
H       0.0404   0.2605   0.2218     H
H       0.0404   0.7395   0.7218     H
N        0.052   0.0196   0.2907     N
N        0.052   0.9804   0.7907     N
C      0.05945   0.2167  0.26242     C
C      0.05945   0.7833  0.76242     C
H       0.0745   0.1797   0.8688     H
H       0.0745   0.8203   0.3688     H
C      0.07929   0.0401  0.84823     C
C      0.07929   0.9599  0.34823     C
C      0.09349   0.3587  0.28971     C
C      0.09349   0.6413  0.78971     C
H       0.0978   0.4964   0.2677     H
H       0.0978   0.5036   0.7677     H
C      0.11384   0.0938  0.37825     C
C      0.11384   0.9062  0.87825     C
C      0.12161   0.3003  0.34952     C
C      0.12161   0.6997  0.84952     C
H       0.1325   0.0455   0.4187     H
H       0.1325   0.9545   0.9187     H
C      0.15707   0.4574  0.37818     C
C      0.15707   0.5426  0.87818     C
H       0.1627   0.4203   0.8509     H
H       0.1627   0.5797   0.3509     H
H       0.1763   0.3167   0.4647     H
H       0.1763   0.6833   0.9647     H
C      0.18149   0.4422  0.43823     C
C      0.18149   0.5578  0.93823     C
H        0.208   0.1617   0.8945     H
H        0.208   0.8383   0.3945     H
C      0.21663   0.3978  0.96915     C
C      0.21663   0.6022  0.46915     C
C      0.22507   0.1982  0.93738     C
C      0.22507   0.8018  0.43738     C
H       0.2361   0.4167   0.5541     H
H       0.2361   0.5833   0.0541     H
C      0.24163   0.4482  0.03186     C
C      0.24163   0.5518  0.53186     C
C      0.25837   0.0518  0.96814     C
C      0.25837   0.9482  0.46814     C
H       0.2639   0.0833   0.4459     H
H       0.2639   0.9167   0.9459     H
C      0.27493   0.3018  0.06262     C
C      0.27493   0.6982  0.56262     C
C      0.28337   0.1022  0.03085     C
C      0.28337   0.8978  0.53085     C
H        0.292   0.3383   0.1055     H
H        0.292   0.6617   0.6055     H
C      0.31851   0.0578  0.56177     C
C      0.31851   0.9422  0.06177     C
H       0.3237   0.1833   0.5353     H
H       0.3237   0.8167   0.0353     H
H       0.3373   0.0797   0.1491     H
H       0.3373   0.9203   0.6491     H
C      0.34293   0.0426  0.62182     C
C      0.34293   0.9574  0.12182     C
H       0.3675   0.4545   0.5813     H
H       0.3675   0.5455   0.0813     H
C      0.37839   0.1997  0.65048     C
C      0.37839   0.8003  0.15048     C
C      0.38616   0.4062  0.62175     C
C      0.38616   0.5938  0.12175     C
H       0.4022   0.0036   0.7323     H
H       0.4022   0.9964   0.2323     H
C      0.40651   0.1413  0.71029     C
C      0.40651   0.8587  0.21029     C
C      0.42071   0.4599  0.15177     C
C      0.42071   0.5401  0.65177     C
H       0.4255   0.3203   0.1312     H
H       0.4255   0.6797   0.6312     H
C      0.44055   0.2833  0.73758     C
C      0.44055   0.7167  0.23758     C
N        0.448   0.4804   0.7093     N
N        0.448   0.5196   0.2093     N
H       0.4596   0.2395   0.7782     H
H       0.4596   0.7605   0.2782     H
H       0.4676   0.3584   0.4855     H
H       0.4676   0.6416   0.9855     H
O       0.4739   0.4223  0.36596     O
O       0.4739   0.5777  0.86596     O
H       0.4794   0.1831     0.59     H
H       0.4794   0.8169     0.09     H
C      0.48088   0.2126  0.49148     C
C      0.48088   0.7874  0.99148     C
C       0.4871   0.2245  0.37163     C
C       0.4871   0.7755  0.87163     C
C       0.4877   0.1084  0.55342     C
C       0.4877   0.8916  0.05342     C
C      0.49331    0.105  0.43787     C
C      0.49331    0.895  0.93787     C
O      0.49744   0.1116  0.32359     O
O      0.49744   0.8884  0.82359     O
Zn         0.5  0.32114     0.25    Zn
Zn         0.5  0.67886     0.75    Zn
O      0.50256   0.1116  0.17641     O
O      0.50256   0.8884  0.67641     O
C      0.50669    0.105  0.06213     C
C      0.50669    0.895  0.56213     C
C       0.5123   0.1084  0.94658     C
C       0.5123   0.8916  0.44658     C
C       0.5129   0.2245  0.12837     C
C       0.5129   0.7755  0.62837     C
C      0.51912   0.2126  0.00852     C
C      0.51912   0.7874  0.50852     C
H       0.5206   0.1831     0.91     H
H       0.5206   0.8169     0.41     H
O       0.5261   0.4223  0.13404     O
O       0.5261   0.5777  0.63404     O
H       0.5324   0.3584   0.0145     H
H       0.5324   0.6416   0.5145     H
H       0.5404   0.2395   0.7218     H
H       0.5404   0.7605   0.2218     H
N        0.552   0.4804   0.7907     N
N        0.552   0.5196   0.2907     N
C      0.55945   0.2833  0.76242     C
C      0.55945   0.7167  0.26242     C
H       0.5745   0.3203   0.3688     H
H       0.5745   0.6797   0.8688     H
C      0.57929   0.4599  0.34823     C
C      0.57929   0.5401  0.84823     C
C      0.59349   0.1413  0.78971     C
C      0.59349   0.8587  0.28971     C
H       0.5978   0.0036   0.7677     H
H       0.5978   0.9964   0.2677     H
C      0.61384   0.4062  0.87825     C
C      0.61384   0.5938  0.37825     C
C      0.62161   0.1997  0.84952     C
C      0.62161   0.8003  0.34952     C
H       0.6325   0.4545   0.9187     H
H       0.6325   0.5455   0.4187     H
C      0.65707   0.0426  0.87818     C
C      0.65707   0.9574  0.37818     C
H       0.6627   0.0797   0.3509     H
H       0.6627   0.9203   0.8509     H
H       0.6763   0.1833   0.9647     H
H       0.6763   0.8167   0.4647     H
C      0.68149   0.0578  0.93823     C
C      0.68149   0.9422  0.43823     C
H        0.708   0.3383   0.3945     H
H        0.708   0.6617   0.8945     H
C      0.71663   0.1022  0.46915     C
C      0.71663   0.8978  0.96915     C
C      0.72507   0.3018  0.43738     C
C      0.72507   0.6982  0.93738     C
H       0.7361   0.0833   0.0541     H
H       0.7361   0.9167   0.5541     H
C      0.74163   0.0518  0.53186     C
C      0.74163   0.9482  0.03186     C
C      0.75837   0.4482  0.46814     C
C      0.75837   0.5518  0.96814     C
H       0.7639   0.4167   0.9459     H
H       0.7639   0.5833   0.4459     H
C      0.77493   0.1982  0.56262     C
C      0.77493   0.8018  0.06262     C
C      0.78337   0.3978  0.53085     C
C      0.78337   0.6022  0.03085     C
H        0.792   0.1617   0.6055     H
H        0.792   0.8383   0.1055     H
C      0.81851   0.4422  0.06177     C
C      0.81851   0.5578  0.56177     C
H       0.8237   0.3167   0.0353     H
H       0.8237   0.6833   0.5353     H
H       0.8373   0.4203   0.6491     H
H       0.8373   0.5797   0.1491     H
C      0.84293   0.4574  0.12182     C
C      0.84293   0.5426  0.62182     C
H       0.8675   0.0455   0.0813     H
H       0.8675   0.9545   0.5813     H
C      0.87839   0.3003  0.15048     C
C      0.87839   0.6997  0.65048     C
C      0.88616   0.0938  0.12175     C
C      0.88616   0.9062  0.62175     C
H       0.9022   0.4964   0.2323     H
H       0.9022   0.5036   0.7323     H
C      0.90651   0.3587  0.21029     C
C      0.90651   0.6413  0.71029     C
C      0.92071   0.0401  0.65177     C
C      0.92071   0.9599  0.15177     C
H       0.9255   0.1797   0.6312     H
H       0.9255   0.8203   0.1312     H
C      0.94055   0.2167  0.23758     C
C      0.94055   0.7833  0.73758     C
N        0.948   0.0196   0.2093     N
N        0.948   0.9804   0.7093     N
H       0.9596   0.2605   0.2782     H
H       0.9596   0.7395   0.7782     H
H       0.9676   0.1416   0.9855     H
H       0.9676   0.8584   0.4855     H
O       0.9739   0.0777  0.86596     O
O       0.9739   0.9223  0.36596     O
H       0.9794   0.3169     0.09     H
H       0.9794   0.6831     0.59     H
C      0.98088   0.2874  0.99148     C
C      0.98088   0.7126  0.49148     C
C       0.9871   0.2755  0.87163     C
C       0.9871   0.7245  0.37163     C
C       0.9877   0.3916  0.05342     C
C       0.9877   0.6084  0.55342     C
C      0.99331    0.395  0.93787     C
C      0.99331    0.605  0.43787     C
O      0.99744   0.3884  0.82359     O
O      0.99744   0.6116  0.32359     O
