data_I
_chemical_name_common  '/home/zhangsd/repos/MofS-CGCNN/ML/data/SSD/clean_cifs/ALIXUP_clean'
_cell_length_a  8.13870
_cell_length_b 18.46090
_cell_length_c 18.65530
_cell_angle_alpha 90.00000
_cell_angle_beta  90.00000
_cell_angle_gamma 90.00000
_space_group_name_H-M_alt      'P 1'


loop_
_space_group_symop_operation_xyz
  'x, y, z' 

loop_
_atom_site_label
_atom_site_fract_x
_atom_site_fract_y
_atom_site_fract_z
_atom_site_type_symbol
Cu         0.0      0.0      0.0    Cu
Cu         0.0      0.5      0.5    Cu
H        0.005    0.554    0.371     H
H        0.005    0.946    0.129     H
C       0.0402     0.25     0.25     C
O       0.0533  0.55719  0.41685     O
O       0.0533  0.94281  0.08315     O
C       0.0624   0.7394  0.81694     C
C       0.0624   0.7606  0.68306     C
H        0.077   0.6304   0.8097     H
H        0.077   0.8696   0.6903     H
H       0.0832   0.6554   0.6555     H
H       0.0832   0.8446   0.8445     H
C       0.1083   0.6699  0.83741     C
C       0.1083   0.8301  0.66259     C
H       0.1105   0.2081   0.2435     H
H       0.1105   0.2919   0.2565     H
C       0.1109   0.7021   0.6414     C
C       0.1109   0.7979   0.8586     C
O       0.1513  0.07776  0.02771     O
O       0.1513  0.42224  0.47229     O
O       0.1922  0.53271  0.88477     O
O       0.1922  0.96729  0.61523     O
H       0.1942   0.2104   0.0167     H
H       0.1942   0.2896   0.4833     H
C        0.201    0.659   0.8993     C
C        0.201    0.841   0.6007     C
C       0.2011   0.7128  0.57847     C
C       0.2011   0.7872  0.92153     C
Cu     0.20933  0.06924  0.58564    Cu
Cu     0.20933  0.43076  0.91436    Cu
O       0.2273  0.16322  0.53457     O
O       0.2273  0.33678  0.96543     O
C       0.2456   0.6496    0.532     C
C       0.2456   0.8504    0.968     C
C       0.2458   0.7178   0.9415     C
C       0.2458   0.7822   0.5585     C
O       0.2475  0.08743  0.44293     O
O       0.2475  0.41257  0.05707     O
C       0.2498   0.5836   0.9202     C
C       0.2498   0.9164   0.5798     C
C       0.2502   0.0836   0.0798     C
C       0.2502   0.4164   0.4202     C
O       0.2525  0.58743  0.55707     O
O       0.2525  0.91257  0.94293     O
C       0.2542   0.2178   0.0585     C
C       0.2542   0.2822   0.4415     C
C       0.2544   0.1496    0.468     C
C       0.2544   0.3504    0.032     C
O       0.2727  0.66322  0.46543     O
O       0.2727  0.83678  0.03457     O
Cu     0.29067  0.56924  0.41436    Cu
Cu     0.29067  0.93076  0.08564    Cu
C       0.2989   0.2128  0.42153     C
C       0.2989   0.2872  0.07847     C
C        0.299    0.159   0.1007     C
C        0.299    0.341   0.3993     C
H       0.3058   0.7104   0.9833     H
H       0.3058   0.7896   0.5167     H
O       0.3078  0.03271  0.11523     O
O       0.3078  0.46729  0.38477     O
O       0.3487  0.57776  0.97229     O
O       0.3487  0.92224  0.52771     O
C       0.3891   0.2021   0.3586     C
C       0.3891   0.2979   0.1414     C
H       0.3895   0.7081   0.7565     H
H       0.3895   0.7919   0.7435     H
C       0.3917   0.1699  0.16259     C
C       0.3917   0.3301  0.33741     C
H       0.4168   0.1554   0.3445     H
H       0.4168   0.3446   0.1555     H
H        0.423   0.1304   0.1903     H
H        0.423   0.3696   0.3097     H
C       0.4376   0.2394  0.18306     C
C       0.4376   0.2606  0.31694     C
O       0.4467  0.05719  0.58315     O
O       0.4467  0.44281  0.91685     O
C       0.4598     0.75     0.75     C
H        0.495    0.054    0.629     H
H        0.495    0.446    0.871     H
Cu         0.5      0.0      0.5    Cu
Cu         0.5      0.5      0.0    Cu
H        0.505    0.554    0.129     H
H        0.505    0.946    0.371     H
C       0.5402     0.25     0.25     C
O       0.5533  0.55719  0.08315     O
O       0.5533  0.94281  0.41685     O
C       0.5624   0.7394  0.68306     C
C       0.5624   0.7606  0.81694     C
H        0.577   0.6304   0.6903     H
H        0.577   0.8696   0.8097     H
H       0.5832   0.6554   0.8445     H
H       0.5832   0.8446   0.6555     H
C       0.6083   0.6699  0.66259     C
C       0.6083   0.8301  0.83741     C
H       0.6105   0.2081   0.2565     H
H       0.6105   0.2919   0.2435     H
C       0.6109   0.7021   0.8586     C
C       0.6109   0.7979   0.6414     C
O       0.6513  0.07776  0.47229     O
O       0.6513  0.42224  0.02771     O
O       0.6922  0.53271  0.61523     O
O       0.6922  0.96729  0.88477     O
H       0.6942   0.2104   0.4833     H
H       0.6942   0.2896   0.0167     H
C        0.701    0.659   0.6007     C
C        0.701    0.841   0.8993     C
C       0.7011   0.7128  0.92153     C
C       0.7011   0.7872  0.57847     C
Cu     0.70933  0.06924  0.91436    Cu
Cu     0.70933  0.43076  0.58564    Cu
O       0.7273  0.16322  0.96543     O
O       0.7273  0.33678  0.53457     O
C       0.7456   0.6496    0.968     C
C       0.7456   0.8504    0.532     C
C       0.7458   0.7178   0.5585     C
C       0.7458   0.7822   0.9415     C
O       0.7475  0.08743  0.05707     O
O       0.7475  0.41257  0.44293     O
C       0.7498   0.5836   0.5798     C
C       0.7498   0.9164   0.9202     C
C       0.7502   0.0836   0.4202     C
C       0.7502   0.4164   0.0798     C
O       0.7525  0.58743  0.94293     O
O       0.7525  0.91257  0.55707     O
C       0.7542   0.2178   0.4415     C
C       0.7542   0.2822   0.0585     C
C       0.7544   0.1496    0.032     C
C       0.7544   0.3504    0.468     C
O       0.7727  0.66322  0.03457     O
O       0.7727  0.83678  0.46543     O
Cu     0.79067  0.56924  0.08564    Cu
Cu     0.79067  0.93076  0.41436    Cu
C       0.7989   0.2128  0.07847     C
C       0.7989   0.2872  0.42153     C
C        0.799    0.159   0.3993     C
C        0.799    0.341   0.1007     C
H       0.8058   0.7104   0.5167     H
H       0.8058   0.7896   0.9833     H
O       0.8078  0.03271  0.38477     O
O       0.8078  0.46729  0.11523     O
O       0.8487  0.57776  0.52771     O
O       0.8487  0.92224  0.97229     O
C       0.8891   0.2021   0.1414     C
C       0.8891   0.2979   0.3586     C
H       0.8895   0.7081   0.7435     H
H       0.8895   0.7919   0.7565     H
C       0.8917   0.1699  0.33741     C
C       0.8917   0.3301  0.16259     C
H       0.9168   0.1554   0.1555     H
H       0.9168   0.3446   0.3445     H
H        0.923   0.1304   0.3097     H
H        0.923   0.3696   0.1903     H
C       0.9376   0.2394  0.31694     C
C       0.9376   0.2606  0.18306     C
O       0.9467  0.05719  0.91685     O
O       0.9467  0.44281  0.58315     O
C       0.9598     0.75     0.75     C
H        0.995    0.054    0.871     H
H        0.995    0.446    0.629     H
