data_I
_chemical_name_common  '/home/zhangsd/repos/MofS-CGCNN/ML/data/SSD/clean_cifs/AMIMAL_clean'
_cell_length_a 12.25270
_cell_length_b 24.71840
_cell_length_c 31.25150
_cell_angle_alpha 90.00000
_cell_angle_beta  90.00000
_cell_angle_gamma 97.02300
_space_group_name_H-M_alt      'P 1'


loop_
_space_group_symop_operation_xyz
  'x, y, z' 

loop_
_atom_site_label
_atom_site_fract_x
_atom_site_fract_y
_atom_site_fract_z
_atom_site_type_symbol
C      0.00129  0.30263  0.61018     C
C       0.0027  0.78537  0.08689     C
O      0.00796  0.17597  0.75622     O
H       0.0087   0.3481   0.3291     H
C      0.01073  0.85803  0.98237     C
H       0.0136   0.1329   0.2636     H
H       0.0155   0.6555   0.7474     H
C      0.01674  0.64867  0.50216     C
H       0.0189   0.8626   0.8121     H
O       0.0196  0.36235  0.75934     O
C      0.02383  0.15967  0.97766     C
H       0.0271   0.1162   0.0322     H
C      0.02931  0.31658   0.5672     C
C      0.03306   0.8024  0.04487     C
C       0.0333  0.73706  0.15482     C
H       0.0345   0.2985   0.2253     H
H       0.0375   0.4008   0.6512     H
H       0.0416   0.8875   0.1288     H
H       0.0417   0.9221   0.2681     H
C      0.04196  0.48358  0.64139     C
H       0.0425   0.8279   0.7046     H
O      0.04484  0.71808  0.30361     O
C      0.04608  0.96972  0.14195     C
C      0.04651  0.66287  0.46094     C
O       0.0467  0.24177  0.82983     O
C      0.04727  0.32294  0.25039     C
C      0.05004  0.27496  0.68388     C
N      0.05232  0.28976  0.28943     N
C      0.05375  0.84962  0.73121     C
H       0.0594    0.202      0.9     H
O      0.06001  0.38829  0.41619     O
C      0.06209  0.75066  0.10902     C
H       0.0626   0.0211   0.2884     H
H       0.0654   0.4623   0.7476     H
H       0.0684   0.6353   0.5208     H
N      0.07033  0.81313  0.76705     N
H       0.0709   0.6944   0.3798     H
C      0.07136  0.32654  0.32623     C
H       0.0751   0.3047   0.3526     H
C      0.07546  0.03037  0.85436     C
C      0.07753   0.2849  0.63745     C
C      0.07952   0.5152  0.35641     C
H       0.0799   0.5641   0.6293     H
H       0.0843   0.0503   0.1526     H
H       0.0849   0.5612   0.7295     H
C      0.08567  0.43362  0.64777     C
H        0.086   0.1465    0.965     H
C      0.08616  0.84544  0.80613     C
Zn     0.08961  0.70653  0.24093    Zn
C      0.08965  0.92028  0.13268     C
C       0.0907  0.34609  0.48308     C
O      0.09153  0.70685  0.17506     O
C       0.0955  0.82659  0.24231     C
H        0.097   0.9424   0.7702     H
H        0.098   0.8211   0.8304     H
C      0.10196   0.8383  0.96267     C
O        0.105  0.90329  0.90679     O
H       0.1063   0.4184   0.2833     H
C      0.11031  0.53121  0.63445     C
O      0.11167  0.98867  0.83907     O
Zn      0.1121  0.24623  0.77089    Zn
C      0.11467  0.01746  0.14683     C
O      0.11478  0.47135  0.34622     O
C      0.11735  0.92578  0.26053     C
H       0.1185   0.6589   0.4512     H
C      0.11986   0.3655  0.76978     C
C      0.12456   0.7821  0.02508     C
C      0.12519  0.36594  0.43917     C
O      0.12621  0.26145  0.70722     O
H        0.132   0.2325   0.2611     H
O      0.13425  0.07274  0.86652     O
C       0.1372  0.02421  0.27948     C
C      0.13723  0.31107   0.5523     C
O      0.13905  0.55984  0.36324     O
C      0.14091  0.46583   0.7553     C
C      0.14465  0.25775  0.28567     C
C      0.14544  0.86102  0.92029     C
N      0.14769   0.8923  0.72531     N
H       0.1491   0.2356   0.3119     H
O      0.14917  0.78632  0.23779     O
N      0.14936  0.36012  0.24385     N
C      0.15293  0.73015  0.08906     C
H       0.1533   0.6105   0.2907     H
C       0.1557  0.80023  0.98324     C
H       0.1584    0.765   0.7321     H
C      0.16016  0.56419  0.73752     C
H       0.1624   0.1446   0.8136     H
C       0.1631  0.92408  0.76484     C
C      0.16313   0.8812  0.24601     C
C      0.16534  0.32606  0.50966     C
C      0.16765  0.39597   0.2809     C
C      0.16921  0.78707  0.75852     C
H       0.1699   0.1049   0.2911     H
O      0.16993  0.32619  0.78043     O
N      0.17572  0.36462  0.32164     N
H       0.1816   0.7623   0.7824     H
C      0.18202  0.97755  0.26433     C
N      0.18274  0.88902   0.8026     N
C      0.18293  0.74517  0.04824     C
C      0.18495  0.27905  0.62238     C
C      0.18659  0.42099  0.76887     C
H       0.1899   0.6058   0.2137     H
H       0.1903   0.1475    0.736     H
H       0.1927   0.6445   0.7243     H
H       0.1931   0.7058   0.1042     H
C      0.19712  0.43273  0.64894     C
C      0.20094  0.92009  0.12936     C
C      0.20108  0.07375  0.28137     C
Zn      0.2014  0.93385  0.86117    Zn
Zn     0.20304  0.41896  0.37616    Zn
H       0.2049   0.6625   0.3178     H
C      0.20507  0.51772  0.75258     C
C       0.2138  0.29185  0.58106     C
H       0.2141   0.2121   0.0714     H
H       0.2146   0.7858   0.9693     H
C      0.21818  0.63835   0.2935     C
O       0.2185  0.84044  0.90091     O
O       0.2223  0.36244  0.42671     O
C      0.22409  0.61356  0.73434     C
C      0.22599  0.53127  0.63499     C
H        0.226   0.3993   0.6535     H
H       0.2266   0.1907   0.8434     H
H       0.2266   0.9526   0.7614     H
H       0.2292   0.3037    0.215     H
H       0.2297    0.887   0.1232     H
C      0.23038  0.01853  0.14342     C
N      0.23164  0.67118  0.25343     N
C      0.23222   0.1689  0.81708     C
H       0.2364   0.4209   0.2767     H
H       0.2366   0.8447   0.6905     H
H       0.2369   0.3222   0.4993     H
H        0.237   0.2662   0.6412     H
C      0.24058  0.32785   0.2403     C
H       0.2433   0.7309   0.0352     H
C      0.24615  0.86596  0.71732     C
N      0.24873  0.20623  0.77953     N
N      0.25127  0.29377  0.27953     N
C      0.25385  0.63404  0.21732     C
H       0.2567   0.7691   0.5352     H
C      0.25942  0.17215   0.7403     C
H        0.263   0.2338   0.1412     H
H       0.2631   0.1778   0.9993     H
H       0.2634   0.6553   0.1905     H
H       0.2636   0.0791   0.7767     H
C      0.26778   0.3311  0.31708     C
N      0.26836  0.82882  0.75343     N
C      0.26962  0.48147  0.64342     C
H       0.2703    0.613   0.6232     H
H       0.2708   0.1963    0.715     H
H       0.2734   0.3093   0.3434     H
H       0.2734   0.5474   0.2614     H
H        0.274   0.1007   0.1535     H
C      0.27401  0.96873  0.13499     C
C      0.27591  0.88644  0.23434     C
O       0.2777  0.13756  0.92671     O
O       0.2815  0.65956  0.40091     O
C      0.28182  0.86165   0.7935     C
H       0.2854   0.7142   0.4693     H
H       0.2859   0.2879   0.5714     H
C       0.2862  0.20815  0.08106     C
C      0.29493  0.98228  0.25258     C
H       0.2951   0.8375   0.8178     H
Zn     0.29696  0.08104  0.87616    Zn
Zn      0.2986  0.56615  0.36117    Zn
C      0.29892  0.42625  0.78137     C
C      0.29906  0.57991  0.62936     C
C      0.30288  0.06727  0.14894     C
H       0.3069   0.7942   0.6042     H
H       0.3073   0.8555   0.2243     H
H       0.3097   0.3525    0.236     H
H       0.3101   0.8942   0.7137     H
C      0.31341  0.07901  0.26887     C
C      0.31505  0.22095  0.12238     C
C      0.31707  0.75483  0.54824     C
N      0.31726  0.61098   0.3026     N
C      0.31798  0.52245  0.76433     C
H       0.3184   0.7377   0.2824     H
N      0.32428  0.13538  0.82164     N
O      0.33007  0.17381  0.28043     O
H       0.3301   0.3951   0.7911     H
C      0.33079  0.71293  0.25852     C
C      0.33235  0.10403   0.7809     C
C      0.33466  0.17394  0.00966     C
C      0.33687   0.6188  0.74601     C
C       0.3369  0.57592  0.26484     C
H       0.3376   0.3554   0.3136     H
C      0.33984  0.93581  0.23752     C
H       0.3416    0.735   0.2321     H
C       0.3443  0.69977  0.48324     C
H       0.3467   0.8895   0.7907     H
C      0.34707  0.76985  0.58906     C
N      0.35064  0.13988  0.74385     N
O      0.35083  0.71368  0.73779     O
H       0.3509   0.2644   0.8119     H
N      0.35231   0.6077  0.22531     N
C      0.35456  0.63898  0.42029     C
C      0.35535  0.24225  0.78567     C
C      0.35909  0.03417   0.2553     C
O      0.36095  0.94016  0.86324     O
C      0.36277  0.18893   0.0523     C
C       0.3628  0.47579  0.77948     C
O      0.36575  0.42726  0.36652     O
H        0.368   0.2675   0.7611     H
O      0.37379  0.23855  0.20722     O
C      0.37481  0.13406  0.93917     C
C      0.37544   0.7179  0.52508     C
C      0.38014   0.1345  0.26978     C
H       0.3815   0.8411   0.9512     H
C      0.38265  0.57422  0.76053     C
O      0.38522  0.02865  0.84622     O
C      0.38533  0.48254  0.64683     C
Zn      0.3879  0.25377  0.27089    Zn
O      0.38833  0.51133  0.33907     O
C      0.38969  0.96879  0.13445     C
H       0.3937   0.0816   0.7833     H
O        0.395  0.59671  0.40679     O
C      0.39804   0.6617  0.46267     C
H        0.402   0.6789   0.3304     H
H        0.403   0.5576   0.2702     H
C       0.4045  0.67341  0.74231     C
O      0.40847  0.79315  0.67506     O
C       0.4093  0.15391  0.98308     C
C      0.41035  0.57972  0.63268     C
Zn     0.41039  0.79347  0.74093    Zn
C      0.41384  0.65456  0.30613     C
H        0.414   0.3535    0.465     H
C      0.41433  0.06638  0.14777     C
H       0.4151   0.9388   0.2295     H
H       0.4157   0.4497   0.6526     H
H       0.4201   0.9359   0.1293     H
C      0.42048   0.9848  0.85641     C
C      0.42247   0.2151  0.13745     C
C      0.42454  0.46963  0.35436     C
H       0.4249   0.1953   0.8526     H
C      0.42864  0.17346  0.82623     C
H       0.4291   0.8056   0.8798     H
N      0.42967  0.68687  0.26705     N
H       0.4316   0.8647   0.0208     H
H       0.4346   0.0377   0.2476     H
H       0.4374   0.4789   0.7884     H
C      0.43791  0.74934  0.60902     C
O      0.43999  0.11171  0.91619     O
H       0.4406    0.298      0.4     H
C      0.44625  0.65038  0.23121     C
N      0.44768  0.21024  0.78943     N
C      0.44996  0.22504  0.18388     C
C      0.45273  0.17706  0.75039     C
O       0.4533  0.25823  0.32983     O
C      0.45349  0.83713  0.96094     C
C      0.45392  0.53028  0.64195     C
O      0.45516  0.78192  0.80361     O
H       0.4575   0.6721   0.2046     H
C      0.45804  0.01642  0.14139     C
H       0.4583   0.5779   0.7681     H
H       0.4584   0.6125   0.6288     H
H       0.4625   0.0992   0.1512     H
H       0.4655   0.2015   0.7253     H
C       0.4667  0.76294  0.65482     C
C      0.46694   0.6976  0.54487     C
C      0.47069  0.18342   0.0672     C
H       0.4729   0.3838   0.5322     H
C      0.47617  0.34033  0.47766     C
O       0.4804  0.13765  0.25934     O
H       0.4811   0.6374   0.3121     H
C      0.48326  0.85133  0.00216     C
H       0.4845   0.8445   0.2474     H
H       0.4864   0.3671   0.7636     H
C      0.48927  0.64197  0.48237     C
H       0.4913   0.1519   0.8291     H
O      0.49204  0.32403  0.25622     O
C       0.4973  0.71463  0.58689     C
C      0.49871  0.19737  0.11018     C
C      0.50129  0.80263  0.88982     C
C       0.5027  0.28537  0.41311     C
O      0.50796  0.67597  0.74378     O
H       0.5087   0.8481   0.1709     H
C      0.51073  0.35803  0.51763     C
H       0.5136   0.6329   0.2364     H
H       0.5155   0.1555   0.7526     H
C      0.51674  0.14867  0.99784     C
H       0.5189   0.3626   0.6879     H
O       0.5196  0.86235  0.74066     O
C      0.52383  0.65967  0.52234     C
H       0.5271   0.6162   0.4678     H
C      0.52931  0.81658   0.9328     C
C      0.53306   0.3024  0.45513     C
C       0.5333  0.23706  0.34518     C
H       0.5345   0.7985   0.2747     H
H       0.5375   0.9008   0.8488     H
H       0.5416   0.3875   0.3712     H
H       0.5417   0.4221   0.2319     H
C      0.54196  0.98358  0.85861     C
H       0.5425   0.3279   0.7954     H
O      0.54484  0.21808  0.19639     O
C      0.54608  0.46972  0.35805     C
C      0.54651  0.16287  0.03906     C
O       0.5467  0.74177  0.67017     O
C      0.54727  0.82294  0.24961     C
C      0.55004  0.77496  0.81612     C
N      0.55232  0.78976  0.21057     N
C      0.55375  0.34962  0.76879     C
H       0.5594    0.702      0.6     H
O      0.56001  0.88829  0.08381     O
C      0.56209  0.25066  0.39098     C
H       0.5626   0.5211   0.2116     H
H       0.5654   0.9623   0.7524     H
H       0.5684   0.1353   0.9792     H
N      0.57033  0.31313  0.73295     N
H       0.5709   0.1944   0.1202     H
C      0.57136  0.82654  0.17377     C
H       0.5751   0.8047   0.1474     H
C      0.57546  0.53037  0.64564     C
C      0.57753   0.7849  0.86255     C
C      0.57952   0.0152  0.14359     C
H       0.5799   0.0641   0.8707     H
H       0.5843   0.5503   0.3474     H
H       0.5849   0.0612   0.7705     H
C      0.58567  0.93362  0.85223     C
H        0.586   0.6465    0.535     H
C      0.58616  0.34544  0.69387     C
Zn     0.58961  0.20653  0.25907    Zn
C      0.58965  0.42028  0.36732     C
C       0.5907  0.84609  0.01692     C
O      0.59153  0.20685  0.32494     O
C       0.5955  0.32659  0.25769     C
H        0.597   0.4424   0.7298     H
H        0.598   0.3211   0.6696     H
C      0.60196   0.3383  0.53733     C
O        0.605  0.40329  0.59321     O
H       0.6063   0.9184   0.2167     H
C      0.61031  0.03121  0.86555     C
O      0.61167  0.48867  0.66093     O
Zn      0.6121  0.74623  0.72911    Zn
C      0.61467  0.51746  0.35317     C
O      0.61478  0.97135  0.15378     O
C      0.61735  0.42578  0.23947     C
H       0.6185   0.1589   0.0488     H
C      0.61986   0.8655  0.73022     C
C      0.62456   0.2821  0.47492     C
C      0.62519  0.86594  0.06083     C
O      0.62621  0.76145  0.79278     O
H        0.632   0.7325   0.2389     H
O      0.63425  0.57274  0.63348     O
C       0.6372  0.52421  0.22052     C
C      0.63723  0.81107   0.9477     C
O      0.63905  0.05984  0.13676     O
C      0.64091  0.96583   0.7447     C
C      0.64465  0.75775  0.21433     C
C      0.64544  0.36102  0.57971     C
N      0.64769   0.3923  0.77469     N
H       0.6491   0.7356   0.1881     H
O      0.64917  0.28632  0.26221     O
N      0.64936  0.86012  0.25615     N
C      0.65293  0.23015  0.41094     C
H       0.6533   0.1105   0.2093     H
C       0.6557  0.30023  0.51676     C
H       0.6584    0.265   0.7679     H
C      0.66016  0.06419  0.76248     C
H       0.6624   0.6446   0.6864     H
C       0.6631  0.42408  0.73516     C
C      0.66313   0.3812  0.25399     C
C      0.66534  0.82606  0.99034     C
C      0.66765  0.89597   0.2191     C
C      0.66921  0.28707  0.74148     C
H       0.6699   0.6049   0.2089     H
O      0.66993  0.82619  0.71957     O
N      0.67572  0.86462  0.17836     N
H       0.6816   0.2623   0.7176     H
C      0.68202  0.47755  0.23567     C
N      0.68274  0.38902   0.6974     N
C      0.68293  0.24517  0.45176     C
C      0.68495  0.77905  0.87762     C
C      0.68659  0.92099  0.73113     C
H       0.6899   0.1058   0.2863     H
H       0.6903   0.6475    0.764     H
H       0.6927   0.1445   0.7757     H
H       0.6931   0.2058   0.3958     H
C      0.69712  0.93273  0.85106     C
C      0.70094  0.42009  0.37064     C
C      0.70108  0.57375  0.21863     C
Zn      0.7014  0.43385  0.63883    Zn
Zn     0.70304  0.91896  0.12384    Zn
H       0.7049   0.1625   0.1822     H
C      0.70507  0.01772  0.74742     C
C       0.7138  0.79185  0.91894     C
H       0.7141   0.7121   0.4286     H
H       0.7146   0.2858   0.5307     H
C      0.71818  0.13835   0.2065     C
O       0.7185  0.34044  0.59909     O
O       0.7223  0.86244  0.07329     O
C      0.72409  0.11356  0.76566     C
C      0.72599  0.03127  0.86501     C
H        0.726   0.8993   0.8465     H
H       0.7266   0.4526   0.7386     H
H       0.7266   0.6907   0.6566     H
H       0.7292   0.8037    0.285     H
H       0.7297    0.387   0.3768     H
C      0.73038  0.51853  0.35658     C
N      0.73164  0.17118  0.24657     N
C      0.73222   0.6689  0.68292     C
H       0.7364   0.9209   0.2233     H
H       0.7366   0.3447   0.8095     H
H       0.7369   0.8222   0.0007     H
H        0.737   0.7662   0.8588     H
C      0.74058  0.82785   0.2597     C
H       0.7433   0.2309   0.4648     H
C      0.74615  0.36596  0.78268     C
N      0.74873  0.70623  0.72047     N
N      0.75127  0.79377  0.22047     N
C      0.75385  0.13404  0.28268     C
H       0.7567   0.2691   0.9648     H
C      0.75942  0.67215   0.7597     C
H        0.763   0.7338   0.3588     H
H       0.7631   0.6778   0.5007     H
H       0.7634   0.1553   0.3095     H
H       0.7636   0.5791   0.7233     H
C      0.76778   0.8311  0.18292     C
N      0.76836  0.32882  0.74657     N
C      0.76962  0.98147  0.85658     C
H       0.7703    0.113   0.8768     H
H       0.7708   0.6963    0.785     H
H       0.7734   0.0474   0.2386     H
H       0.7734   0.8093   0.1566     H
H        0.774   0.6007   0.3465     H
C      0.77401  0.46873  0.36501     C
C      0.77591  0.38644  0.26566     C
O       0.7777  0.63756  0.57329     O
O       0.7815  0.15956  0.09909     O
C      0.78182  0.36165   0.7065     C
H       0.7854   0.2142   0.0307     H
H       0.7859   0.7879   0.9286     H
C       0.7862  0.70815  0.41894     C
C      0.79493  0.48228  0.24742     C
H       0.7951   0.3375   0.6822     H
Zn     0.79696  0.58104  0.62384    Zn
Zn      0.7986  0.06615  0.13883    Zn
C      0.79892  0.92625  0.71863     C
C      0.79906  0.07991  0.87064     C
C      0.80288  0.56727  0.35106     C
H       0.8069   0.2942   0.8958     H
H       0.8073   0.3555   0.2757     H
H       0.8097   0.8525    0.264     H
H       0.8101   0.3942   0.7863     H
C      0.81341  0.57901  0.23113     C
C      0.81505  0.72095  0.37762     C
C      0.81707  0.25483  0.95176     C
N      0.81726  0.11098   0.1974     N
C      0.81798  0.02245  0.73567     C
H       0.8184   0.2377   0.2176     H
N      0.82428  0.63538  0.67836     N
O      0.83007  0.67381  0.21957     O
H       0.8301   0.8951   0.7089     H
C      0.83079  0.21293  0.24148     C
C      0.83235  0.60403   0.7191     C
C      0.83466  0.67394  0.49034     C
C      0.83687   0.1188  0.75399     C
C       0.8369  0.07592  0.23516     C
H       0.8376   0.8554   0.1864     H
C      0.83984  0.43581  0.26248     C
H       0.8416    0.235   0.2679     H
C       0.8443  0.19977  0.01676     C
H       0.8467   0.3895   0.7093     H
C      0.84707  0.26985  0.91094     C
N      0.85064  0.63988  0.75615     N
O      0.85083  0.21368  0.76221     O
H       0.8509   0.7644   0.6881     H
N      0.85231   0.1077  0.27469     N
C      0.85456  0.13898  0.07971     C
C      0.85535  0.74225  0.71433     C
C      0.85909  0.53417   0.2447     C
O      0.86095  0.44016  0.63676     O
C      0.86277  0.68893   0.4477     C
C       0.8628  0.97579  0.72052     C
O      0.86575  0.92726  0.13348     O
H        0.868   0.7675   0.7389     H
O      0.87379  0.73855  0.29278     O
C      0.87481  0.63406  0.56083     C
C      0.87544   0.2179  0.97492     C
C      0.88014   0.6345  0.23022     C
H       0.8815   0.3411   0.5488     H
C      0.88265  0.07422  0.73947     C
O      0.88522  0.52865  0.65378     O
C      0.88533  0.98254  0.85317     C
Zn      0.8879  0.75377  0.22911    Zn
O      0.88833  0.01133  0.16093     O
C      0.88969  0.46879  0.36555     C
H       0.8937   0.5816   0.7167     H
O        0.895  0.09671  0.09321     O
C      0.89804   0.1617  0.03733     C
H        0.902   0.1789   0.1696     H
H        0.903   0.0576   0.2298     H
C       0.9045  0.17341  0.75769     C
O      0.90847  0.29315  0.82494     O
C       0.9093  0.65391  0.51692     C
C      0.91035  0.07972  0.86732     C
Zn     0.91039  0.29347  0.75907    Zn
C      0.91384  0.15456  0.19387     C
H        0.914   0.8535    0.035     H
C      0.91433  0.56638  0.35223     C
H       0.9151   0.4388   0.2705     H
H       0.9157   0.9497   0.8474     H
H       0.9201   0.4359   0.3707     H
C      0.92048   0.4848  0.64359     C
C      0.92247   0.7151  0.36255     C
C      0.92454  0.96963  0.14564     C
H       0.9249   0.6953   0.6474     H
C      0.92864  0.67346  0.67377     C
H       0.9291   0.3056   0.6202     H
N      0.92967  0.18687  0.23295     N
H       0.9316   0.3647   0.4792     H
H       0.9346   0.5377   0.2524     H
H       0.9374   0.9789   0.7116     H
C      0.93791  0.24934  0.89098     C
O      0.93999  0.61171  0.58381     O
H       0.9406    0.798      0.1     H
C      0.94625  0.15038  0.26879     C
N      0.94768  0.71024  0.71057     N
C      0.94996  0.72504  0.31612     C
C      0.95273  0.67706  0.74961     C
O       0.9533  0.75823  0.17017     O
C      0.95349  0.33713  0.53906     C
C      0.95392  0.03028  0.85805     C
O      0.95516  0.28192  0.69639     O
H       0.9575   0.1721   0.2954     H
C      0.95804  0.51642  0.35861     C
H       0.9583   0.0779   0.7319     H
H       0.9584   0.1125   0.8712     H
H       0.9625   0.5992   0.3488     H
H       0.9655   0.7015   0.7747     H
C       0.9667  0.26294  0.84518     C
C      0.96694   0.1976  0.95513     C
C      0.97069  0.68342   0.4328     C
H       0.9729   0.8838   0.9678     H
C      0.97617  0.84033  0.02234     C
O       0.9804  0.63765  0.24066     O
H       0.9811   0.1374   0.1879     H
C      0.98326  0.35133  0.49784     C
H       0.9845   0.3445   0.2526     H
H       0.9864   0.8671   0.7364     H
C      0.98927  0.14197  0.01763     C
H       0.9913   0.6519   0.6709     H
O      0.99204  0.82403  0.24378     O
C       0.9973  0.21463  0.91311     C
C      0.99871  0.69737  0.38982     C
