data_I
_chemical_name_common  '/home/zhangsd/repos/MofS-CGCNN/ML/data/SSD/clean_cifs/ANAWOD_clean'
_cell_length_a 16.97890
_cell_length_b 21.61200
_cell_length_c 13.89050
_cell_angle_alpha 90.00000
_cell_angle_beta  90.00000
_cell_angle_gamma 90.00000
_space_group_name_H-M_alt      'P 1'


loop_
_space_group_symop_operation_xyz
  'x, y, z' 

loop_
_atom_site_label
_atom_site_fract_x
_atom_site_fract_y
_atom_site_fract_z
_atom_site_type_symbol
C       0.0037    0.213   0.5789     C
C       0.0037    0.287   0.9211     C
F       0.0117   0.2386   0.8612     F
F       0.0117   0.2614   0.6388     F
C       0.0176   0.0491   0.9406     C
C       0.0176   0.4509   0.5594     C
C       0.0223   0.6172   0.9517     C
C       0.0223   0.8828   0.5483     C
F       0.0284   0.0968    0.881     F
F       0.0284   0.4032    0.619     F
F       0.0308   0.5683   0.8917     F
F       0.0308   0.9317   0.6083     F
C       0.0426   0.1161    0.515     C
C       0.0426   0.3839    0.985     C
C       0.0488   0.5501   0.5016     C
C       0.0488   0.9499   0.9984     C
C       0.0557   0.1652   0.5785     C
C       0.0557   0.3348   0.9215     C
C       0.0608   0.7143    0.016     C
C       0.0608   0.7857    0.484     C
C       0.0658   0.5019   0.5617     C
C       0.0658   0.9981   0.9383     C
C       0.0744   0.6661   0.9522     C
C       0.0744   0.8339   0.5478     C
F       0.0915   0.0673   0.5083     F
F       0.0915   0.4327   0.9917     F
F       0.0957   0.5999   0.4964     F
F       0.0957   0.9001   0.0036     F
F       0.1104   0.7371   0.4787     F
F       0.1104   0.7629   0.0213     F
C       0.1271   0.1647   0.6425     C
C       0.1271   0.3353   0.8575     C
C       0.1351   0.5033   0.6286     C
C       0.1351   0.9967   0.8714     C
C        0.142   0.6684   0.8807     C
C        0.142   0.8316   0.6193     C
O       0.1456   0.1127   0.6771     O
O       0.1456   0.3873   0.8229     O
O       0.1483   0.5549   0.6704     O
O       0.1483   0.9451   0.8296     O
O       0.1555   0.7201   0.8463     O
O       0.1555   0.7799   0.6537     O
O       0.1627   0.2151   0.6553     O
O       0.1627   0.2849   0.8447     O
O        0.173   0.0453   0.8619     O
O        0.173   0.4547   0.6381     O
O       0.1756   0.6181   0.8624     O
O       0.1756   0.8819   0.6376     O
H        0.222   0.6669     0.62     H
H        0.222   0.8331     0.88     H
O       0.2454   0.6667   0.6733     O
O       0.2454   0.8333   0.8267     O
In     0.24956     0.75     0.75    In
In     0.24997  0.58327  0.74909    In
In     0.24997  0.91673  0.75091    In
H         0.25      0.0   0.6157     H
O         0.25      0.0   0.6752     O
O         0.25      0.5   0.8248     O
H         0.25      0.5   0.8843     H
In     0.25003  0.08327  0.75091    In
In     0.25003  0.41673  0.74909    In
In     0.25044     0.25     0.75    In
O       0.2546   0.1667   0.8267     O
O       0.2546   0.3333   0.6733     O
H        0.278   0.1669     0.88     H
H        0.278   0.3331     0.62     H
O       0.3244   0.1181   0.6376     O
O       0.3244   0.3819   0.8624     O
O        0.327   0.5453   0.6381     O
O        0.327   0.9547   0.8619     O
O       0.3373   0.7151   0.8447     O
O       0.3373   0.7849   0.6553     O
O       0.3445   0.2201   0.6537     O
O       0.3445   0.2799   0.8463     O
O       0.3517   0.0549   0.8296     O
O       0.3517   0.4451   0.6704     O
O       0.3544   0.6127   0.8229     O
O       0.3544   0.8873   0.6771     O
C        0.358   0.1684   0.6193     C
C        0.358   0.3316   0.8807     C
C       0.3649   0.0033   0.8714     C
C       0.3649   0.4967   0.6286     C
C       0.3729   0.6647   0.8575     C
C       0.3729   0.8353   0.6425     C
F       0.3896   0.2371   0.0213     F
F       0.3896   0.2629   0.4787     F
F       0.4043   0.0999   0.0036     F
F       0.4043   0.4001   0.4964     F
F       0.4085   0.5673   0.9917     F
F       0.4085   0.9327   0.5083     F
C       0.4256   0.1661   0.5478     C
C       0.4256   0.3339   0.9522     C
C       0.4342   0.0019   0.9383     C
C       0.4342   0.4981   0.5617     C
C       0.4392   0.2143    0.484     C
C       0.4392   0.2857    0.016     C
C       0.4443   0.6652   0.9215     C
C       0.4443   0.8348   0.5785     C
C       0.4512   0.0501   0.9984     C
C       0.4512   0.4499   0.5016     C
C       0.4574   0.6161    0.985     C
C       0.4574   0.8839    0.515     C
F       0.4692   0.0683   0.6083     F
F       0.4692   0.4317   0.8917     F
F       0.4716   0.5968    0.619     F
F       0.4716   0.9032    0.881     F
C       0.4777   0.1172   0.5483     C
C       0.4777   0.3828   0.9517     C
C       0.4824   0.5491   0.5594     C
C       0.4824   0.9509   0.9406     C
F       0.4883   0.7386   0.6388     F
F       0.4883   0.7614   0.8612     F
C       0.4963    0.713   0.9211     C
C       0.4963    0.787   0.5789     C
C       0.5037    0.213   0.4211     C
C       0.5037    0.287   0.0789     C
F       0.5117   0.2386   0.1388     F
F       0.5117   0.2614   0.3612     F
C       0.5176   0.0491   0.0594     C
C       0.5176   0.4509   0.4406     C
C       0.5223   0.6172   0.0483     C
C       0.5223   0.8828   0.4517     C
F       0.5284   0.0968    0.119     F
F       0.5284   0.4032    0.381     F
F       0.5308   0.5683   0.1083     F
F       0.5308   0.9317   0.3917     F
C       0.5426   0.1161    0.485     C
C       0.5426   0.3839    0.015     C
C       0.5488   0.5501   0.4984     C
C       0.5488   0.9499   0.0016     C
C       0.5557   0.1652   0.4215     C
C       0.5557   0.3348   0.0785     C
C       0.5608   0.7143    0.984     C
C       0.5608   0.7857    0.516     C
C       0.5658   0.5019   0.4383     C
C       0.5658   0.9981   0.0617     C
C       0.5744   0.6661   0.0478     C
C       0.5744   0.8339   0.4522     C
F       0.5915   0.0673   0.4917     F
F       0.5915   0.4327   0.0083     F
F       0.5957   0.5999   0.5036     F
F       0.5957   0.9001   0.9964     F
F       0.6104   0.7371   0.5213     F
F       0.6104   0.7629   0.9787     F
C       0.6271   0.1647   0.3575     C
C       0.6271   0.3353   0.1425     C
C       0.6351   0.5033   0.3714     C
C       0.6351   0.9967   0.1286     C
C        0.642   0.6684   0.1193     C
C        0.642   0.8316   0.3807     C
O       0.6456   0.1127   0.3229     O
O       0.6456   0.3873   0.1771     O
O       0.6483   0.5549   0.3296     O
O       0.6483   0.9451   0.1704     O
O       0.6555   0.7201   0.1537     O
O       0.6555   0.7799   0.3463     O
O       0.6627   0.2151   0.3447     O
O       0.6627   0.2849   0.1553     O
O        0.673   0.0453   0.1381     O
O        0.673   0.4547   0.3619     O
O       0.6756   0.6181   0.1376     O
O       0.6756   0.8819   0.3624     O
H        0.722   0.6669     0.38     H
H        0.722   0.8331     0.12     H
O       0.7454   0.6667   0.3267     O
O       0.7454   0.8333   0.1733     O
In     0.74956     0.75     0.25    In
In     0.74997  0.58327  0.25091    In
In     0.74997  0.91673  0.24909    In
O         0.75      0.0   0.3248     O
H         0.75      0.0   0.3843     H
H         0.75      0.5   0.1157     H
O         0.75      0.5   0.1752     O
In     0.75003  0.08327  0.24909    In
In     0.75003  0.41673  0.25091    In
In     0.75044     0.25     0.25    In
O       0.7546   0.1667   0.1733     O
O       0.7546   0.3333   0.3267     O
H        0.778   0.1669     0.12     H
H        0.778   0.3331     0.38     H
O       0.8244   0.1181   0.3624     O
O       0.8244   0.3819   0.1376     O
O        0.827   0.5453   0.3619     O
O        0.827   0.9547   0.1381     O
O       0.8373   0.7151   0.1553     O
O       0.8373   0.7849   0.3447     O
O       0.8445   0.2201   0.3463     O
O       0.8445   0.2799   0.1537     O
O       0.8517   0.0549   0.1704     O
O       0.8517   0.4451   0.3296     O
O       0.8544   0.6127   0.1771     O
O       0.8544   0.8873   0.3229     O
C        0.858   0.1684   0.3807     C
C        0.858   0.3316   0.1193     C
C       0.8649   0.0033   0.1286     C
C       0.8649   0.4967   0.3714     C
C       0.8729   0.6647   0.1425     C
C       0.8729   0.8353   0.3575     C
F       0.8896   0.2371   0.9787     F
F       0.8896   0.2629   0.5213     F
F       0.9043   0.0999   0.9964     F
F       0.9043   0.4001   0.5036     F
F       0.9085   0.5673   0.0083     F
F       0.9085   0.9327   0.4917     F
C       0.9256   0.1661   0.4522     C
C       0.9256   0.3339   0.0478     C
C       0.9342   0.0019   0.0617     C
C       0.9342   0.4981   0.4383     C
C       0.9392   0.2143    0.516     C
C       0.9392   0.2857    0.984     C
C       0.9443   0.6652   0.0785     C
C       0.9443   0.8348   0.4215     C
C       0.9512   0.0501   0.0016     C
C       0.9512   0.4499   0.4984     C
C       0.9574   0.6161    0.015     C
C       0.9574   0.8839    0.485     C
F       0.9692   0.0683   0.3917     F
F       0.9692   0.4317   0.1083     F
F       0.9716   0.5968    0.381     F
F       0.9716   0.9032    0.119     F
C       0.9777   0.1172   0.4517     C
C       0.9777   0.3828   0.0483     C
C       0.9824   0.5491   0.4406     C
C       0.9824   0.9509   0.0594     C
F       0.9883   0.7386   0.3612     F
F       0.9883   0.7614   0.1388     F
C       0.9963    0.713   0.0789     C
C       0.9963    0.787   0.4211     C
