data_I
_chemical_name_common  '/home/zhangsd/repos/MofS-CGCNN/ML/data/SSD/clean_cifs/ANONAT_manual'
_cell_length_a 10.92200
_cell_length_b 14.98100
_cell_length_c 20.41180
_cell_angle_alpha 111.52900
_cell_angle_beta  105.51800
_cell_angle_gamma 90.00000
_space_group_name_H-M_alt      'P 1'


loop_
_space_group_symop_operation_xyz
  'x, y, z' 

loop_
_atom_site_label
_atom_site_fract_x
_atom_site_fract_y
_atom_site_fract_z
_atom_site_type_symbol
C      0.00528  0.14118  0.65856     C
C      0.00528  0.51738  0.65856     C
C      0.01957  0.01957  0.53914     C
C      0.01957  0.51957  0.53914     C
H       0.0211   0.0394   0.7834     H
H       0.0211    0.744   0.7834     H
C      0.03594  0.52234  0.42348     C
C      0.03594  0.90114  0.42348     C
O      0.03666  0.14092  0.10226     O
O      0.03666  0.96134  0.10226     O
O      0.03716  0.51706  0.30652     O
O      0.03716  0.78946  0.30652     O
C       0.0745  0.08186   0.9274     C
C       0.0745  0.84554   0.9274     C
C      0.08414  0.09356  0.80988     C
C      0.08414  0.71632  0.80988     C
N       0.0965   0.0965    0.693     N
N       0.0965   0.5965    0.693     N
Cu     0.11217  0.02627  0.05254    Cu
C      0.11246  0.59886  0.57652     C
C      0.11246  0.97766  0.57652     C
C      0.12467  0.13049  0.88654     C
C      0.12467  0.75605  0.88654     C
C      0.12916  0.59696  0.46132     C
C      0.12916  0.86436  0.46132     C
C      0.13643  0.13643  0.77286     C
C      0.13643  0.63643  0.77286     C
O      0.14811  0.08788  0.98804     O
O      0.14811  0.90016  0.98804     O
C      0.15328  0.01738  0.65856     C
C      0.15328  0.64118  0.65856     C
C      0.16784  0.63564  0.53868     C
C      0.16784  0.90304  0.53868     C
H       0.1689   0.6234   0.4354     H
H       0.1689    0.812   0.4354     H
C      0.21214  0.21214  0.92428     C
C      0.21214  0.71214  0.92428     C
C      0.22574  0.21632  0.80988     C
C      0.22574  0.59356  0.80988     C
O      0.23064  0.71054  0.69348     O
O      0.23064  0.98294  0.69348     O
H       0.2335    0.688   0.5646     H
H       0.2335   0.8766   0.5646     H
H       0.2383   0.2383   0.9766     H
H       0.2383   0.7383   0.9766     H
C      0.26187  0.25605  0.88654     C
C      0.26187  0.63049  0.88654     C
H       0.2623    0.244   0.7834     H
H       0.2623   0.5394   0.7834     H
O      0.33993  0.40016  0.98804     O
O      0.33993  0.58788  0.98804     O
C       0.3529  0.34554   0.9274     C
C       0.3529  0.58186   0.9274     C
O       0.4344  0.35908  0.89774     O
O       0.4344  0.53866  0.89774     O
Cu     0.44037  0.52627  0.05254    Cu
Cu     0.55963  0.47373  0.94746    Cu
O       0.5656  0.46134  0.10226     O
O       0.5656  0.64092  0.10226     O
C       0.6471  0.41814   0.0726     C
C       0.6471  0.65446   0.0726     C
O      0.66007  0.41212  0.01196     O
O      0.66007  0.59984  0.01196     O
H       0.7377   0.4606   0.2166     H
H       0.7377    0.756   0.2166     H
C      0.73813  0.36951  0.11346     C
C      0.73813  0.74395  0.11346     C
H       0.7617   0.2617   0.0234     H
H       0.7617   0.7617   0.0234     H
H       0.7665   0.1234   0.4354     H
H       0.7665    0.312   0.4354     H
O      0.76936  0.01706  0.30652     O
O      0.76936  0.28946  0.30652     O
C      0.77426  0.40644  0.19012     C
C      0.77426  0.78368  0.19012     C
C      0.78786  0.28786  0.07572     C
C      0.78786  0.78786  0.07572     C
H       0.8311    0.188   0.5646     H
H       0.8311   0.3766   0.5646     H
C      0.83216  0.09696  0.46132     C
C      0.83216  0.36436  0.46132     C
C      0.84672  0.35882  0.34144     C
C      0.84672  0.98262  0.34144     C
O      0.85189  0.09984  0.01196     O
O      0.85189  0.91212  0.01196     O
C      0.86357  0.36357  0.22714     C
C      0.86357  0.86357  0.22714     C
C      0.87084  0.13564  0.53868     C
C      0.87084  0.40304  0.53868     C
C      0.87533  0.24395  0.11346     C
C      0.87533  0.86951  0.11346     C
C      0.88754  0.02234  0.42348     C
C      0.88754  0.40114  0.42348     C
Cu     0.88783  0.97373  0.94746    Cu
N       0.9035   0.4035    0.307     N
N       0.9035   0.9035    0.307     N
C      0.91586  0.28368  0.19012     C
C      0.91586  0.90644  0.19012     C
C       0.9255  0.15446   0.0726     C
C       0.9255  0.91814   0.0726     C
O      0.96284  0.21054  0.69348     O
O      0.96284  0.48294  0.69348     O
O      0.96334  0.03866  0.89774     O
O      0.96334  0.85908  0.89774     O
C      0.96406  0.09886  0.57652     C
C      0.96406  0.47766  0.57652     C
H       0.9789    0.256   0.2166     H
H       0.9789   0.9606   0.2166     H
C      0.98043  0.48043  0.46086     C
C      0.98043  0.98043  0.46086     C
C      0.99472  0.48262  0.34144     C
C      0.99472  0.85882  0.34144     C
