data_I
_chemical_name_common  '/home/zhangsd/repos/MofS-CGCNN/ML/data/SSD/clean_cifs/ANUGIA_clean'
_cell_length_a 17.58380
_cell_length_b 17.58380
_cell_length_c 17.58380
_cell_angle_alpha 96.82990
_cell_angle_beta  96.82990
_cell_angle_gamma 96.82990
_space_group_name_H-M_alt      'P 1'


loop_
_space_group_symop_operation_xyz
  'x, y, z' 

loop_
_atom_site_label
_atom_site_fract_x
_atom_site_fract_y
_atom_site_fract_z
_atom_site_type_symbol
O      0.00628  0.27395  0.90072     O
O      0.00628  0.90072  0.27395     O
C       0.0142   0.2035   0.8803     C
C       0.0142   0.8803   0.2035     C
H      0.07015  0.07015   0.8737     H
H      0.07015   0.8737  0.07015     H
C       0.0978    0.191   0.8842     C
C       0.0978   0.8842    0.191     C
C      0.11049   0.1105  0.87941     C
C      0.11049  0.87941  0.11049     C
H       0.1471    0.298   0.8881     H
H       0.1471   0.8881    0.298     H
O       0.1491   0.8571   0.9598     O
O       0.1491   0.9598   0.8571     O
C       0.1571   0.2472   0.8881     C
C       0.1571   0.8881   0.2472     C
Cu     0.16317  0.85178  0.85178    Cu
H       0.1836   0.6086   0.8302     H
H       0.1836   0.8302   0.6086     H
C        0.191   0.0978   0.8842     C
C        0.191   0.8842   0.0978     C
O      0.19869  0.75245  0.85642     O
O      0.19869  0.85642  0.75245     O
C       0.2035   0.0142   0.8803     C
C       0.2035   0.8803   0.0142     C
H       0.2131   0.4881   0.8384     H
H       0.2131   0.8384   0.4881     H
C       0.2323   0.6015   0.8528     C
C       0.2323   0.8528   0.6015     C
C      0.23235  0.23235   0.8922     C
C      0.23235   0.8922  0.23235     C
H       0.2353   0.3865   0.8965     H
H       0.2353   0.8965   0.3865     H
C       0.2472   0.1571   0.8881     C
C       0.2472   0.8881   0.1571     C
C       0.2514   0.5295   0.8571     C
C       0.2514   0.8571   0.5295     C
C        0.271   0.7461   0.8807     C
C        0.271   0.8807   0.7461     C
O      0.27395  0.00628  0.90072     O
O      0.27395  0.90072  0.00628     O
C       0.2848   0.3739   0.8929     C
C       0.2848   0.8929   0.3739     C
C       0.2873    0.664   0.8829     C
C       0.2873   0.8829    0.664     C
C      0.29655  0.29655    0.894     C
C      0.29655    0.894  0.29655     C
H        0.298   0.1471   0.8881     H
H        0.298   0.8881   0.1471     H
Cu     0.30717  0.90466  0.90466    Cu
O       0.3233   0.7996   0.9012     O
O       0.3233   0.9012   0.7996     O
C       0.3238   0.5117   0.8874     C
C       0.3238   0.8874   0.5117     C
C        0.343   0.4326   0.8867     C
C        0.343   0.8867   0.4326     C
C       0.3569   0.6506   0.9089     C
C       0.3569   0.9089   0.6506     C
C       0.3739   0.2848   0.8929     C
C       0.3739   0.8929   0.2848     C
C       0.3748    0.574   0.9097     C
C       0.3748   0.9097    0.574     C
H       0.3865   0.2353   0.8965     H
H       0.3865   0.8965   0.2353     H
H       0.3953    0.692   0.9272     H
H       0.3953   0.9272    0.692     H
C      0.41425  0.41425   0.8854     C
C      0.41425   0.8854  0.41425     C
H       0.4254   0.5675   0.9271     H
H       0.4254   0.9271   0.5675     H
C       0.4326    0.343   0.8867     C
C       0.4326   0.8867    0.343     C
H      0.45385  0.45385   0.8836     H
H      0.45385   0.8836  0.45385     H
H       0.4881   0.2131   0.8384     H
H       0.4881   0.8384   0.2131     H
C       0.5117   0.3238   0.8874     C
C       0.5117   0.8874   0.3238     C
C       0.5295   0.2514   0.8571     C
C       0.5295   0.8571   0.2514     C
H       0.5675   0.4254   0.9271     H
H       0.5675   0.9271   0.4254     H
C        0.574   0.3748   0.9097     C
C        0.574   0.9097   0.3748     C
C       0.6015   0.2323   0.8528     C
C       0.6015   0.8528   0.2323     C
H       0.6086   0.1836   0.8302     H
H       0.6086   0.8302   0.1836     H
C       0.6506   0.3569   0.9089     C
C       0.6506   0.9089   0.3569     C
C        0.664   0.2873   0.8829     C
C        0.664   0.8829   0.2873     C
H        0.692   0.3953   0.9272     H
H        0.692   0.9272   0.3953     H
C       0.7461    0.271   0.8807     C
C       0.7461   0.8807    0.271     C
O      0.75245  0.19869  0.85642     O
O      0.75245  0.85642  0.19869     O
O       0.7996   0.3233   0.9012     O
O       0.7996   0.9012   0.3233     O
H       0.8302   0.1836   0.6086     H
H       0.8302   0.6086   0.1836     H
H       0.8384   0.2131   0.4881     H
H       0.8384   0.4881   0.2131     H
Cu     0.85178  0.16317  0.85178    Cu
Cu     0.85178  0.85178  0.16317    Cu
C       0.8528   0.2323   0.6015     C
C       0.8528   0.6015   0.2323     C
O      0.85642  0.19869  0.75245     O
O      0.85642  0.75245  0.19869     O
O       0.8571   0.1491   0.9598     O
C       0.8571   0.2514   0.5295     C
C       0.8571   0.5295   0.2514     C
O       0.8571   0.9598   0.1491     O
H       0.8737  0.07015  0.07015     H
C      0.87941  0.11049  0.11049     C
C       0.8803   0.0142   0.2035     C
C       0.8803   0.2035   0.0142     C
C       0.8807    0.271   0.7461     C
C       0.8807   0.7461    0.271     C
C       0.8829   0.2873    0.664     C
C       0.8829    0.664   0.2873     C
H       0.8836  0.45385  0.45385     H
C       0.8842   0.0978    0.191     C
C       0.8842    0.191   0.0978     C
C       0.8854  0.41425  0.41425     C
C       0.8867    0.343   0.4326     C
C       0.8867   0.4326    0.343     C
C       0.8874   0.3238   0.5117     C
C       0.8874   0.5117   0.3238     C
H       0.8881   0.1471    0.298     H
C       0.8881   0.1571   0.2472     C
C       0.8881   0.2472   0.1571     C
H       0.8881    0.298   0.1471     H
C       0.8922  0.23235  0.23235     C
C       0.8929   0.2848   0.3739     C
C       0.8929   0.3739   0.2848     C
C        0.894  0.29655  0.29655     C
H       0.8965   0.2353   0.3865     H
H       0.8965   0.3865   0.2353     H
O      0.90072  0.00628  0.27395     O
O      0.90072  0.27395  0.00628     O
O       0.9012   0.3233   0.7996     O
O       0.9012   0.7996   0.3233     O
Cu     0.90466  0.30717  0.90466    Cu
Cu     0.90466  0.90466  0.30717    Cu
C       0.9089   0.3569   0.6506     C
C       0.9089   0.6506   0.3569     C
C       0.9097   0.3748    0.574     C
C       0.9097    0.574   0.3748     C
H       0.9271   0.4254   0.5675     H
H       0.9271   0.5675   0.4254     H
H       0.9272   0.3953    0.692     H
H       0.9272    0.692   0.3953     H
O       0.9598   0.1491   0.8571     O
O       0.9598   0.8571   0.1491     O
