data_I
_chemical_name_common  '/home/zhangsd/repos/MofS-CGCNN/ML/data/SSD/clean_cifs/ASACON_clean'
_cell_length_a 12.05600
_cell_length_b 15.98700
_cell_length_c 15.38300
_cell_angle_alpha 90.00000
_cell_angle_beta  90.00000
_cell_angle_gamma 90.00000
_space_group_name_H-M_alt      'P 1'


loop_
_space_group_symop_operation_xyz
  'x, y, z' 

loop_
_atom_site_label
_atom_site_fract_x
_atom_site_fract_y
_atom_site_fract_z
_atom_site_type_symbol
Zn         0.0     0.25  0.18636    Zn
Zn         0.0     0.75  0.81364    Zn
Zn     0.02506  0.44767  0.18676    Zn
Zn     0.02506  0.94767  0.81324    Zn
H       0.0277    0.344   0.4448     H
H       0.0277    0.844   0.5552     H
C       0.0328   0.0889   0.5429     C
C       0.0328   0.5889   0.4571     C
H        0.033   0.4125   0.5743     H
H        0.033   0.9125   0.4257     H
C       0.0367   0.1318   0.4666     C
C       0.0367   0.6318   0.5334     C
O       0.0371   0.0112   0.7053     O
O       0.0371   0.5112   0.2947     O
O       0.0698   0.1734   0.2803     O
O       0.0698   0.6734   0.7197     O
O       0.1051   0.1763   0.0824     O
O       0.1051   0.6763   0.9176     O
O       0.1094   0.3434   0.1728     O
O       0.1094   0.8434   0.8272     O
O       0.1128    0.028    0.888     O
O       0.1128    0.528    0.112     O
C       0.1171   0.4937   0.3454     C
C       0.1171   0.9937   0.6546     C
C       0.1264   0.0468    0.575     C
C       0.1264   0.5468    0.425     C
O       0.1276   0.0502   0.1414     O
O       0.1276   0.5502   0.8586     O
C       0.1339   0.1937   0.3405     C
C       0.1339   0.6937   0.6595     C
C       0.1366   0.1401   0.4201     C
C       0.1366   0.6401   0.5799     C
C       0.1576   0.1112   0.0938     C
C       0.1576   0.6112   0.9062     C
O       0.1577   0.4305   0.0161     O
O       0.1577   0.9305   0.9839     O
C       0.1745   0.4976   0.0524     C
C       0.1745   0.9976   0.9476     C
O       0.1865    0.439   0.3329     O
O       0.1865    0.939   0.6671     O
O       0.1947   0.2581   0.3428     O
O       0.1947   0.7581   0.6572     O
C       0.2269   0.0488   0.5267     C
C       0.2269   0.5488   0.4733     C
C       0.2308   0.1008   0.4502     C
C       0.2308   0.6008   0.5498     C
Zn        0.25  0.34106     0.25    Zn
Zn        0.25  0.84106     0.75    Zn
C       0.2692   0.1008   0.0498     C
C       0.2692   0.6008   0.9502     C
C       0.2731   0.0488   0.9733     C
C       0.2731   0.5488   0.0267     C
O       0.3053   0.2581   0.1572     O
O       0.3053   0.7581   0.8428     O
O       0.3135    0.439   0.1671     O
O       0.3135    0.939   0.8329     O
C       0.3255   0.4976   0.4476     C
C       0.3255   0.9976   0.5524     C
O       0.3423   0.4305   0.4839     O
O       0.3423   0.9305   0.5161     O
C       0.3424   0.1112   0.4062     C
C       0.3424   0.6112   0.5938     C
C       0.3634   0.1401   0.0799     C
C       0.3634   0.6401   0.9201     C
C       0.3661   0.1937   0.1595     C
C       0.3661   0.6937   0.8405     C
O       0.3724   0.0502   0.3586     O
O       0.3724   0.5502   0.6414     O
C       0.3736   0.0468    0.925     C
C       0.3736   0.5468    0.075     C
C       0.3829   0.4937   0.1546     C
C       0.3829   0.9937   0.8454     C
O       0.3872    0.028    0.612     O
O       0.3872    0.528    0.388     O
O       0.3906   0.3434   0.3272     O
O       0.3906   0.8434   0.6728     O
O       0.3949   0.1763   0.4176     O
O       0.3949   0.6763   0.5824     O
O       0.4302   0.1734   0.2197     O
O       0.4302   0.6734   0.7803     O
O       0.4629   0.0112   0.7947     O
O       0.4629   0.5112   0.2053     O
C       0.4633   0.1318   0.0334     C
C       0.4633   0.6318   0.9666     C
H        0.467   0.4125   0.9257     H
H        0.467   0.9125   0.0743     H
C       0.4672   0.0889   0.9571     C
C       0.4672   0.5889   0.0429     C
H       0.4723    0.344   0.0552     H
H       0.4723    0.844   0.9448     H
Zn     0.47494  0.44767  0.31324    Zn
Zn     0.47494  0.94767  0.68676    Zn
Zn         0.5     0.25  0.31364    Zn
Zn         0.5     0.75  0.68636    Zn
Zn     0.52506  0.05233  0.31324    Zn
Zn     0.52506  0.55233  0.68676    Zn
H       0.5277    0.156   0.0552     H
H       0.5277    0.656   0.9448     H
C       0.5328   0.4111   0.9571     C
C       0.5328   0.9111   0.0429     C
H        0.533   0.0875   0.9257     H
H        0.533   0.5875   0.0743     H
C       0.5367   0.3682   0.0334     C
C       0.5367   0.8682   0.9666     C
O       0.5371   0.4888   0.7947     O
O       0.5371   0.9888   0.2053     O
O       0.5698   0.3266   0.2197     O
O       0.5698   0.8266   0.7803     O
O       0.6051   0.3237   0.4176     O
O       0.6051   0.8237   0.5824     O
O       0.6094   0.1566   0.3272     O
O       0.6094   0.6566   0.6728     O
O       0.6128    0.472    0.612     O
O       0.6128    0.972    0.388     O
C       0.6171   0.0063   0.1546     C
C       0.6171   0.5063   0.8454     C
C       0.6264   0.4532    0.925     C
C       0.6264   0.9532    0.075     C
O       0.6276   0.4498   0.3586     O
O       0.6276   0.9498   0.6414     O
C       0.6339   0.3063   0.1595     C
C       0.6339   0.8063   0.8405     C
C       0.6366   0.3599   0.0799     C
C       0.6366   0.8599   0.9201     C
C       0.6576   0.3888   0.4062     C
C       0.6576   0.8888   0.5938     C
O       0.6577   0.0695   0.4839     O
O       0.6577   0.5695   0.5161     O
C       0.6745   0.0024   0.4476     C
C       0.6745   0.5024   0.5524     C
O       0.6865    0.061   0.1671     O
O       0.6865    0.561   0.8329     O
O       0.6947   0.2419   0.1572     O
O       0.6947   0.7419   0.8428     O
C       0.7269   0.4512   0.9733     C
C       0.7269   0.9512   0.0267     C
C       0.7308   0.3992   0.0498     C
C       0.7308   0.8992   0.9502     C
Zn        0.75  0.15894     0.25    Zn
Zn        0.75  0.65894     0.75    Zn
C       0.7692   0.3992   0.4502     C
C       0.7692   0.8992   0.5498     C
C       0.7731   0.4512   0.5267     C
C       0.7731   0.9512   0.4733     C
O       0.8053   0.2419   0.3428     O
O       0.8053   0.7419   0.6572     O
O       0.8135    0.061   0.3329     O
O       0.8135    0.561   0.6671     O
C       0.8255   0.0024   0.0524     C
C       0.8255   0.5024   0.9476     C
O       0.8423   0.0695   0.0161     O
O       0.8423   0.5695   0.9839     O
C       0.8424   0.3888   0.0938     C
C       0.8424   0.8888   0.9062     C
C       0.8634   0.3599   0.4201     C
C       0.8634   0.8599   0.5799     C
C       0.8661   0.3063   0.3405     C
C       0.8661   0.8063   0.6595     C
O       0.8724   0.4498   0.1414     O
O       0.8724   0.9498   0.8586     O
C       0.8736   0.4532    0.575     C
C       0.8736   0.9532    0.425     C
C       0.8829   0.0063   0.3454     C
C       0.8829   0.5063   0.6546     C
O       0.8872    0.472    0.888     O
O       0.8872    0.972    0.112     O
O       0.8906   0.1566   0.1728     O
O       0.8906   0.6566   0.8272     O
O       0.8949   0.3237   0.0824     O
O       0.8949   0.8237   0.9176     O
O       0.9302   0.3266   0.2803     O
O       0.9302   0.8266   0.7197     O
O       0.9629   0.4888   0.7053     O
O       0.9629   0.9888   0.2947     O
C       0.9633   0.3682   0.4666     C
C       0.9633   0.8682   0.5334     C
H        0.967   0.0875   0.5743     H
H        0.967   0.5875   0.4257     H
C       0.9672   0.4111   0.5429     C
C       0.9672   0.9111   0.4571     C
H       0.9723    0.156   0.4448     H
H       0.9723    0.656   0.5552     H
Zn     0.97494  0.05233  0.18676    Zn
Zn     0.97494  0.55233  0.81324    Zn
