data_I
_chemical_name_common  '/home/zhangsd/repos/MofS-CGCNN/ML/data/SSD/clean_cifs/ASINAT_clean'
_cell_length_a 21.00700
_cell_length_b 21.09900
_cell_length_c 21.24000
_cell_angle_alpha 63.47700
_cell_angle_beta  63.69100
_cell_angle_gamma 84.66000
_space_group_name_H-M_alt      'P 1'


loop_
_space_group_symop_operation_xyz
  'x, y, z' 

loop_
_atom_site_label
_atom_site_fract_x
_atom_site_fract_y
_atom_site_fract_z
_atom_site_type_symbol
H          0.0   0.0231   0.7439     H
H          0.0   0.9769   0.2561     H
C       0.0002   0.1596    0.664     C
O      0.00124   0.7697   0.5857     O
C       0.0024   0.2571   0.6706     C
H       0.0039    0.308   0.7611     H
O      0.00632   0.8516   0.6244     O
C       0.0064   0.6568    0.278     C
C       0.0109   0.6708   0.3335     C
C       0.0132   0.9695   0.2951     C
H       0.0143   0.5817    0.243     H
C       0.0156   0.9005    0.348     C
C       0.0172   0.5903    0.281     C
N       0.0223   0.7759   0.3588     N
C       0.0257   0.6163     0.39     C
H       0.0299   0.6231   0.4283     H
H       0.0301   0.0717   0.2675     H
C       0.0308   0.0257    0.303     C
N       0.0316   0.5382   0.3349     N
C       0.0327    0.893   0.4046     C
H        0.034   0.8479   0.4411     H
C       0.0341   0.5506   0.3885     C
C       0.0355   0.8141   0.5885     C
N       0.0356   0.2157    0.708     N
N       0.0361   0.1523   0.7035     N
Zn      0.0382  0.43734   0.3395    Zn
H       0.0419   0.5134   0.4283     H
C       0.0483   0.9533   0.4078     C
N       0.0493   0.0181   0.3594     N
O      0.05219   0.6138    0.536     O
H        0.059   0.9466   0.4482     H
O      0.06586   0.5719   0.6437     O
O      0.06935   0.3577   0.2879     O
N       0.0701   0.7551   0.3918     N
H       0.0817   0.7126   0.4047     H
Zn     0.08608  0.10995  0.35064    Zn
H       0.0878   0.7849    0.399     H
C       0.0917   0.5969   0.5703     C
O      0.09721  0.29558   0.4428     O
O      0.09951   0.4742   0.2172     O
Zn     0.10117  0.27385  0.35989    Zn
C       0.1015   0.4122   0.2231     C
H        0.104   0.3009   0.1955     H
O      0.10791    0.061   0.4487     O
O      0.10961   0.4158   0.3827     O
C       0.1141   0.8239   0.5464     C
C        0.116   0.3572   0.4312     C
H       0.1234   0.7361   0.5295     H
H       0.1314   0.9158   0.5461     H
H       0.1332   0.0225   0.5691     H
C       0.1358   0.3389   0.1494     C
O       0.1371   0.1588   0.2326     O
O      0.13731   0.1773   0.3756     O
C       0.1382   0.1178   0.4327     C
C       0.1438    0.404   0.1487     C
H       0.1497    0.149    0.113     H
C       0.1497   0.3591   0.4799     C
C       0.1497   0.7746   0.5212     C
H       0.1535   0.2525    0.533     H
C       0.1544   0.8815   0.5309     C
H       0.1568   0.4662   0.4402     H
C       0.1665   0.0616   0.5474     C
C       0.1665   0.2964   0.5274     C
C       0.1677   0.4244   0.4726     C
H       0.1704   0.2862   0.0814     H
C       0.1712    0.606   0.5225     C
H        0.174   0.6414   0.4159     H
C       0.1757   0.3299   0.0806     C
C       0.1774   0.1195   0.4759     C
H        0.188   0.3157   0.9536     H
C       0.1906   0.4629   0.0778     C
H       0.1936   0.5773   0.6161     H
H       0.1945   0.5077    0.075     H
H       0.1959   0.0233   0.6363     H
C       0.1974    0.133   0.2167     C
C       0.1979   0.1427   0.0938     C
C       0.2023   0.6288   0.4421     C
C       0.2028   0.3004   0.5658     C
C       0.2032   0.4265   0.5153     C
C       0.2047   0.0611   0.5874     C
H       0.2052    0.149   0.9962     H
H         0.21   0.4389   0.6378     H
C       0.2141   0.5907   0.5625     C
H       0.2142   0.4698   0.5124     H
H       0.2155   0.2585   0.5961     H
O       0.2206   0.1037   0.2654     O
C       0.2214   0.3641   0.5615     C
C       0.2229   0.7816   0.4844     C
C       0.2233   0.3877   0.0111     C
C       0.2279   0.1768   0.4438     C
C       0.2287   0.8895   0.4931     C
C       0.2302   0.4505   0.0129     C
C        0.231   0.1419   0.0244     C
H       0.2328   0.0546   0.7008     H
C       0.2339   0.1341    0.139     C
C       0.2341   0.3399   0.9192     C
H       0.2356   0.2158   0.3961     H
H       0.2456   0.7471   0.4694     H
C       0.2462   0.4101   0.6395     C
H       0.2508   0.3106   0.8349     H
H       0.2547   0.9286   0.4841     H
C       0.2577    0.121   0.5503     C
C       0.2621   0.3655   0.6025     C
H       0.2639   0.4875   0.9675     H
C       0.2644   0.8403   0.4689     C
C       0.2649   0.3792   0.9393     C
H       0.2659   0.1815   0.8745     H
C       0.2661    0.177   0.4808     C
C       0.2721   0.3366   0.8478     C
H       0.2727   0.4407   0.7032     H
C       0.2767   0.6328   0.4001     C
C       0.2785   0.0801   0.6701     C
C       0.2841   0.4115   0.6784     C
C       0.2875   0.5965   0.5188     C
H       0.2975   0.6468   0.3463     H
H       0.2992   0.2165   0.4581     H
C       0.3013   0.1309   0.9922     C
C        0.302   0.1194   0.5899     C
C       0.3041   0.1229   0.1072     C
H       0.3059   0.0471   0.7616     H
C       0.3066   0.1588   0.8624     C
H       0.3168    0.587   0.5435     H
H       0.3172   0.1741   0.7578     H
C       0.3178   0.3263   0.6033     C
C       0.3186   0.6164   0.4375     C
C        0.321   0.0768   0.7081     C
H       0.3302   0.1159    0.135     H
H       0.3302    0.298   0.5774     H
C       0.3358   0.1288   0.9158     C
C       0.3358   0.4107   0.8882     C
C        0.337   0.1218    0.036     C
C       0.3378   0.1549   0.7922     C
C       0.3381   0.3704   0.6809     C
C       0.3408   0.3716   0.7962     C
C       0.3441   0.8478   0.4284     C
H       0.3554   0.7784   0.3855     H
C       0.3567   0.3277   0.6422     C
H       0.3592   0.4336   0.9022     H
H       0.3646   0.9148   0.4627     H
C       0.3687    0.159    0.548     C
C        0.371   0.4085    0.818     C
N       0.3756   0.3698   0.7225     N
C       0.3813   0.8114   0.3861     C
H       0.3849   0.1146   0.0165     H
H       0.3865    0.186   0.4937     H
C        0.387   0.1208   0.6604     C
C        0.387   0.8915   0.4318     C
H       0.3942   0.3005   0.6421     H
C       0.3958   0.0976   0.8921     C
C       0.3979   0.1233   0.7723     C
C        0.399   0.6214   0.3924     C
C       0.4097   0.1607   0.5822     C
H        0.412   0.5439   0.4864     H
H       0.4133    0.696   0.2883     H
H       0.4171   0.4327   0.7836     H
H       0.4172   0.0787   0.9256     H
C       0.4272   0.0916   0.8238     C
N       0.4289   0.1214   0.6963     N
C       0.4368   0.5756   0.4332     C
C       0.4372   0.6661   0.3158     C
C       0.4524   0.8208   0.3458     C
C       0.4536   0.3761   0.6832     C
H       0.4537   0.1895   0.5514     H
C         0.46   0.9021   0.3925     C
H       0.4644   0.2979   0.7772     H
H       0.4655   0.4519   0.5795     H
H       0.4667   0.0671   0.8125     H
H       0.4746    0.796   0.3166     H
H       0.4864    0.932   0.3964     H
C       0.4894   0.3302   0.7242     C
C       0.4899   0.4218   0.6064     C
C       0.4937   0.8677   0.3471     C
C       0.5063   0.1323   0.6529     C
C       0.5101   0.5782   0.3936     C
C       0.5106   0.6698   0.2758     C
H       0.5136    0.068   0.6036     H
H       0.5254    0.204   0.6834     H
H       0.5333   0.9329   0.1875     H
H       0.5345   0.5481   0.4205     H
H       0.5356   0.7021   0.2228     H
C         0.54   0.0979   0.6075     C
H       0.5463   0.8105   0.4486     H
C       0.5464   0.6239   0.3168     C
C       0.5476   0.1792   0.6542     C
C       0.5628   0.3339   0.6842     C
C       0.5632   0.4244   0.5668     C
N       0.5711   0.8786   0.3037     N
C       0.5728   0.9084   0.1762     C
H       0.5828   0.9213   0.0744     H
H       0.5829   0.5673   0.2164     H
H       0.5867    0.304   0.7117     H
H        0.588   0.4561   0.5136     H
C       0.5903   0.8393   0.4178     C
C        0.601   0.3786   0.6076     C
C       0.6021   0.8767   0.2277     C
C       0.6042   0.9024   0.1079     C
H       0.6058   0.6995   0.3579     H
C        0.613   0.1085   0.5682     C
C        0.613   0.8792   0.3396     C
H       0.6135    0.814   0.5063     H
H       0.6151   0.8854   0.9835     H
C       0.6187   0.1886   0.6139     C
N       0.6244   0.6302   0.2775     N
C        0.629   0.5915    0.182     C
C       0.6313    0.841    0.452     C
H       0.6354   0.0852   0.5373     H
H       0.6408   0.5664   0.0978     H
C       0.6433   0.6723   0.3578     C
H       0.6446   0.2216   0.6145     H
C       0.6559   0.1522   0.5716     C
C       0.6592   0.6284   0.2038     C
C       0.6619   0.6296   0.3191     C
C       0.6622   0.8451   0.2078     C
C        0.663   0.8782    0.964     C
C       0.6642   0.5893   0.1118     C
C       0.6642   0.8712   0.0842     C
H       0.6698    0.702   0.4226     H
H       0.6698   0.8841    0.865     H
C        0.679   0.9232   0.2919     C
C       0.6814   0.3836   0.5625     C
C       0.6822   0.6737   0.3967     C
H       0.6828   0.8259   0.2422     H
H       0.6832    0.413   0.4565     H
C       0.6934   0.8412   0.1376     C
H       0.6941   0.9529   0.2384     H
C       0.6959   0.8771   0.8928     C
C        0.698   0.8806   0.4101     C
C       0.6987   0.8691   0.0078     C
H       0.7008   0.7835   0.5419     H
H       0.7025   0.3532   0.6537     H
C       0.7125   0.4035   0.4812     C
C       0.7159   0.5885   0.3216     C
C       0.7215   0.9199   0.3299     C
C       0.7233   0.3672   0.5999     C
H       0.7273   0.5593   0.2968     H
C       0.7279   0.6634   0.1522     C
C       0.7339    0.823   0.5192     C
H       0.7341   0.8185   0.1255     H
C       0.7351   0.6208   0.0607     C
C       0.7356   0.1597   0.5311     C
H       0.7361   0.5125   0.0325     H
C       0.7379   0.6345   0.3975     C
C       0.7423    0.879   0.4497     C
H       0.7453   0.0714   0.5159     H
H       0.7492   0.6894   0.1651     H
C       0.7538   0.5899   0.3605     C
H       0.7544   0.2529   0.5306     H
H       0.7644   0.7842   0.6039     H
C       0.7659   0.6601   0.0808     C
C       0.7661   0.8659    0.861     C
H       0.7672   0.9454   0.2992     H
C        0.769   0.8581   0.9756     C
C       0.7698   0.5495   0.9871     C
C       0.7713   0.1105   0.5069     C
C       0.7721   0.8232   0.5562     C
C       0.7767   0.6123   0.9889     C
C       0.7771   0.2184   0.5156     C
C       0.7786   0.6359   0.4385     C
O       0.7794   0.8963   0.7346     O
H       0.7845   0.7415   0.4039     H
H       0.7858   0.5302   0.4876     H
C       0.7859   0.4093   0.4375     C
H         0.79   0.5611   0.3622     H
H       0.7948    0.851   0.0038     H
C       0.7953   0.9389   0.4126     C
C       0.7968   0.5735   0.4847     C
C       0.7972   0.6996   0.4342     C
C       0.7977   0.3712   0.5579     C
C       0.8021   0.8573   0.9062     C
C       0.8026    0.867   0.7833     C
H       0.8041   0.9767   0.3637     H
H       0.8055   0.4923    0.925     H
H       0.8064   0.4227   0.3839     H
C       0.8094   0.5371   0.9222     C
H        0.812   0.6843   0.0464     H
C       0.8226   0.8805   0.5241     C
C       0.8243   0.6701   0.9194     C
H        0.826   0.3586   0.5841     H
C       0.8288    0.394   0.4775     C
H       0.8296   0.7138   0.9186     H
C       0.8323   0.5756   0.5274     C
C       0.8335   0.7036   0.4726     C
C       0.8335   0.9384   0.4526     C
H       0.8432   0.5338   0.5598     H
C       0.8456   0.1185   0.4691     C
H       0.8465   0.7475    0.467     H
C       0.8503   0.2254   0.4788     C
C       0.8503   0.6409   0.5201     C
H       0.8503    0.851    0.887     H
C       0.8562    0.596   0.8513     C
C       0.8618   0.8822   0.5673     C
O      0.86269   0.8227   0.6244     O
O       0.8629   0.8412   0.7674     O
C       0.8642   0.6611   0.8506     C
H       0.8668   0.9775   0.4309     H
H       0.8686   0.0842   0.4539     H
H       0.8766   0.2639   0.4705     H
C        0.884   0.6428   0.5688     C
C       0.8859   0.1761   0.4536     C
O      0.89039   0.5842   0.6173     O
O      0.89209    0.939   0.5513     O
H        0.896   0.6991   0.8045     H
C       0.8985   0.5878   0.7769     C
Zn     0.89883  0.72615  0.64011    Zn
O      0.90049   0.5258   0.7828     O
O      0.90279  0.70442   0.5572     O
C       0.9083   0.4031   0.4297     C
H       0.9122   0.2151    0.601     H
Zn     0.91392  0.89005  0.64936    Zn
H       0.9183   0.2874   0.5953     H
N       0.9299   0.2449   0.6082     N
O      0.93065   0.6423   0.7121     O
O      0.93414   0.4281   0.3563     O
H        0.941   0.0534   0.5518     H
O      0.94781   0.3862    0.464     O
N       0.9507   0.9819   0.6406     N
C       0.9517   0.0467   0.5922     C
H       0.9581   0.4866   0.5717     H
Zn      0.9618  0.56266   0.6605    Zn
N       0.9639   0.8477   0.2965     N
N       0.9644   0.7843    0.292     N
C       0.9645   0.1859   0.4115     C
C       0.9659   0.4494   0.6115     C
H        0.966   0.1521   0.5589     H
C       0.9673    0.107   0.5954     C
N       0.9684   0.4618   0.6651     N
C       0.9692   0.9743    0.697     C
H       0.9699   0.9283   0.7325     H
H       0.9701   0.3769   0.5717     H
C       0.9743   0.3837     0.61     C
N       0.9777   0.2241   0.6412     N
C       0.9828   0.4097    0.719     C
C       0.9844   0.0995    0.652     C
H       0.9857   0.4183    0.757     H
C       0.9868   0.0305   0.7049     C
C       0.9891   0.3292   0.6665     C
C       0.9936   0.3432    0.722     C
O      0.99368   0.1484   0.3756     O
H       0.9961    0.692   0.2389     H
C       0.9976   0.7429   0.3294     C
O      0.99876   0.2303   0.4143     O
C       0.9998   0.8404    0.336     C
