data_I
_chemical_name_common  '/home/zhangsd/repos/MofS-CGCNN/ML/data/SSD/clean_cifs/ASUBIB_clean'
_cell_length_a 10.94400
_cell_length_b 11.12900
_cell_length_c 15.99800
_cell_angle_alpha 75.57000
_cell_angle_beta  82.96000
_cell_angle_gamma 75.56000
_space_group_name_H-M_alt      'P 1'


loop_
_space_group_symop_operation_xyz
  'x, y, z' 

loop_
_atom_site_label
_atom_site_fract_x
_atom_site_fract_y
_atom_site_fract_z
_atom_site_type_symbol
C       0.0103   0.1553   0.6038     C
N       0.0198   0.1544   0.3698     N
O       0.0205   0.9263   0.9155     O
C       0.0224   0.8397   0.5424     C
H       0.0262   0.1222   0.2176     H
N       0.0268   0.5454   0.9855     N
C       0.0596    0.158   0.5211     C
O       0.0683   0.0952   0.7493     O
C       0.0935   0.0746   0.0652     C
C       0.1002   0.1389   0.6727     C
C       0.1135   0.1107   0.2084     C
C       0.1135   0.5293   0.9151     C
C       0.1175   0.8406   0.3752     C
H       0.1259   0.3444   0.9177     H
H       0.1302   0.7123   0.8936     H
N       0.1364    0.139   0.3558     N
H       0.1445   0.1583   0.5064     H
O       0.1475   0.0697   0.9923     O
C       0.1493   0.8361   0.5202     C
H       0.1501   0.8403   0.3187     H
C       0.1537   0.4168   0.8879     C
C       0.1563   0.6378   0.8734     C
C       0.1704   0.0836   0.1344     C
C       0.1828   0.1219   0.2713     C
C       0.1959   0.8371   0.4363     C
H       0.2029   0.8331   0.5619     H
O       0.2034   0.1661   0.6468     O
Eu     0.20768  0.99481  0.86643    Eu
O       0.2264    0.202   0.8262     O
C       0.2351   0.4141   0.8165     C
C       0.2404    0.632   0.7998     C
O       0.2448   0.8472   0.7843     O
C       0.2772   0.2909   0.7874     C
C       0.2777   0.5219   0.7724     C
C       0.2853   0.7476   0.7553     C
C       0.3026   0.0598   0.1192     C
C       0.3145    0.096   0.2599     C
C       0.3293   0.8429   0.4104     C
H       0.3327   0.5184   0.7234     H
H       0.3408   0.0426    0.067     H
O       0.3579    0.746   0.6899     O
O       0.3596   0.2866    0.727     O
H       0.3625   0.1007   0.3026     H
C        0.374   0.0625   0.1831     C
O       0.3798   0.8168   0.3418     O
O       0.3892   0.8826   0.4582     O
Eu     0.41255     0.16  0.62672    Eu
O       0.4261    0.004   0.7565     O
O       0.4286     0.98   0.8963     O
C       0.4856   0.9767   0.8252     C
C       0.5144   0.0233   0.1748     C
O       0.5714     0.02   0.1037     O
O       0.5739    0.996   0.2435     O
Eu     0.58745     0.84  0.37328    Eu
O       0.6108   0.1174   0.5418     O
O       0.6202   0.1832   0.6582     O
C        0.626   0.9375   0.8169     C
H       0.6375   0.8993   0.6974     H
O       0.6404   0.7134    0.273     O
O       0.6421    0.254   0.3101     O
H       0.6592   0.9574    0.933     H
H       0.6673   0.4816   0.2766     H
C       0.6707   0.1571   0.5896     C
C       0.6855    0.904   0.7401     C
C       0.6974   0.9402   0.8808     C
C       0.7147   0.2524   0.2447     C
C       0.7223   0.4781   0.2276     C
C       0.7228   0.7091   0.2126     C
O       0.7552   0.1528   0.2157     O
C       0.7596    0.368   0.2002     C
C       0.7649   0.5859   0.1835     C
O       0.7736    0.798   0.1738     O
Eu     0.79232  0.00519  0.13357    Eu
O       0.7966   0.8339   0.3532     O
H       0.7971   0.1669   0.4381     H
C       0.8041   0.1629   0.5637     C
C       0.8172   0.8781   0.7287     C
C       0.8296   0.9164   0.8656     C
C       0.8437   0.3622   0.1266     C
C       0.8463   0.5832   0.1121     C
H       0.8499   0.1597   0.6813     H
C       0.8507   0.1639   0.4798     C
O       0.8525   0.9303   0.0077     O
H       0.8555   0.8417   0.4936     H
N       0.8636    0.861   0.6442     N
H       0.8698   0.2877   0.1064     H
H       0.8741   0.6556   0.0823     H
C       0.8825   0.1594   0.6248     C
C       0.8865   0.4707   0.0849     C
C       0.8865   0.8893   0.7916     C
C       0.8998   0.8611   0.3273     C
C       0.9065   0.9254   0.9348     C
O       0.9317   0.9048   0.2507     O
C       0.9404    0.842   0.4789     C
N       0.9732   0.4546   0.0145     N
H       0.9738   0.8778   0.7824     H
C       0.9776   0.1603   0.4576     C
O       0.9795   0.0737   0.0845     O
N       0.9802   0.8456   0.6302     N
C       0.9897   0.8447   0.3962     C
