data_I
_chemical_name_common  '/home/zhangsd/repos/MofS-CGCNN/ML/data/SSD/clean_cifs/ATIBIO_clean'
_cell_length_a 11.68800
_cell_length_b 10.24380
_cell_length_c 18.75300
_cell_angle_alpha 90.00000
_cell_angle_beta  127.40800
_cell_angle_gamma 90.00000
_space_group_name_H-M_alt      'P 1'


loop_
_space_group_symop_operation_xyz
  'x, y, z' 

loop_
_atom_site_label
_atom_site_fract_x
_atom_site_fract_y
_atom_site_fract_z
_atom_site_type_symbol
Mn         0.0      0.0      0.0    Mn
Mn         0.0      0.5      0.5    Mn
C        0.024     0.67    0.009     C
C        0.024     0.83    0.509     C
O       0.1101   0.5988   0.6274     O
O       0.1101   0.9012   0.1274     O
O       0.1188   0.6032   0.4666     O
O       0.1188   0.8968   0.9666     O
C       0.1197   0.2199   0.5504     C
C       0.1197   0.2801   0.0504     C
O       0.1577   0.1614   0.0578     O
O       0.1577   0.3386   0.5578     O
C        0.169    0.015    0.716     C
C        0.169    0.485    0.216     C
O       0.2019   0.1261   0.5908     O
O       0.2019   0.3739   0.0908     O
C       0.2252   0.5997   0.4678     C
C       0.2252   0.9003   0.9678     C
C       0.2387    0.619   0.6904     C
C       0.2387    0.881   0.1904     C
C       0.3076   0.0092   0.7879     C
C       0.3076   0.4908   0.2879     C
O       0.3228   0.5015   0.3584     O
O       0.3228   0.9985   0.8584     O
O       0.3365    0.528   0.5217     O
O       0.3365    0.972   0.0217     O
O       0.3452   0.5713    0.698     O
O       0.3452   0.9287    0.198     O
Mn     0.37545  0.08643   0.1298    Mn
Mn     0.37545  0.41357   0.6298    Mn
O         0.41   0.0017   0.7813     O
O         0.41   0.4983   0.2813     O
Mn     0.42539  0.10038  0.68512    Mn
Mn     0.42539  0.39962  0.18512    Mn
C        0.431   0.5995   0.9376     C
C        0.431   0.9005   0.4376     C
O        0.441   0.5774   0.1338     O
O        0.441   0.9226   0.6338     O
O       0.4432   0.2082  0.24617     O
O       0.4432   0.2918  0.74617     O
O       0.4568   0.2372   0.6082     O
O       0.4568   0.2628   0.1082     O
O       0.4785   0.2064   0.0023     O
O       0.4785   0.2936   0.5023     O
C       0.4818   0.2144   0.5522     C
C       0.4818   0.2856   0.0522     C
C       0.4925   0.6851   0.1711     C
C       0.4925   0.8149   0.6711     C
Mn         0.5      0.0      0.0    Mn
Mn         0.5      0.5      0.5    Mn
C       0.5075   0.1851   0.3289     C
C       0.5075   0.3149   0.8289     C
C       0.5182   0.7144   0.9478     C
C       0.5182   0.7856   0.4478     C
O       0.5215   0.7064   0.4977     O
O       0.5215   0.7936   0.9977     O
O       0.5432   0.7372   0.8918     O
O       0.5432   0.7628   0.3918     O
O       0.5568   0.7082  0.25383     O
O       0.5568   0.7918  0.75383     O
O        0.559   0.0774   0.3662     O
O        0.559   0.4226   0.8662     O
C        0.569   0.0995   0.5624     C
C        0.569   0.4005   0.0624     C
Mn     0.57461  0.60038  0.81488    Mn
Mn     0.57461  0.89962  0.31488    Mn
O         0.59   0.5017   0.7187     O
O         0.59   0.9983   0.2187     O
Mn     0.62455  0.58643   0.3702    Mn
Mn     0.62455  0.91357   0.8702    Mn
O       0.6548   0.0713    0.802     O
O       0.6548   0.4287    0.302     O
O       0.6635    0.028   0.9783     O
O       0.6635    0.472   0.4783     O
O       0.6772   0.0015   0.1416     O
O       0.6772   0.4985   0.6416     O
C       0.6924   0.5092   0.7121     C
C       0.6924   0.9908   0.2121     C
C       0.7613    0.119   0.8096     C
C       0.7613    0.381   0.3096     C
C       0.7748   0.0997   0.0322     C
C       0.7748   0.4003   0.5322     C
O       0.7981   0.6261   0.9092     O
O       0.7981   0.8739   0.4092     O
C        0.831    0.515    0.784     C
C        0.831    0.985    0.284     C
O       0.8423   0.6614   0.4422     O
O       0.8423   0.8386   0.9422     O
C       0.8803   0.7199   0.9496     C
C       0.8803   0.7801   0.4496     C
O       0.8812   0.1032   0.0334     O
O       0.8812   0.3968   0.5334     O
O       0.8899   0.0988   0.8726     O
O       0.8899   0.4012   0.3726     O
C        0.976     0.17    0.491     C
C        0.976     0.33    0.991     C
