data_I
_chemical_name_common  '/home/zhangsd/repos/MofS-CGCNN/ML/data/SSD/clean_cifs/ATIBUA_clean'
_cell_length_a 10.00500
_cell_length_b 11.51900
_cell_length_c 14.96100
_cell_angle_alpha 91.22850
_cell_angle_beta  90.00000
_cell_angle_gamma 90.00000
_space_group_name_H-M_alt      'P 1'


loop_
_space_group_symop_operation_xyz
  'x, y, z' 

loop_
_atom_site_label
_atom_site_fract_x
_atom_site_fract_y
_atom_site_fract_z
_atom_site_type_symbol
Mn         0.0      0.0      0.0    Mn
Mn         0.0      0.5     -0.0    Mn
O      0.00206  0.45674  0.14044     O
O        0.005  0.37717  0.78015     O
C       0.0079  0.51286  0.21116     C
H        0.026   0.4715   0.2645     H
O      0.03015  0.68649  0.02251     O
O      0.07714  0.18419  0.63229     O
O      0.07764  0.84888  0.19695     O
Mn     0.08589  0.24376  0.86839    Mn
Mn     0.09713  0.73582  0.31485    Mn
O      0.10551  0.01572  0.12572     O
C       0.1081  0.74222  0.97112     C
H        0.111   0.9483   0.4543     H
O      0.11568  0.84818  0.96548     O
O      0.11635  0.60336  0.40985     O
C       0.1284  0.94929  0.18659     C
H        0.163    0.697    0.935     H
O      0.16495   0.1004  0.94223     O
C       0.1831   0.1638   0.6718     C
H        0.195    0.973    0.231     H
H        0.201   0.5095   0.4955     H
C       0.2055  0.92668  0.44768     C
O      0.20852  0.18652  0.75365     O
C       0.2144  0.56788  0.45158     C
O      0.21473  0.48246  0.99446     O
O      0.23392  0.84746  0.39047     O
H        0.246    0.632    0.136     H
H        0.254    0.132    0.636     H
O      0.26608  0.34746  0.89047     O
O      0.28527  0.98246  0.49446     O
C       0.2856  0.06788  0.95158     C
O      0.29148  0.68652  0.25365     O
C       0.2945  0.42668  0.94768     C
H        0.299   0.0095   0.9955     H
H        0.305    0.473    0.731     H
C       0.3169   0.6638   0.1718     C
O      0.33505   0.6004  0.44223     O
H        0.337    0.197    0.435     H
C       0.3716  0.44929  0.68659     C
O      0.38365  0.10336  0.90985     O
O      0.38432  0.34818  0.46548     O
H        0.389   0.4483   0.9543     H
C       0.3919  0.24222  0.47112     C
O      0.39449  0.51572  0.62572     O
Mn     0.40287  0.23582  0.81485    Mn
Mn     0.41411  0.74376  0.36839    Mn
O      0.42236  0.34888  0.69695     O
O      0.42286  0.68419  0.13229     O
O      0.46985  0.18649  0.52251     O
H        0.474   0.9715   0.7645     H
C       0.4921  0.01286  0.71116     C
O        0.495  0.87717  0.28015     O
O      0.49794  0.95674  0.64044     O
Mn         0.5      0.0      0.5    Mn
Mn         0.5      0.5      0.5    Mn
O      0.50206  0.04326  0.35956     O
O        0.505  0.12283  0.71985     O
C       0.5079  0.98714  0.28884     C
H        0.526   0.0285   0.2355     H
O      0.53015  0.81351  0.47749     O
O      0.57714  0.31581  0.86771     O
O      0.57764  0.65112  0.30305     O
Mn     0.58589  0.25624  0.63161    Mn
Mn     0.59713  0.76418  0.18515    Mn
O      0.60551  0.48428  0.37428     O
C       0.6081  0.75778  0.52888     C
H        0.611   0.5517   0.0457     H
O      0.61568  0.65182  0.53452     O
O      0.61635  0.89664  0.09015     O
C       0.6284  0.55071  0.31341     C
H        0.663    0.803    0.565     H
O      0.66495   0.3996  0.55777     O
C       0.6831   0.3362   0.8282     C
H        0.695    0.527    0.269     H
H        0.701   0.9905   0.0045     H
C       0.7055  0.57332  0.05232     C
O      0.70852  0.31348  0.74635     O
C       0.7144  0.93212  0.04842     C
O      0.71473  0.01754  0.50554     O
O      0.73392  0.65254  0.10953     O
H        0.746    0.868    0.364     H
H        0.754    0.368    0.864     H
O      0.76608  0.15254  0.60953     O
O      0.78527  0.51754  0.00554     O
C       0.7856  0.43212  0.54842     C
O      0.79148  0.81348  0.24635     O
C       0.7945  0.07332  0.55232     C
H        0.799   0.4905   0.5045     H
H        0.805    0.027    0.769     H
C       0.8169   0.8362   0.3282     C
O      0.83505   0.8996  0.05777     O
H        0.837    0.303    0.065     H
C       0.8716  0.05071  0.81341     C
O      0.88365  0.39664  0.59015     O
O      0.88432  0.15182  0.03452     O
H        0.889   0.0517   0.5457     H
C       0.8919  0.25778  0.02888     C
O      0.89449  0.98428  0.87428     O
Mn     0.90287  0.26418  0.68515    Mn
Mn     0.91411  0.75624  0.13161    Mn
O      0.92236  0.15112  0.80305     O
O      0.92286  0.81581  0.36771     O
O      0.96985  0.31351  0.97749     O
H        0.974   0.5285   0.7355     H
C       0.9921  0.48714  0.78884     C
O        0.995  0.62283  0.21985     O
O      0.99794  0.54326  0.85956     O
