data_I
_chemical_name_common  '/home/zhangsd/repos/MofS-CGCNN/ML/data/SSD/clean_cifs/ATOWOW_clean'
_cell_length_a 14.05990
_cell_length_b 14.05990
_cell_length_c 14.35000
_cell_angle_alpha 60.97540
_cell_angle_beta  60.97540
_cell_angle_gamma 83.89110
_space_group_name_H-M_alt      'P 1'


loop_
_space_group_symop_operation_xyz
  'x, y, z' 

loop_
_atom_site_label
_atom_site_fract_x
_atom_site_fract_y
_atom_site_fract_z
_atom_site_type_symbol
O       0.0026   0.8512    0.158     O
C       0.0129   0.5179   0.3525     C
C        0.013   0.2092   0.8743     C
C       0.0134   0.6308   0.2862     C
C       0.0154   0.3306   0.8013     C
O       0.0166    0.289   0.4746     O
Zn     0.01975  0.01975  0.08429    Zn
C       0.0216   0.5566   0.6666     C
N       0.0228   0.9486   0.6253     N
O       0.0268   0.1786    0.965     O
C       0.0286   0.6794   0.5899     C
N       0.0302   0.0302   0.2158     N
C       0.0311   0.9185   0.7228     C
H       0.0335   0.6795   0.3025     H
H       0.0362   0.4924   0.4099     H
C       0.0476   0.4034    0.822     C
N       0.0514   0.9772   0.3747     N
C       0.0552   0.5178   0.7504     C
H       0.0648    0.377   0.8843     H
H        0.066   0.7642   0.7905     H
H       0.0686   0.2752   0.4928     H
O       0.0721   0.7421   0.5985     O
C       0.0815   0.9689   0.2772     C
H       0.0833   0.5667   0.7608     H
C       0.0991   0.8365   0.7613     C
Zn     0.09951  0.90049      0.5    Zn
H       0.1029   0.8373   0.8259     H
H       0.1451   0.8279   0.3075     H
O       0.1488   0.9974    0.842     O
H       0.1627   0.8971   0.1741     H
C       0.1635   0.9009   0.2387     C
H       0.1721   0.8549   0.6925     H
O       0.1786   0.0268    0.965     O
C       0.2092    0.013   0.8743     C
H       0.2358    0.934   0.2095     H
O       0.2579   0.9279   0.4015     O
H       0.2752   0.0686   0.4928     H
O        0.289   0.0166   0.4746     O
H       0.3205   0.9665   0.6975     H
C       0.3206   0.9714   0.4101     C
C       0.3306   0.0154   0.8013     C
C       0.3692   0.9866   0.7138     C
H        0.377   0.0648   0.8843     H
C       0.4034   0.0476    0.822     C
H       0.4333   0.9167   0.2392     H
C       0.4434   0.9784   0.3334     C
C       0.4821   0.9871   0.6475     C
C       0.4822   0.9448   0.2496     C
H       0.4924   0.0362   0.4099     H
H       0.5076   0.9638   0.5901     H
C       0.5178   0.0552   0.7504     C
C       0.5179   0.0129   0.3525     C
C       0.5566   0.0216   0.6666     C
H       0.5667   0.0833   0.7608     H
C       0.5966   0.9524    0.178     C
H        0.623   0.9352   0.1157     H
C       0.6308   0.0134   0.2862     C
C       0.6694   0.9846   0.1987     C
C       0.6794   0.0286   0.5899     C
H       0.6795   0.0335   0.3025     H
O        0.711   0.9834   0.5254     O
H       0.7248   0.9314   0.5072     H
O       0.7421   0.0721   0.5985     O
H       0.7642    0.066   0.7905     H
C       0.7908    0.987   0.1257     C
O       0.8214   0.9732    0.035     O
H       0.8279   0.1451   0.3075     H
C       0.8365   0.0991   0.7613     C
H       0.8373   0.1029   0.8259     H
O       0.8512   0.0026    0.158     O
H       0.8549   0.1721   0.6925     H
H       0.8971   0.1627   0.1741     H
Zn     0.90049  0.09951      0.5    Zn
C       0.9009   0.1635   0.2387     C
H       0.9167   0.4333   0.2392     H
C       0.9185   0.0311   0.7228     C
O       0.9279   0.2579   0.4015     O
H       0.9314   0.7248   0.5072     H
H        0.934   0.2358   0.2095     H
H       0.9352    0.623   0.1157     H
C       0.9448   0.4822   0.2496     C
N       0.9486   0.0228   0.6253     N
C       0.9524   0.5966    0.178     C
H       0.9638   0.5076   0.5901     H
H       0.9665   0.3205   0.6975     H
C       0.9689   0.0815   0.2772     C
N       0.9698   0.9698   0.7842     N
C       0.9714   0.3206   0.4101     C
O       0.9732   0.8214    0.035     O
N       0.9772   0.0514   0.3747     N
C       0.9784   0.4434   0.3334     C
Zn     0.98025  0.98025  0.91571    Zn
O       0.9834    0.711   0.5254     O
C       0.9846   0.6694   0.1987     C
C       0.9866   0.3692   0.7138     C
C        0.987   0.7908   0.1257     C
C       0.9871   0.4821   0.6475     C
O       0.9974   0.1488    0.842     O
