data_I
_chemical_name_common  '/home/zhangsd/repos/MofS-CGCNN/ML/data/SSD/clean_cifs/ATOWIQ_clean'
_cell_length_a 13.82240
_cell_length_b 13.82240
_cell_length_c 14.37600
_cell_angle_alpha 61.91820
_cell_angle_beta  61.91820
_cell_angle_gamma 79.70990
_space_group_name_H-M_alt      'P 1'


loop_
_space_group_symop_operation_xyz
  'x, y, z' 

loop_
_atom_site_label
_atom_site_fract_x
_atom_site_fract_y
_atom_site_fract_z
_atom_site_type_symbol
C       0.0075   0.2091   0.8825     C
O       0.0109   0.2857   0.4768     O
O       0.0121   0.8523   0.1491     O
C       0.0139   0.5159   0.3489     C
C       0.0144   0.3318   0.8067     C
C        0.017   0.6264   0.2827     C
Zn     0.01934  0.01934  0.08497    Zn
O       0.0221   0.1775   0.9718     O
N        0.025    0.949   0.6241     N
N       0.0278   0.0278   0.2177     N
C       0.0298    0.557   0.6638     C
C       0.0369   0.9173    0.721     C
C       0.0385   0.6783   0.5851     C
H       0.0405   0.6741   0.2978     H
H       0.0416    0.489   0.4037     H
C       0.0485   0.4035   0.8245     C
N        0.051    0.975   0.3759     N
C       0.0536    0.516   0.7544     C
H       0.0693   0.3777   0.8847     H
H       0.0741   0.2575    0.459     H
H       0.0741   0.5639   0.7715     H
O       0.0827   0.7367   0.5924     O
C       0.0827   0.9631    0.279     C
H       0.0864   0.7622   0.7755     H
Zn     0.10439  0.89561      0.5    Zn
C       0.1114   0.8324   0.7569     C
H       0.1116   0.8292    0.825     H
O       0.1477   0.9879   0.8509     O
H       0.1492   0.8156   0.3064     H
C       0.1676   0.8886   0.2431     C
H       0.1708   0.8884    0.175     H
O       0.1775   0.0221   0.9718     O
H       0.1844   0.8508   0.6936     H
C       0.2091   0.0075   0.8825     C
H       0.2378   0.9136   0.2245     H
H       0.2575   0.0741    0.459     H
O       0.2633   0.9173   0.4076     O
O       0.2857   0.0109   0.4768     O
C       0.3217   0.9615   0.4149     C
H       0.3259   0.9595   0.7022     H
C       0.3318   0.0144   0.8067     C
C       0.3736    0.983   0.7173     C
H       0.3777   0.0693   0.8847     H
C       0.4035   0.0485   0.8245     C
H       0.4361   0.9259   0.2285     H
C        0.443   0.9702   0.3362     C
C        0.484   0.9464   0.2456     C
C       0.4841   0.9861   0.6511     C
H        0.489   0.0416   0.4037     H
H        0.511   0.9584   0.5963     H
C       0.5159   0.0139   0.3489     C
C        0.516   0.0536   0.7544     C
C        0.557   0.0298   0.6638     C
H       0.5639   0.0741   0.7715     H
C       0.5965   0.9515   0.1755     C
H       0.6223   0.9307   0.1153     H
C       0.6264    0.017   0.2827     C
C       0.6682   0.9856   0.1933     C
H       0.6741   0.0405   0.2978     H
C       0.6783   0.0385   0.5851     C
O       0.7143   0.9891   0.5232     O
O       0.7367   0.0827   0.5924     O
H       0.7425   0.9259    0.541     H
H       0.7622   0.0864   0.7755     H
C       0.7909   0.9925   0.1175     C
H       0.8156   0.1492   0.3064     H
O       0.8225   0.9779   0.0282     O
H       0.8292   0.1116    0.825     H
C       0.8324   0.1114   0.7569     C
H       0.8508   0.1844   0.6936     H
O       0.8523   0.0121   0.1491     O
H       0.8884   0.1708    0.175     H
C       0.8886   0.1676   0.2431     C
Zn     0.89561  0.10439      0.5    Zn
H       0.9136   0.2378   0.2245     H
C       0.9173   0.0369    0.721     C
O       0.9173   0.2633   0.4076     O
H       0.9259   0.4361   0.2285     H
H       0.9259   0.7425    0.541     H
H       0.9307   0.6223   0.1153     H
C       0.9464    0.484   0.2456     C
N        0.949    0.025   0.6241     N
C       0.9515   0.5965   0.1755     C
H       0.9584    0.511   0.5963     H
H       0.9595   0.3259   0.7022     H
C       0.9615   0.3217   0.4149     C
C       0.9631   0.0827    0.279     C
C       0.9702    0.443   0.3362     C
N       0.9722   0.9722   0.7823     N
N        0.975    0.051   0.3759     N
O       0.9779   0.8225   0.0282     O
Zn     0.98066  0.98066  0.91503    Zn
C        0.983   0.3736   0.7173     C
C       0.9856   0.6682   0.1933     C
C       0.9861   0.4841   0.6511     C
O       0.9879   0.1477   0.8509     O
O       0.9891   0.7143   0.5232     O
C       0.9925   0.7909   0.1175     C
