data_I
_chemical_name_common  '/home/zhangsd/repos/MofS-CGCNN/ML/data/SSD/clean_cifs/AVESAW_clean'
_cell_length_a 10.34170
_cell_length_b 13.41480
_cell_length_c 17.56770
_cell_angle_alpha 90.00000
_cell_angle_beta  107.11800
_cell_angle_gamma 90.00000
_space_group_name_H-M_alt      'P 1'


loop_
_space_group_symop_operation_xyz
  'x, y, z' 

loop_
_atom_site_label
_atom_site_fract_x
_atom_site_fract_y
_atom_site_fract_z
_atom_site_type_symbol
C      0.00691   0.5349  0.01382     C
C      0.01264   0.9068  0.54968     C
N      0.01484   0.2019  0.70308     N
Cd     0.01508  0.28934  0.03016    Cd
H       0.0153   0.3221    0.634     H
H       0.0166   0.6933   0.5976     H
H       0.0202    0.021   0.0404     H
N      0.02073   0.6254  0.04146     N
H       0.0239   0.4654   0.4762     H
C      0.03461   0.7597  0.58962     C
N      0.03479   0.4626  0.06958     N
C      0.05301   0.2599  0.65062     C
N      0.05736   0.3219  0.45552     N
N      0.06181   0.6143  0.12362     N
C      0.06752   0.5147  0.13504     C
N       0.0843   0.3354   0.8606     N
H        0.092   0.0671   0.7386     H
H       0.0927   0.4858   0.1854     H
C      0.09416   0.1224  0.70712     C
H       0.0985   0.8269    0.793     H
Cd     0.10563  0.74716  0.21125    Cd
N      0.11054    0.739  0.88728     N
N      0.13702   0.3344  0.94164     N
N      0.13892    0.899  0.59524     N
C      0.14098   0.7723  0.82256     C
N      0.14978   0.2194  0.62516     N
N      0.15365   0.8022   0.6217     N
H         0.16   0.3977   0.7812     H
C      0.17223   0.3851  0.83486     C
N      0.17642     0.13  0.66184     N
N      0.19538   0.8344  0.05836     N
C      0.19827   0.6618  0.90954     C
H       0.2049   0.6224   0.9542     H
N      0.22326    0.239  0.11272     N
N       0.2237   0.8354   0.1394     N
N      0.23711   0.7205  0.80462     N
Cl     0.23979  0.09007  0.47958    Cl
H       0.2507   0.1224   0.0458     H
C      0.25305   0.3833   0.9573     C
Cd     0.26836  0.27614  0.53672    Cd
N      0.27333   0.6484  0.86146     N
H       0.2781   0.5665   0.5562     H
N      0.28038    0.416  0.89196     N
C      0.28873   0.1618  0.09046     C
C      0.29575   0.8833   0.0427     C
H       0.3011   0.8938   0.9914     H
C      0.30247   0.5333  0.60494     C
N      0.30549    0.433  0.61098     N
H       0.3055   0.3269    0.207     H
H       0.3097   0.3938   0.0086     H
N      0.31176   0.7019  0.29692     N
Cd     0.31361  0.01246  0.62722    Cd
C      0.31842   0.2723  0.17744     C
N      0.33713   0.5804  0.67426     N
C      0.33737   0.8851  0.16514     C
C      0.34487   0.4213  0.68974     C
H       0.3534   0.5671   0.2614     H
Cd     0.35658  0.75208  0.71316    Cd
H       0.3569   0.3589   0.7138     H
N       0.3654   0.5051   0.7308     N
H       0.3788   0.8977   0.2188     H
H       0.3813   0.8221    0.366     H
Cl     0.38642  0.93834  0.77284    Cl
C      0.38704   0.6224  0.29288     C
N      0.38842    0.916  0.10804     N
N      0.39816   0.3219  0.45552     N
C      0.40239   0.7599  0.34938     C
N      0.41187   0.1484  0.13854     N
H        0.419   0.1933   0.4024     H
N      0.43249   0.2205  0.19538     N
Cd     0.43468  0.52753  0.86936    Cd
C      0.44499   0.2597  0.41038     C
H       0.4523   0.4654   0.4762     H
N      0.45632    0.899  0.59524     N
C      0.46296   0.4068  0.45032     C
N      0.46805   0.8022   0.6217     N
N      0.47538   0.2194  0.62516     N
N      0.48542     0.13  0.66184     N
N      0.51458     0.63  0.33816     N
N      0.52462   0.7194  0.37484     N
N      0.53195   0.3022   0.3783     N
C      0.53704   0.9068  0.54968     C
N      0.54368    0.399  0.40476     N
H       0.5477   0.9654   0.5238     H
C      0.55501   0.7597  0.58962     C
Cd     0.56532  0.02753  0.13064    Cd
N      0.56751   0.7205  0.80462     N
H        0.581   0.6933   0.5976     H
N      0.58813   0.6484  0.86146     N
C      0.59761   0.2599  0.65062     C
N      0.60184   0.8219  0.54448     N
N      0.61158    0.416  0.89196     N
C      0.61296   0.1224  0.70712     C
Cl     0.61358  0.43834  0.22716    Cl
H       0.6187   0.3221    0.634     H
H       0.6212   0.3977   0.7812     H
N       0.6346   0.0051   0.2692     N
H       0.6431   0.8589   0.2862     H
Cd     0.64342  0.25208  0.28684    Cd
H       0.6466   0.0671   0.7386     H
C      0.65513   0.9213  0.31026     C
C      0.66263   0.3851  0.83486     C
N      0.66287   0.0804  0.32574     N
C      0.68158   0.7723  0.82256     C
Cd     0.68639  0.51246  0.37278    Cd
N      0.68824   0.2019  0.70308     N
H       0.6903   0.8938   0.9914     H
H       0.6945   0.8269    0.793     H
N      0.69451    0.933  0.38902     N
C      0.69753   0.0333  0.39506     C
H       0.6989   0.3938   0.0086     H
C      0.70425   0.3833   0.9573     C
C      0.71127   0.6618  0.90954     C
N      0.71962    0.916  0.10804     N
H       0.7219   0.0665   0.4438     H
N      0.72667   0.1484  0.13854     N
Cd     0.73164  0.77614  0.46328    Cd
C      0.74695   0.8833   0.0427     C
H       0.7493   0.6224   0.9542     H
Cl     0.76021  0.59007  0.52042    Cl
N      0.76289   0.2205  0.19538     N
N       0.7763   0.3354   0.8606     N
N      0.77674    0.739  0.88728     N
H       0.7951   0.1224   0.0458     H
C      0.80173   0.1618  0.09046     C
N      0.80462   0.3344  0.94164     N
N      0.82358     0.63  0.33816     N
C      0.82777   0.8851  0.16514     C
H         0.84   0.8977   0.2188     H
N      0.84635   0.3022   0.3783     N
N      0.85022   0.7194  0.37484     N
C      0.85902   0.2723  0.17744     C
N      0.86108    0.399  0.40476     N
N      0.86298   0.8344  0.05836     N
N      0.88946    0.239  0.11272     N
Cd     0.89437  0.24716  0.78874    Cd
H       0.9015   0.3269    0.207     H
C      0.90584   0.6224  0.29288     C
H       0.9073   0.9858   0.8146     H
H        0.908   0.5671   0.2614     H
N       0.9157   0.8354   0.1394     N
C      0.93248   0.0147  0.86496     C
N      0.93819   0.1143  0.87638     N
N      0.94264   0.8219  0.54448     N
C      0.94699   0.7599  0.34938     C
N      0.96521   0.9626  0.93042     N
C      0.96539   0.2597  0.41038     C
H       0.9761   0.9654   0.5238     H
N      0.97927   0.1254  0.95854     N
H       0.9798    0.521   0.9596     H
H       0.9834   0.1933   0.4024     H
H       0.9847   0.8221    0.366     H
Cd     0.98492  0.78934  0.96984    Cd
N      0.98516   0.7019  0.29692     N
C      0.98736   0.4068  0.45032     C
C      0.99309   0.0349  0.98618     C
