data_I
_chemical_name_common  '/home/zhangsd/repos/MofS-CGCNN/ML/data/SSD/clean_cifs/AVUPIR_SL'
_cell_length_a 11.94640
_cell_length_b 11.94640
_cell_length_c 11.94640
_cell_angle_alpha 113.14020
_cell_angle_beta  113.14020
_cell_angle_gamma 113.14020
_space_group_name_H-M_alt      'P 1'


loop_
_space_group_symop_operation_xyz
  'x, y, z' 

loop_
_atom_site_label
_atom_site_fract_x
_atom_site_fract_y
_atom_site_fract_z
_atom_site_type_symbol
Zr         0.0     -0.0     -0.0    Zr
N       0.0008   0.5819   0.6208     N
C       0.0018   0.3135   0.2679     C
H      0.02562  0.25006  0.31192     H
O       0.0705   0.2132   0.0868     O
O       0.0868   0.0705   0.2132     O
H      0.12661  0.77958  0.84924     H
O       0.1285    0.499   0.1951     O
H       0.1285  0.59003  0.23087     H
P       0.1347   0.3829   0.2258     P
C       0.1441   0.5731   0.5302     C
H      0.15076  0.87339  0.22042     H
H      0.16786   0.6545  0.49997     H
C       0.1692   0.6576   0.6833     C
O       0.1951   0.1285    0.499     O
H      0.20856  0.24879   0.7542     H
O       0.2132   0.0868   0.0705     O
H      0.22042  0.15076  0.87339     H
P       0.2258   0.1347   0.3829     P
H      0.22774  0.63303  0.76083     H
H       0.2391  0.56075  0.55651     H
H      0.23917  0.77226  0.36697     H
H       0.2458  0.79144  0.75121     H
H      0.24879   0.7542  0.20856     H
H      0.25006  0.31192  0.02562     H
C       0.2679   0.0018   0.3135     C
O       0.3034   0.4553   0.3651     O
H      0.31192  0.02562  0.25006     H
C       0.3135   0.2679   0.0018     C
C       0.3167   0.8308   0.3424     C
C       0.3424   0.3167   0.8308     C
H       0.3455  0.50003  0.83214     H
O       0.3651   0.3034   0.4553     O
H      0.36697  0.23917  0.77226     H
N       0.3792   0.9992   0.4181     N
P       0.3829   0.2258   0.1347     P
H      0.40997  0.76913   0.8715     H
N       0.4181   0.3792   0.9992     N
C       0.4269   0.4698   0.8559     C
H      0.43925  0.44349   0.7609     H
H      0.44349   0.7609  0.43925     H
O       0.4553   0.3651   0.3034     O
C       0.4698   0.8559   0.4269     C
O        0.499   0.1951   0.1285     O
H      0.49997  0.16786   0.6545     H
Zr         0.5      0.5      0.5    Zr
H      0.50003  0.83214   0.3455     H
O        0.501   0.8049   0.8715     O
C       0.5302   0.1441   0.5731     C
O       0.5447   0.6349   0.6966     O
H      0.55651   0.2391  0.56075     H
H      0.56075  0.55651   0.2391     H
C       0.5731   0.5302   0.1441     C
N       0.5819   0.6208   0.0008     N
H      0.59003  0.23087   0.1285     H
P       0.6171   0.7742   0.8653     P
N       0.6208   0.0008   0.5819     N
H      0.63303  0.76083  0.22774     H
O       0.6349   0.6966   0.5447     O
H       0.6545  0.49997  0.16786     H
C       0.6576   0.6833   0.1692     C
C       0.6833   0.1692   0.6576     C
C       0.6865   0.7321   0.9982     C
H      0.68808  0.97438  0.74994     H
O       0.6966   0.5447   0.6349     O
C       0.7321   0.9982   0.6865     C
H      0.74994  0.68808  0.97438     H
H      0.75121   0.2458  0.79144     H
H       0.7542  0.20856  0.24879     H
H      0.76083  0.22774  0.63303     H
H       0.7609  0.43925  0.44349     H
H      0.77226  0.36697  0.23917     H
P       0.7742   0.8653   0.6171     P
H      0.77958  0.84924  0.12661     H
O       0.7868   0.9132   0.9295     O
H      0.79144  0.75121   0.2458     H
O       0.8049   0.8715    0.501     O
C       0.8308   0.3424   0.3167     C
H      0.83214   0.3455  0.50003     H
H      0.84924  0.12661  0.77958     H
C       0.8559   0.4269   0.4698     C
P       0.8653   0.6171   0.7742     P
H       0.8715  0.40997  0.76913     H
O       0.8715    0.501   0.8049     O
H      0.87339  0.22042  0.15076     H
O       0.9132   0.9295   0.7868     O
O       0.9295   0.7868   0.9132     O
H      0.97438  0.74994  0.68808     H
C       0.9982   0.6865   0.7321     C
N       0.9992   0.4181   0.3792     N
