data_I
_chemical_name_common  '/home/zhangsd/repos/MofS-CGCNN/ML/data/SSD/clean_cifs/AXAFAG_clean'
_cell_length_a 13.44870
_cell_length_b 17.92100
_cell_length_c 19.90260
_cell_angle_alpha 90.00000
_cell_angle_beta  90.98330
_cell_angle_gamma 90.00000
_space_group_name_H-M_alt      'P 1'


loop_
_space_group_symop_operation_xyz
  'x, y, z' 

loop_
_atom_site_label
_atom_site_fract_x
_atom_site_fract_y
_atom_site_fract_z
_atom_site_type_symbol
P       0.0062  0.56105  0.37162     P
P       0.0092  0.57609  0.87924     P
H       0.0114    0.988   0.8941     H
O        0.019    0.475   0.0619     O
O       0.0206   0.4576   0.1892     O
O       0.0208   0.4809   0.5634     O
O       0.0231   0.3458   0.1102     O
O       0.0244   0.4833   0.6919     O
H       0.0282   0.9771   0.3869     H
O       0.0287   0.3602   0.6289     O
O       0.0383   0.0001   0.6044     O
F       0.0399   0.7803   0.3592     F
O       0.0417   0.9888   0.1058     O
F        0.043   0.7938   0.8665     F
H       0.0674   0.8735   0.8808     H
H       0.0859   0.8463    0.375     H
O       0.1083   0.9199   0.8761     O
O       0.1098   0.9052     0.38     O
O       0.1191   0.1082   0.1469     O
O       0.1214   0.1205   0.6346     O
U      0.12144  0.23814  0.12271     U
O       0.1219   0.5542   0.3728     O
U      0.12354  0.25165  0.62274     U
O        0.126   0.5676   0.8801     O
P       0.1413  0.04169  0.61204     P
P        0.143  0.03242  0.11849     P
U      0.15096  0.47817  0.27095     U
U      0.15116  0.50755  0.48819     U
U       0.1522  0.50519  0.99059     U
U      0.15281  0.49825  0.77448     U
O        0.192    0.038    0.545     O
O       0.1951   0.0376   0.0516     O
O       0.1997   0.9969   0.6646     O
O       0.2012    0.985   0.1685     O
P       0.2253  0.92209  0.87172     P
P        0.227  0.90482  0.37479     P
O       0.2351   0.3482   0.6036     O
O       0.2356   0.3317   0.0973     O
O       0.2386   0.4721   0.0846     O
O       0.2434   0.4884    0.585     O
O       0.2457    0.415   0.1981     O
O       0.2489   0.4377   0.7011     O
O       0.2511   0.9377   0.7989     O
O       0.2543    0.915   0.3019     O
O       0.2566   0.9884    0.915     O
O       0.2614   0.9721   0.4154     O
O       0.2644   0.8317   0.4027     O
O       0.2649   0.8482   0.8964     O
P        0.273  0.40482  0.12521     P
P       0.2747  0.42209  0.62828     P
O       0.2988    0.485   0.3315     O
O       0.3003   0.4969   0.8354     O
O       0.3049   0.5376   0.4484     O
O        0.308    0.538    0.955     O
U      0.34719  0.99825  0.72552     U
U       0.3478  0.00519  0.50941     U
U      0.34884  0.00755  0.01181     U
U      0.34904  0.97817  0.22905     U
P        0.357  0.53242  0.38151     P
P       0.3587  0.54169  0.88796     P
O        0.374   0.0676   0.6199     O
U      0.37646  0.75165  0.87726     U
O       0.3781   0.0542   0.1272     O
U      0.37856  0.73814  0.37729     U
O       0.3786   0.6205   0.8654     O
O       0.3809   0.6082   0.3531     O
O       0.3902   0.4052     0.12     O
O       0.3917   0.4199   0.6239     O
H       0.4141   0.3463    0.125     H
H       0.4326   0.3735   0.6192     H
F        0.457   0.2938   0.6335     F
O       0.4583   0.4888   0.3942     O
F       0.4601   0.2803   0.1408     F
O       0.4617   0.5001   0.8956     O
O       0.4713   0.8602   0.8711     O
H       0.4718   0.4771   0.1131     H
O       0.4756   0.9833   0.8081     O
O       0.4769   0.8458   0.3898     O
O       0.4792   0.9809   0.9366     O
O       0.4794   0.9576   0.3108     O
O        0.481    0.975   0.4381     O
H       0.4886    0.488   0.6059     H
P       0.4908  0.07609  0.62076     P
P       0.4938  0.06105  0.12838     P
P       0.5062  0.93895  0.87162     P
P       0.5092  0.92391  0.37924     P
H       0.5114    0.512   0.3941     H
O        0.519    0.025   0.5619     O
O       0.5206   0.0424   0.6892     O
O       0.5208   0.0191   0.0634     O
O       0.5231   0.1542   0.6102     O
O       0.5244   0.0167   0.1919     O
H       0.5282   0.5229   0.8869     H
O       0.5287   0.1398   0.1289     O
O       0.5383   0.4999   0.1044     O
F       0.5399   0.7197   0.8592     F
O       0.5417   0.5112   0.6058     O
F        0.543   0.7062   0.3665     F
H       0.5674   0.6265   0.3808     H
H       0.5859   0.6537    0.875     H
O       0.6083   0.5801   0.3761     O
O       0.6098   0.5948     0.88     O
O       0.6191   0.3918   0.6469     O
O       0.6214   0.3795   0.1346     O
U      0.62144  0.26186  0.62271     U
O       0.6219   0.9458   0.8728     O
U      0.62354  0.24835  0.12274     U
O        0.626   0.9324   0.3801     O
P       0.6413  0.45831  0.11204     P
P        0.643  0.46758  0.61849     P
U      0.65096  0.02183  0.77095     U
U      0.65116  0.99245  0.98819     U
U       0.6522  0.99481  0.49059     U
U      0.65281  0.00175  0.27448     U
O        0.692    0.462    0.045     O
O       0.6951   0.4624   0.5516     O
O       0.6997   0.5031   0.1646     O
O       0.7012    0.515   0.6685     O
P       0.7253  0.57791  0.37172     P
P        0.727  0.59518  0.87479     P
O       0.7351   0.1518   0.1036     O
O       0.7356   0.1683   0.5973     O
O       0.7386   0.0279   0.5846     O
O       0.7434   0.0116    0.085     O
O       0.7457    0.085   0.6981     O
O       0.7489   0.0623   0.2011     O
O       0.7511   0.5623   0.2989     O
O       0.7543    0.585   0.8019     O
O       0.7566   0.5116    0.415     O
O       0.7614   0.5279   0.9154     O
O       0.7644   0.6683   0.9027     O
O       0.7649   0.6518   0.3964     O
P        0.773  0.09518  0.62521     P
P       0.7747  0.07791  0.12828     P
O       0.7988    0.015   0.8315     O
O       0.8003   0.0031   0.3354     O
O       0.8049   0.9624   0.9484     O
O        0.808    0.962    0.455     O
U      0.84719  0.50175  0.22552     U
U       0.8478  0.49481  0.00941     U
U      0.84884  0.49245  0.51181     U
U      0.84904  0.52183  0.72905     U
P        0.857  0.96758  0.88151     P
P       0.8587  0.95831  0.38796     P
O        0.874   0.4324   0.1199     O
U      0.87646  0.74835  0.37726     U
O       0.8781   0.4458   0.6272     O
U      0.87856  0.76186  0.87729     U
O       0.8786   0.8795   0.3654     O
O       0.8809   0.8918   0.8531     O
O       0.8902   0.0948     0.62     O
O       0.8917   0.0801   0.1239     O
H       0.9141   0.1537    0.625     H
H       0.9326   0.1265   0.1192     H
F        0.957   0.2062   0.1335     F
O       0.9583   0.0112   0.8942     O
F       0.9601   0.2197   0.6408     F
O       0.9617   0.9999   0.3956     O
O       0.9713   0.6398   0.3711     O
H       0.9718   0.0229   0.6131     H
O       0.9756   0.5167   0.3081     O
O       0.9769   0.6542   0.8898     O
O       0.9792   0.5191   0.4366     O
O       0.9794   0.5424   0.8108     O
O        0.981    0.525   0.9381     O
H       0.9886    0.012   0.1059     H
P       0.9908  0.42391  0.12076     P
P       0.9938  0.43895  0.62838     P
