data_I
_chemical_name_common  '/home/zhangsd/repos/MofS-CGCNN/ML/data/SSD/clean_cifs/AXUHAD_clean'
_cell_length_a 22.61290
_cell_length_b 22.61290
_cell_length_c 27.69470
_cell_angle_alpha 114.09500
_cell_angle_beta  114.09500
_cell_angle_gamma 90.00000
_space_group_name_H-M_alt      'P 1'


loop_
_space_group_symop_operation_xyz
  'x, y, z' 

loop_
_atom_site_label
_atom_site_fract_x
_atom_site_fract_y
_atom_site_fract_z
_atom_site_type_symbol
H       0.0017   0.0753   0.0552     H
H       0.0035   0.8916   0.4788     H
C      0.00377  0.06462  0.34908     C
H       0.0057   0.6742   0.6282     H
C      0.00676  0.09307  0.44886     C
C      0.00695  0.80805  0.02674     C
H       0.0092   0.3492   0.0458     H
C       0.0112  0.85267  0.75718     C
C        0.013   0.3787    0.481     C
C      0.01549  0.91985  0.78904     C
O      0.01807  0.17718  0.30354     O
S      0.01896  0.03128   0.2482     S
C      0.01979  0.30805  0.02674     C
H       0.0201   0.9983   0.4448     H
H       0.0247   0.4128   0.5212     H
C      0.02495     0.75      0.0     C
C      0.02778  0.96245  0.71224     C
H       0.0281   0.3972   0.4606     H
C      0.02976  0.93451  0.61864     C
S      0.03128  0.72924   0.7482     S
C        0.032   0.8977    0.519     C
H       0.0336   0.8627   0.9412     H
H       0.0344   0.3415    0.483     H
H       0.0366   0.8492   0.0458     H
C      0.03755  0.81554  0.78776     C
C      0.04024  0.91114  0.96068     C
C      0.04282  0.94826  0.85046     C
H        0.046   0.9943   0.8718     H
H       0.0466   0.1902   0.4782     H
C      0.04954  0.04024  0.46068     C
H       0.0497   0.0831   0.3694     H
H       0.0514   0.8585    0.517     H
C      0.05174  0.69236  0.64954     C
H        0.053   0.5732   0.9966     H
H       0.0535   0.5753   0.0552     H
C      0.05438  0.19402  0.97436     C
H       0.0564   0.9268   0.0034     H
C       0.0579  0.64421  0.55114     C
H       0.0612   0.6734   0.9178     H
H       0.0634   0.0281   0.9606     H
C      0.06374  0.15014  0.47708     C
C      0.06462  0.84531  0.84908     C
C      0.06549  0.91112  0.88136     C
H       0.0663   0.1535    0.956     H
H       0.0675   0.9366   0.5394     H
H       0.0684    0.712   0.5218     H
H       0.0732    0.553   0.4966     H
H       0.0753   0.5535   0.5552     H
H       0.0755   0.6399   0.4826     H
H       0.0766   0.0564   0.5034     H
H       0.0785   0.0336   0.4412     H
C      0.07956  0.58886  0.03932     C
C      0.08002  0.30598  0.02564     C
C      0.08015  0.72645  0.71096     C
H       0.0826   0.0949   0.8072     H
H       0.0831   0.8197   0.8694     H
O      0.08665  0.25208  0.42002     O
C      0.08666  0.67306  0.52292     C
H       0.0872   0.4753   0.9788     H
C      0.08744  0.19928   0.3268     C
H       0.0887   0.1397   0.4538     H
C      0.08886  0.57956  0.53932     C
C      0.08888  0.68413  0.61864     C
C      0.09062     0.75      0.0     C
H       0.0924   0.6373   0.0588     H
H       0.0929   0.1573   0.5174     H
C      0.09307   0.9421  0.94886     C
H       0.0949   0.2246   0.3072     H
C      0.09549   0.9888  0.74282     C
C       0.0978  0.95718  0.64954     C
N      0.09805     0.25      0.0     N
C      0.09814  0.70516  0.95172     C
C       0.1023    0.013    0.981     C
H       0.1028   0.4719   0.0394     H
H       0.1084   0.0247   0.0212     H
H       0.1085   0.1604   0.3178     H
H       0.1103   0.3465    0.044     H
C      0.11926  0.24194  0.39246     C
C       0.1213    0.487    0.019     C
H       0.1225    0.954   0.6282     H
O      0.12636  0.01807  0.80354     O
C      0.12752  0.08744   0.8268     C
C      0.13081  0.98451  0.71096     C
H       0.1349   0.6859   0.5462     H
H       0.1373   0.5924   0.5588     H
H       0.1397   0.8651   0.9538     H
H       0.1399   0.5755   0.9826     H
H       0.1415   0.0344    0.983     H
H       0.1434   0.8266   0.0822     H
C      0.14421   0.5579  0.05114     C
C      0.14642  0.79484  0.04828     C
C      0.14733  0.75402  0.74282     C
O       0.1491  0.18051  0.91328     O
C      0.15014  0.91334  0.97708     C
C      0.15052  0.11926  0.89246     C
H       0.1508   0.4908   0.4542     H
H       0.1535   0.3897    0.456     H
C      0.15469  0.71554  0.65092     C
H       0.1573   0.9245   0.0174     H
H       0.1574   0.1085   0.8178     H
H       0.1585   0.4656    0.017     H
C      0.16012  0.70726  0.95354     C
H       0.1604   0.7093   0.8178     H
H       0.1647   0.6767     0.92     H
O      0.16663  0.83206  0.57998     O
O      0.16794  0.08665  0.92002     O
C      0.17306  0.58666  0.02292     C
H       0.1734   0.5612   0.4178     H
H       0.1742   0.5057   0.1282     H
H       0.1767   0.6647     0.42     H
O      0.17718  0.78547  0.80354     O
H       0.1803   0.7137   0.6306     H
O      0.18051  0.26418  0.41328     O
C      0.18413  0.58888  0.11864     C
C      0.18446  0.74979  0.71224     C
H       0.1859   0.6349   0.0462     H
H       0.1902   0.9316   0.9782     H
C      0.19195  0.48021  0.47326     C
Co     0.19207     0.25      0.0    Co
C      0.19236  0.55174  0.14954     C
C      0.19402  0.41998  0.47436     C
H       0.1966   0.0366   0.5458     H
H       0.1975   0.9337    0.544     H
C      0.19928  0.73936   0.8268     C
C      0.20516  0.59814  0.45172     C
C      0.20658  0.79274  0.04646     C
C      0.20726  0.66012  0.45354     C
H       0.2093   0.6604   0.3178     H
H        0.212   0.5684   0.0218     H
H       0.2123   0.7246   0.3072     H
H       0.2137   0.6803   0.1306     H
N       0.2137     0.75     -0.0     N
O      0.21453  0.87364  0.69646     O
C      0.21554  0.65469  0.15092     C
S      0.21692  0.01896   0.7482     S
C      0.21869  0.00695  0.52674     C
C      0.21966  0.94562  0.52564     C
H       0.2246   0.7123   0.8072     H
C      0.22645  0.58015  0.21096     C
C       0.2268  0.84948  0.60754     C
S      0.22924  0.53128   0.2482     S
O      0.23277  0.76418  0.41328     O
O      0.23582  0.31949  0.08672     O
C      0.23936  0.69928   0.3268     C
C      0.24194   0.7732  0.89246     C
H       0.2433   0.1647     0.42     H
H       0.2444   0.0612   0.4178     H
H       0.2447   0.8233     0.08     H
C      0.24598  0.90451  0.75718     C
C      0.24628  0.16012  0.45354     C
C      0.24656  0.09814  0.45172     C
O      0.24792  0.41335  0.07998     O
C      0.24979  0.68446  0.21224     C
C         0.25  0.02495      0.5     C
C         0.25  0.09062      0.5     C
N         0.25   0.2137      0.5     N
Co        0.25  0.30793      0.5    Co
N         0.25  0.40195      0.5     N
C         0.25  0.52495      0.5     C
C         0.25  0.59062      0.5     C
N         0.25   0.7137      0.5     N
Co        0.25  0.80793      0.5    Co
N         0.25  0.90195      0.5     N
C      0.25021  0.97222  0.78776     C
O      0.25208  0.83337  0.92002     O
C      0.25344  0.14642  0.54828     C
C      0.25372  0.20658  0.54646     C
C      0.25402  0.64733  0.24282     C
H       0.2553   0.2433     0.92     H
H       0.2556   0.1434   0.5822     H
H       0.2567   0.2447     0.58     H
C      0.25806  0.38074  0.10754     C
C      0.26064  0.87248   0.6732     C
O      0.26418  0.73277  0.91328     O
O      0.26723   0.8509  0.58672     O
S      0.27076  0.78308   0.7518     S
C       0.2732  0.74194  0.39246     C
C      0.27355  0.86919  0.78904     C
H       0.2754   0.4051   0.1928     H
C      0.28034  0.91998  0.47436     C
C      0.28131  0.98021  0.47326     C
S      0.28308  0.77076   0.2518     S
C      0.28446  0.00377  0.84908     C
O      0.28547  0.67718  0.30354     O
H       0.2863   0.0497   0.8694     H
N       0.2863     0.25      1.0     N
H       0.2877   0.9174   0.6928     H
H        0.288   0.0466   0.9782     H
H       0.2907   0.8426   0.6822     H
C      0.29274  0.70658  0.54646     C
C      0.29342  0.24628  0.95354     C
C      0.29484  0.64642  0.54828     C
C      0.30072  0.41256   0.1732     C
H       0.3025   0.8897    0.456     H
H       0.3034   0.9908   0.4542     H
C      0.30598  0.44562  0.52564     C
C      0.30764   0.9022  0.85046     C
Co     0.30793     0.75     -0.0    Co
C      0.30805  0.50695  0.52674     C
H       0.3098   0.4534   0.0218     H
H       0.3141   0.0887   0.9538     H
C      0.31554  0.53755  0.28776     C
C      0.31587  0.97024  0.88136     C
O      0.31949   0.3509  0.58672     O
H       0.3197   0.5831   0.3694     H
O      0.32282  0.48193  0.19646     O
H       0.3233   0.7447     0.58     H
H       0.3258   0.8775   0.8718     H
H       0.3266   0.6434   0.5822     H
C      0.32694  0.06374  0.97708     C
O      0.33206  0.66663  0.07998     O
O      0.33337  0.75208  0.42002     O
H       0.3353   0.2567     0.08     H
H       0.3396   0.3915   0.1822     H
C      0.33988  0.25372  0.04646     C
H       0.3415   0.9486    0.983     H
H       0.3426   0.7907   0.1822     H
H       0.3427   0.4071   0.9826     H
C      0.34531  0.56462  0.34908     C
H       0.3465   0.4337    0.544     H
H       0.3492   0.5366   0.5458     H
C      0.34948   0.7268  0.10754     C
C      0.34986  0.43626  0.02292     C
O       0.3509  0.76723  0.08672     O
C      0.35267   0.5112  0.25718     C
C      0.35358  0.24656  0.95172     C
C      0.35579  0.00676  0.94886     C
H       0.3566   0.2444   0.9178     H
H       0.3585   0.5514    0.017     H
H       0.3601   0.0929   0.0174     H
H       0.3603   0.4113   0.0462     H
H       0.3627   0.5336   0.4412     H
H       0.3651   0.6397   0.4538     H
C      0.36919  0.77355  0.28904     C
C      0.37248  0.76064   0.1732     C
O      0.37364  0.71453  0.19646     O
H       0.3775   0.8258   0.3718     H
C       0.3787    0.968    0.981     C
C      0.38074  0.34948  0.60754     C
H       0.3897   0.8025    0.956     H
H       0.3915   0.3426   0.6822     H
H       0.3916   0.5035   0.9788     H
H       0.3972   0.9325   0.9606     H
C       0.3977    0.532    0.019     C
C      0.40186  0.25344  0.04828     C
N      0.40195     0.75      1.0     N
C       0.4022  0.80764  0.35046     C
C      0.40451  0.74598  0.25718     C
H       0.4051   0.4174   0.6928     H
C      0.40693  0.49324  0.05114     C
H       0.4071   0.1399   0.4826     H
H       0.4076   0.0785   0.9412     H
C      0.40938     0.25      1.0     C
C      0.41112  0.56549  0.38136     C
C      0.41114  0.54024  0.46068     C
H       0.4113   0.1859   0.5462     H
C      0.41256  0.37248   0.6732     C
H       0.4128   0.9965   0.0212     H
C      0.41334  0.65014  0.47708     C
O      0.41335  0.33206  0.57998     O
H       0.4169   0.4503   0.1306     H
H       0.4174   0.7877   0.1928     H
C      0.41985  0.51549  0.28904     C
C      0.41998  0.78034  0.97436     C
C      0.42044  0.04954  0.96068     C
H       0.4215   0.0924   0.5588     H
H       0.4234    0.053   0.4966     H
H       0.4245   0.6573   0.5174     H
H       0.4247   0.4983   0.4448     H
H       0.4268   0.5564   0.5034     H
H       0.4316   0.6902   0.4782     H
H       0.4325   0.8972   0.4606     H
H       0.4337   0.6975    0.044     H
C      0.43451  0.52976  0.11864     C
C      0.43538  0.49623  0.15092     C
C      0.43626  0.17306  0.52292     C
H       0.4366   0.5675   0.0394     H
H       0.4388   0.2556   0.0822     H
C       0.4421  0.59307  0.44886     C
H       0.4436   0.4234   0.9966     H
C      0.44562  0.71966  0.02564     C
H       0.4465   0.0201   0.9448     H
H        0.447   0.0766   0.0034     H
C      0.44826  0.54282  0.35046     C
H       0.4486   0.8415    0.483     H
H       0.4503   0.2137   0.6306     H
C      0.45046  0.07956  0.53932     C
H       0.4534    0.212   0.5218     H
H        0.454   0.6225   0.1282     H
C      0.45718   0.5978  0.14954     C
C      0.45976  0.45046  0.03932     C
C      0.46245  0.52778  0.21224     C
H       0.4634   0.3034   0.9542     H
H       0.4656   0.3585    0.517     H
H       0.4664   0.4215   0.0588     H
C        0.468   0.8787    0.481     C
S      0.46872  0.48104   0.2518     S
C      0.47024  0.81587  0.38136     C
H       0.4719   0.4366   0.5394     H
C      0.47222  0.75021  0.28776     C
C      0.47505     0.25      0.0     C
H       0.4753   0.3916   0.4788     H
H       0.4799   0.0535   0.5552     H
C      0.48021  0.78131  0.97326     C
S      0.48104  0.28308   0.7518     S
O      0.48193  0.37364  0.69646     O
C      0.48451  0.63081  0.21096     C
C        0.487   0.3977    0.519     C
C       0.4888  0.59549  0.24282     C
H       0.4908   0.8034   0.9542     H
C      0.49305  0.28131  0.97326     C
C      0.49324  0.14421  0.55114     C
H       0.4943    0.546   0.3718     H
C      0.49623  0.21554  0.65092     C
H       0.4965   0.9128   0.5212     H
H       0.4983   0.5201   0.9448     H
H       0.5017   0.4799   0.0552     H
H       0.5035   0.0872   0.4788     H
C      0.50377  0.78446  0.34908     C
H       0.5057    0.454   0.6282     H
C      0.50676  0.85579  0.44886     C
C      0.50695  0.71869  0.02674     C
H       0.5092   0.1966   0.0458     H
C       0.5112  0.40451  0.75718     C
C        0.513   0.6023    0.481     C
C      0.51549  0.36919  0.78904     C
O      0.51807  0.62636  0.30354     O
S      0.51896  0.71692   0.2482     S
C      0.51979  0.21869  0.02674     C
H       0.5201   0.9465   0.4448     H
H       0.5247   0.6084   0.5212     H
C      0.52495     0.75      0.0     C
C      0.52778  0.24979  0.71224     C
H       0.5281   0.5634   0.4606     H
C      0.52976  0.18413  0.61864     C
S      0.53128  0.51896   0.7482     S
C        0.532   0.1213    0.519     C
H       0.5336   0.5785   0.9412     H
H       0.5344   0.6415    0.483     H
H       0.5366   0.6966   0.0458     H
C      0.53755  0.47222  0.78776     C
C      0.54024  0.54954  0.96068     C
C      0.54282   0.4022  0.85046     C
H        0.546   0.3775   0.8718     H
H       0.5466    0.788   0.4782     H
C      0.54954  0.92044  0.46068     C
H       0.5497   0.7863   0.3694     H
H       0.5514   0.1585    0.517     H
C      0.55174  0.45718  0.64954     C
H        0.553   0.9234   0.9966     H
H       0.5535   0.9799   0.0552     H
C      0.55438  0.28034  0.97436     C
H       0.5564   0.5766   0.0034     H
C       0.5579  0.40693  0.55114     C
H       0.5612   0.7444   0.9178     H
H       0.5634   0.4325   0.9606     H
C      0.56374  0.82694  0.47708     C
C      0.56462  0.50377  0.84908     C
C      0.56549  0.47024  0.88136     C
H       0.5663   0.3025    0.956     H
H       0.5675   0.1028   0.5394     H
H       0.5684   0.3098   0.5218     H
H       0.5732   0.4436   0.4966     H
H       0.5753   0.5017   0.5552     H
H       0.5755   0.3427   0.4826     H
H       0.5766    0.947   0.5034     H
H       0.5785   0.9076   0.4412     H
C      0.57956  0.95046  0.03932     C
C      0.58002  0.21966  0.02564     C
C      0.58015  0.48451  0.71096     C
H       0.5826   0.2123   0.8072     H
H       0.5831   0.5497   0.8694     H
O      0.58665  0.66794  0.42002     O
C      0.58666  0.34986  0.52292     C
H       0.5872   0.0035   0.9788     H
C      0.58744  0.62752   0.3268     C
H       0.5887   0.8141   0.4538     H
C      0.58886  0.45976  0.53932     C
C      0.58888  0.43451  0.61864     C
C      0.59062     0.75      0.0     C
H       0.5924   0.9215   0.0588     H
H       0.5929   0.8601   0.5174     H
C      0.59307  0.50676  0.94886     C
H       0.5949   0.5826   0.3072     H
C      0.59549  0.25402  0.74282     C
C       0.5978  0.19236  0.64954     C
N      0.59805     0.25      0.0     N
C      0.59814  0.74656  0.95172     C
C       0.6023    0.468    0.981     C
H       0.6028   0.0675   0.0394     H
H       0.6084   0.4965   0.0212     H
H       0.6085   0.6574   0.3178     H
H       0.6103   0.1975    0.044     H
C      0.61926  0.65052  0.39246     C
C       0.6213    0.032    0.019     C
H       0.6225   0.1742   0.6282     H
O      0.62636  0.28547  0.80354     O
C      0.62752  0.23936   0.8268     C
C      0.63081  0.22645  0.71096     C
H       0.6349   0.3603   0.5462     H
H       0.6373   0.4664   0.5588     H
H       0.6397   0.5887   0.9538     H
H       0.6399   0.9071   0.9826     H
H       0.6415   0.4486    0.983     H
H       0.6434   0.7556   0.0822     H
C      0.64421  0.99324  0.05114     C
C      0.64642  0.75344  0.04828     C
C      0.64733   0.4888  0.74282     C
O       0.6491  0.23277  0.91328     O
C      0.65014  0.56374  0.97708     C
C      0.65052   0.2732  0.89246     C
H       0.6508   0.4634   0.4542     H
H       0.6535   0.5663    0.456     H
C      0.65469  0.43538  0.65092     C
H       0.6573   0.5929   0.0174     H
H       0.6574   0.2093   0.8178     H
H       0.6585   0.0514    0.017     H
C      0.66012  0.74628  0.95354     C
H       0.6604   0.6085   0.8178     H
H       0.6647   0.7433     0.92     H
O      0.66663  0.24792  0.57998     O
O      0.66794  0.33337  0.92002     O
C      0.67306  0.93626  0.02292     C
H       0.6734   0.3566   0.4178     H
H       0.6742   0.1225   0.1282     H
H       0.6767   0.2553     0.42     H
O      0.67718  0.51807  0.80354     O
H       0.6803   0.4169   0.6306     H
O      0.68051   0.6491  0.41328     O
C      0.68413  0.02976  0.11864     C
C      0.68446  0.46245  0.71224     C
H       0.6859   0.9113   0.0462     H
H       0.6902   0.5466   0.9782     H
C      0.69195  0.49305  0.47326     C
Co     0.69207     0.25      0.0    Co
C      0.69236   0.0978  0.14954     C
C      0.69402  0.55438  0.47436     C
H       0.6966   0.0092   0.5458     H
H       0.6975   0.1103    0.544     H
C      0.69928  0.58744   0.8268     C
C      0.70516  0.35358  0.45172     C
C      0.70658  0.75372  0.04646     C
C      0.70726  0.29342  0.45354     C
H       0.7093   0.1574   0.3178     H
H        0.712   0.9534   0.0218     H
H       0.7123   0.0826   0.3072     H
N       0.7137     0.75     -0.0     N
H       0.7137   0.9503   0.1306     H
O      0.71453  0.32282  0.69646     O
C      0.71554  0.99623  0.15092     C
S      0.71692  0.22924   0.7482     S
C      0.71869  0.01979  0.52674     C
C      0.71966  0.08002  0.52564     C
H       0.7246   0.5949   0.8072     H
C      0.72645  0.13081  0.21096     C
C       0.7268  0.25806  0.60754     C
S      0.72924  0.21692   0.2482     S
O      0.73277   0.1491  0.41328     O
O      0.73582  0.26723  0.08672     O
C      0.73936  0.12752   0.3268     C
C      0.74194  0.61926  0.89246     C
H       0.7433   0.7553     0.42     H
H       0.7444   0.8566   0.4178     H
H       0.7447   0.7567     0.08     H
C      0.74598  0.35267  0.75718     C
C      0.74628  0.79342  0.45354     C
C      0.74656  0.85358  0.45172     C
O      0.74792  0.16663  0.07998     O
C      0.74979  0.02778  0.21224     C
N         0.75  0.09805      0.5     N
Co        0.75  0.19207      0.5    Co
N         0.75   0.2863      0.5     N
C         0.75  0.40938      0.5     C
C         0.75  0.47505      0.5     C
N         0.75  0.59805      0.5     N
Co        0.75  0.69207      0.5    Co
N         0.75   0.7863      0.5     N
C         0.75  0.90938      0.5     C
C         0.75  0.97505      0.5     C
C      0.75021  0.31554  0.78776     C
O      0.75208  0.58665  0.92002     O
C      0.75344  0.90186  0.54828     C
C      0.75372  0.83988  0.54646     C
C      0.75402  0.09549  0.24282     C
H       0.7553   0.1767     0.92     H
H       0.7556   0.9388   0.5822     H
H       0.7567   0.8353     0.58     H
C      0.75806   0.2268  0.10754     C
C      0.76064  0.30072   0.6732     C
O      0.76418  0.68051  0.91328     O
O      0.76723  0.23582  0.58672     O
S      0.77076  0.46872   0.7518     S
C       0.7732  0.15052  0.39246     C
C      0.77355  0.41985  0.78904     C
H       0.7754   0.2877   0.1928     H
C      0.78034  0.05438  0.47436     C
C      0.78131  0.99305  0.47326     C
S      0.78308  0.98104   0.2518     S
C      0.78446  0.34531  0.84908     C
O      0.78547  0.12636  0.30354     O
N       0.7863     0.25      0.0     N
H       0.7863   0.3197   0.8694     H
H       0.7877   0.2754   0.6928     H
H        0.788   0.4316   0.9782     H
H       0.7907   0.3396   0.6822     H
C      0.79274  0.33988  0.54646     C
C      0.79342  0.20726  0.95354     C
C      0.79484  0.40186  0.54828     C
C      0.80072  0.26064   0.1732     C
H       0.8025   0.0663    0.456     H
H       0.8034   0.9634   0.4542     H
C      0.80598  0.58002  0.52564     C
C      0.80764  0.44826  0.85046     C
Co     0.80793     0.75      1.0    Co
C      0.80805  0.51979  0.52674     C
H       0.8098   0.0684   0.0218     H
H       0.8141   0.3651   0.9538     H
C      0.81554  0.25021  0.28776     C
C      0.81587  0.41112  0.88136     C
O      0.81949  0.73582  0.58672     O
H       0.8197   0.2863   0.3694     H
O      0.82282  0.21453  0.19646     O
H       0.8233   0.3353     0.58     H
H       0.8258   0.4943   0.8718     H
H       0.8266   0.4388   0.5822     H
C      0.82694  0.41334  0.97708     C
O      0.83206  0.91335  0.07998     O
O      0.83337  0.16794  0.42002     O
H       0.8353   0.3233     0.08     H
H       0.8396   0.2907   0.1822     H
C      0.83988  0.29274  0.04646     C
H       0.8415   0.5344    0.983     H
H       0.8426   0.8915   0.1822     H
H       0.8427   0.0755   0.9826     H
C      0.84531  0.28446  0.34908     C
H       0.8465   0.6103    0.544     H
H       0.8492   0.5092   0.5458     H
C      0.84948  0.88074  0.10754     C
C      0.84986  0.08666  0.02292     C
O       0.8509  0.81949  0.08672     O
C      0.85267  0.24598  0.25718     C
C      0.85358  0.20516  0.95172     C
C      0.85579   0.4421  0.94886     C
H       0.8566   0.1734   0.9178     H
H       0.8585   0.9656    0.017     H
H       0.8601   0.4245   0.0174     H
H       0.8603   0.1349   0.0462     H
H       0.8627   0.4076   0.4412     H
H       0.8651   0.3141   0.4538     H
C      0.86919  0.01549  0.28904     C
C      0.87248  0.91256   0.1732     C
O      0.87364  0.98193  0.19646     O
H       0.8775    0.046   0.3718     H
C       0.8787    0.513    0.981     C
C      0.88074  0.75806  0.60754     C
H       0.8897   0.6535    0.956     H
H       0.8915   0.8396   0.6822     H
H       0.8916   0.9753   0.9788     H
H       0.8972   0.5281   0.9606     H
C       0.8977    0.987    0.019     C
C      0.90186  0.29484  0.04828     C
N      0.90195     0.75      1.0     N
C       0.9022  0.04282  0.35046     C
C      0.90451   0.0112  0.25718     C
H       0.9051   0.7754   0.6928     H
C      0.90693   0.0579  0.05114     C
H       0.9071   0.8427   0.4826     H
H       0.9076   0.3627   0.9412     H
C      0.90938     0.25     -0.0     C
C      0.91112  0.31587  0.38136     C
C      0.91114  0.42044  0.46068     C
H       0.9113   0.8603   0.5462     H
C      0.91256  0.80072   0.6732     C
H       0.9128   0.5247   0.0212     H
C      0.91334  0.32694  0.47708     C
O      0.91335  0.74792  0.57998     O
H       0.9169   0.1803   0.1306     H
H       0.9174   0.9051   0.1928     H
C      0.91985  0.27355  0.28904     C
C      0.91998  0.69402  0.97436     C
C      0.92044  0.41114  0.96068     C
H       0.9215   0.9664   0.5588     H
H       0.9234   0.9436   0.4966     H
H       0.9245   0.3601   0.5174     H
H       0.9247   0.4465   0.4448     H
H       0.9268    0.447   0.5034     H
H       0.9316    0.288   0.4782     H
H       0.9325   0.0634   0.4606     H
H       0.9337   0.8465    0.044     H
C      0.93451  0.08888  0.11864     C
C      0.93538  0.15469  0.15092     C
C      0.93626  0.84986  0.52292     C
H       0.9366   0.9719   0.0394     H
H       0.9388   0.3266   0.0822     H
C       0.9421  0.35579  0.44886     C
H       0.9436   0.0732   0.9966     H
C      0.94562  0.80598  0.02564     C
H       0.9465   0.4247   0.9448     H
H        0.947   0.4268   0.0034     H
C      0.94826  0.30764  0.35046     C
H       0.9486   0.1415    0.483     H
H       0.9503   0.9169   0.6306     H
C      0.95046  0.95976  0.53932     C
H       0.9534   0.8098   0.5218     H
H        0.954   0.0057   0.1282     H
C      0.95718  0.05174  0.14954     C
C      0.95976  0.08886  0.03932     C
C      0.96245  0.18446  0.21224     C
H       0.9634   0.1508   0.9542     H
H       0.9656   0.6585    0.517     H
H       0.9664   0.1373   0.0588     H
C        0.968   0.1023    0.481     C
S      0.96872  0.27076   0.2518     S
C      0.97024  0.06549  0.38136     C
H       0.9719   0.6028   0.5394     H
C      0.97222  0.03755  0.28776     C
C      0.97505     0.25      0.0     C
H       0.9753   0.5872   0.4788     H
H       0.9799   0.0017   0.5552     H
C      0.98021  0.69195  0.97326     C
S      0.98104  0.96872   0.7518     S
O      0.98193  0.82282  0.69646     O
C      0.98451  0.08015  0.21096     C
C        0.987   0.6213    0.519     C
C       0.9888  0.14733  0.24282     C
H       0.9908   0.6508   0.9542     H
C      0.99305  0.19195  0.97326     C
C      0.99324  0.90693  0.55114     C
H       0.9943   0.3258   0.3718     H
C      0.99623  0.93538  0.65092     C
H       0.9965   0.1084   0.5212     H
H       0.9983   0.9247   0.9448     H
