data_I
_chemical_name_common  '/home/zhangsd/repos/MofS-CGCNN/ML/data/SSD/clean_cifs/AXUHEH_clean'
_cell_length_a 12.72590
_cell_length_b 18.74860
_cell_length_c 36.79320
_cell_angle_alpha 90.00000
_cell_angle_beta  90.00000
_cell_angle_gamma 101.45200
_space_group_name_H-M_alt      'P 1'


loop_
_space_group_symop_operation_xyz
  'x, y, z' 

loop_
_atom_site_label
_atom_site_fract_x
_atom_site_fract_y
_atom_site_fract_z
_atom_site_type_symbol
Co         0.0      0.0      0.0    Co
H       0.0012   0.8448   0.2365     H
C      0.00474  0.99434  0.26951     C
O      0.00581  0.13461  0.84371     O
O      0.00627  0.63747  0.24734     O
H       0.0106   0.8415   0.9081     H
C      0.01078  0.79108  0.82938     C
C       0.0131   0.9726  0.69845     C
H       0.0182   0.4855   0.1279     H
H       0.0201    0.293   0.4193     H
H        0.022   0.2979   0.2034     H
H       0.0232   0.0693     0.37     H
O      0.02355  0.24405  0.81892     O
H        0.025   0.2983   0.5487     H
C       0.0264   0.1764  0.81792     C
O      0.02726  0.00226  0.90784     O
N       0.0276   0.3365   0.5346     N
C       0.0283   0.4392   0.8396     C
H       0.0322   0.6922   0.7359     H
Na     0.03406  0.01926  0.84611    Na
C      0.03502  0.73772  0.80614     C
H       0.0356   0.3774   0.4089     H
H       0.0366   0.5988   0.7809     H
H       0.0414   0.8398   0.6679     H
C       0.0421   0.4973  0.86296     C
H       0.0425   0.5819   0.1679     H
H       0.0442   0.5099   0.2714     H
H       0.0463   0.0546   0.3144     H
C       0.0474   0.9481  0.92405     C
H       0.0482   0.4363   0.6332     H
C       0.0492   0.9483  0.62056     C
O      0.05135  0.94025   0.9579     O
C      0.05471  0.14981  0.78138     C
H       0.0587   0.0002   0.6148     H
H       0.0592   0.4791   0.5953     H
H       0.0594   0.9212   0.5985     H
O      0.06313  0.07403  0.78393     O
H       0.0665   0.5779   0.2986     H
C       0.0678   0.8844  0.90297     C
C       0.0684   0.6484  0.47609     C
H       0.0685   0.2142   0.2632     H
C       0.0699   0.3401   0.4198     C
O      0.07042  0.89962  0.86456     O
O       0.0728    0.598  0.49687     O
O      0.07396  0.12986  0.23082     O
H       0.0751   0.6805   0.9365     H
H       0.0757   0.7718   0.9789     H
Co     0.08053  0.32891  0.78931    Co
C      0.08096  0.04446  0.75059     C
C       0.0881   0.6082  0.24474     C
H       0.0894   0.3534    0.445     H
H       0.0926   0.2373   0.3822     H
C       0.0926   0.5571  0.27639     C
C      0.09407  0.84287  0.84388     C
H        0.095   0.4703   0.5056     H
C        0.097   0.4547  0.61317     C
H       0.0976   0.5952   0.9082     H
H       0.1024   0.7612   0.4283     H
H       0.1052    0.555   0.6649     H
C       0.1097    0.698  0.73208     C
N      0.11024  0.41034  0.82665     N
C       0.1137   0.8563  0.65804     C
C       0.1143   0.6038  0.77789     C
H       0.1154    0.595   0.6263     H
C       0.1157   0.9777   0.6841     C
H       0.1217   0.4139   0.6015     H
H       0.1223   0.8286    0.636     H
H       0.1231   0.6643    0.713     H
C       0.1233   0.1965  0.24855     C
H       0.1238   0.1793    0.773     H
S      0.12452   0.2136  0.15733     S
H       0.1257   0.1465   0.0294     H
C       0.1286   0.3749  0.52566     C
H       0.1288   0.5705   0.7589     H
C       0.1304   0.9371  0.64877     C
C      0.13204  0.10014  0.20577     C
H       0.1371   0.8728   0.9106     H
H       0.1393   0.7481   0.7246     H
S      0.14019  0.99491  0.25788     S
C      0.14023  0.73493  0.79648     C
C       0.1409   0.7109  0.94359     C
C       0.1412   0.7652  0.96833     C
C       0.1445   0.5304  0.87309     C
H       0.1459   0.5919   0.8008     H
H       0.1496   0.2336   0.2298     H
C        0.151   0.4451  0.51089     C
C       0.1537   0.5723  0.64473     C
O       0.1543   0.6165  0.22058     O
C      0.15501  0.12921  0.17105     C
N       0.1555   0.5901  0.89621     N
C      0.15985  0.03385   0.2142     C
N      0.16008  0.05468  0.01067     N
H       0.1619   0.1472   0.9126     H
C       0.1629   0.6813  0.76721     C
H       0.1668   0.8487   0.6762     H
H       0.1679   0.9289   0.1063     H
C        0.168   0.6992  0.46371     C
C       0.1683   0.7547  0.43867     C
C       0.1685   0.2598   0.3851     C
O       0.1694   0.8618  0.38735     O
C       0.1779   0.3346  0.39678     C
H       0.1832   0.8233   0.2832     H
C       0.1834   0.1224  0.02476     C
C      0.18423  0.04963  0.73694     C
H       0.1864   0.7624    0.253     H
C       0.1884   0.3917  0.36656     C
H       0.1904   0.4795   0.3989     H
C       0.1919   0.4646  0.37423     C
S      0.19191  0.60682  0.36006     S
C       0.1932   0.5087  0.62801     C
C       0.1966   0.3727   0.3301     C
C      0.19767  0.51657  0.34691     C
H       0.1983   0.3237    0.324     H
O      0.19839  0.54509  0.28277     O
C      0.19908  0.83828  0.83651     C
C      0.19916  0.49586  0.31075     C
H       0.1996   0.9769   0.3662     H
O      0.20051  0.32161  0.75715     O
C       0.2007   0.0158  0.70414     C
H       0.2011   0.2329   0.4033     H
S      0.20199  0.39383  0.25708     S
C       0.2023   0.4237  0.30261     C
H       0.2048   0.5448   0.1523     H
H       0.2053   0.2949   0.5431     H
H       0.2055   0.2587   0.3618     H
H       0.2058   0.0043   0.0852     H
H       0.2061   0.7163   0.3076     H
O      0.20611  0.19261  0.30603     O
H       0.2066   0.8465   0.2417     H
C       0.2073    0.442   0.8376     C
C       0.2112   0.0944  0.14654     C
H       0.2149    0.608   0.6538     H
C      0.21554  0.18834  0.27295     C
C       0.2161   0.0002  0.18938     C
C       0.2165   0.3422  0.53271     C
C       0.2177   0.8121   0.2607     C
C       0.2213   0.7854  0.81282     C
H       0.2263   0.1148    0.123     H
H       0.2276   0.0941   0.9326     H
H       0.2282    0.481   0.1954     H
C       0.2285   0.5017   0.8599     C
H       0.2296   0.9759   0.9943     H
C       0.2299   0.9632  0.09676     C
C       0.2301    0.144   0.9243     C
H       0.2329   0.5614   0.5788     H
H       0.2338    0.078   0.3295     H
H       0.2345   0.8486   0.9947     H
H       0.2346   0.9552   0.1958     H
C       0.2356   0.8102   0.9779     C
C       0.2385      0.7  0.92863     C
H       0.2422   0.1772   0.9451     H
C       0.2428    0.962  0.63381     C
C       0.2439   0.0236  0.00426     C
C       0.2446   0.6411  0.90242     C
C       0.2463     0.03  0.15539     C
H       0.2464   0.4864   0.1272     H
H       0.2481   0.5668   0.1122     H
H       0.2519   0.9332   0.6122     H
H       0.2536   0.0136   0.6272     H
C       0.2537     0.47  0.65539     C
C       0.2554   0.8589  0.40242     C
C       0.2561   0.4764  0.50426     C
C       0.2572    0.538  0.13381     C
H       0.2578   0.3228   0.4451     H
C       0.2615      0.8  0.42863     C
C       0.2644   0.6898   0.4779     C
H       0.2654   0.5448   0.6958     H
H       0.2655   0.6514   0.4947     H
H       0.2662    0.422   0.8295     H
H       0.2671   0.9386   0.0788     H
C       0.2699    0.356   0.4243     C
C       0.2701   0.5368  0.59676     C
H       0.2704   0.5241   0.4943     H
C       0.2715   0.9983   0.3599     C
H       0.2718    0.019   0.6954     H
H       0.2724   0.4059   0.4326     H
H       0.2737   0.3852    0.623     H
C       0.2787   0.7146  0.31282     C
C       0.2823   0.6879   0.7607     C
C       0.2835   0.1578  0.03271     C
C       0.2839   0.4998  0.68938     C
C      0.28446  0.31166  0.77295     C
H       0.2851    0.892   0.1538     H
C       0.2888   0.4056  0.64654     C
C       0.2927    0.058   0.3376     C
H       0.2934   0.6535   0.7417     H
O      0.29389  0.30739  0.80603     O
H       0.2939   0.7837   0.8076     H
H       0.2942   0.4957   0.5852     H
H       0.2945   0.2413   0.8618     H
H       0.2947   0.2051   0.0431     H
H       0.2952   0.9552   0.6523     H
C       0.2977   0.0763  0.80261     C
S      0.29801  0.10617  0.75708     S
H       0.2989   0.2671   0.9033     H
C       0.2993   0.4842  0.20414     C
O      0.29949  0.17839  0.25715     O
H       0.3004   0.5231   0.8662     H
C      0.30084  0.00414  0.81075     C
C      0.30092  0.66172  0.33651     C
O      0.30161  0.95491  0.78277     O
H       0.3017   0.1763    0.824     H
C      0.30233  0.98343  0.84691     C
C       0.3034   0.1273   0.8301     C
C       0.3068   0.9913  0.12801     C
S      0.30809  0.89318  0.86006     S
C       0.3081   0.0354  0.87423     C
H       0.3096   0.0205   0.8989     H
C       0.3116   0.1083  0.86656     C
H       0.3136   0.7376    0.753     H
C      0.31577  0.45037  0.23694     C
C       0.3166   0.3776  0.52476     C
H       0.3168   0.6767   0.7832     H
C       0.3221   0.1654  0.89678     C
O       0.3306   0.6382  0.88735     O
C       0.3315   0.2402   0.8851     C
C       0.3317   0.7453  0.93867     C
C        0.332   0.8008  0.96371     C
H       0.3321   0.5711   0.6063     H
H       0.3332   0.6513   0.1762     H
C       0.3371   0.8187  0.26721     C
H       0.3381   0.3528   0.4126     H
N      0.33992  0.44532  0.51067     N
C      0.34015  0.46615   0.7142     C
N       0.3445   0.9099  0.39621     N
C      0.34499  0.37079  0.67105     C
O       0.3457   0.8835  0.72058     O
C       0.3463   0.9277  0.14473     C
C        0.349   0.0549  0.01089     C
H       0.3504   0.2664   0.7298     H
H       0.3541   0.9081   0.3008     H
C       0.3555   0.9696  0.37309     C
C       0.3588   0.7348  0.46833     C
C       0.3591   0.7891  0.44359     C
C      0.35977  0.76507  0.29648     C
S      0.35981  0.50509  0.75788     S
H       0.3607   0.7519   0.2246     H
H       0.3629   0.6272   0.4106     H
C      0.36796  0.39986  0.70577     C
C       0.3696   0.5629  0.14877     C
H       0.3712   0.9295   0.2589     H
C       0.3714   0.1251  0.02566     C
H       0.3743   0.3535   0.5294     H
S      0.37548   0.2864  0.65733     S
H       0.3762   0.3207    0.273     H
C       0.3767   0.3035  0.74855     C
H       0.3769   0.8357    0.213     H
H       0.3777   0.6714    0.136     H
H       0.3783   0.0861   0.1015     H
C       0.3843   0.5223   0.1841     C
H       0.3846    0.905   0.1263     H
C       0.3857   0.8962  0.27789     C
C       0.3863   0.6437  0.15804     C
N      0.38976  0.08966  0.32665     N
C       0.3903    0.802  0.23208     C
H       0.3948    0.945   0.1649     H
H       0.3976   0.7388   0.9283     H
H       0.4024   0.9048   0.4082     H
C        0.403   0.0453  0.11317     C
H        0.405   0.0297   0.0056     H
C      0.40593  0.65713  0.34388     C
H       0.4074   0.2627   0.8822     H
C       0.4074   0.9429  0.77639     C
H       0.4106   0.1466    0.945     H
C       0.4119   0.8918  0.74474     C
C      0.41904  0.45554  0.25059     C
Co     0.41947  0.17109  0.28931    Co
H       0.4243   0.7282   0.4789     H
H       0.4249   0.8195   0.4365     H
O      0.42604  0.37014  0.73082     O
O       0.4272    0.902  0.99687     O
O      0.42958  0.60038  0.36456     O
C       0.4301   0.1599   0.9198     C
H       0.4315   0.2858   0.7632     H
C       0.4316   0.8516  0.97609     C
C       0.4322   0.6156  0.40297     C
H       0.4335   0.9221   0.7986     H
O      0.43687  0.42597  0.28393     O
H       0.4406   0.5788   0.0985     H
H       0.4408   0.0209   0.0953     H
H       0.4413   0.4998   0.1148     H
C      0.44529  0.35019  0.28138     C
O      0.44865  0.55975   0.4579     O
C       0.4508   0.5517  0.12056     C
H       0.4518   0.0637   0.1332     H
C       0.4526   0.5519  0.42405     C
H       0.4537   0.4454   0.8144     H
H       0.4558   0.9901   0.7714     H
H       0.4575   0.9181   0.6679     H
C       0.4579   0.0027  0.36296     C
H       0.4586   0.6602   0.1679     H
H       0.4634   0.9012   0.2809     H
H       0.4644   0.1226   0.9089     H
C      0.46498  0.76228  0.30614     C
Na     0.46594  0.48074  0.34611    Na
H       0.4678   0.8078   0.2359     H
C       0.4717   0.0608   0.3396     C
N       0.4724   0.1635   0.0346     N
O      0.47274  0.49774  0.40784     O
C       0.4736   0.3236  0.31792     C
H        0.475   0.2017   0.0487     H
O      0.47645  0.25595  0.31892     O
H       0.4768   0.4307     0.87     H
H        0.478   0.2021   0.7034     H
H       0.4799    0.207   0.9193     H
H       0.4818   0.0145   0.6279     H
C       0.4869   0.5274  0.19845     C
C      0.48922  0.70892  0.32938     C
H       0.4894   0.6585   0.4081     H
O      0.49373  0.86253  0.74734     O
O      0.49419  0.36539  0.34371     O
C      0.49526  0.50566  0.76951     C
H       0.4988   0.6552   0.7365     H
Co         0.5      0.5      0.5    Co
H       0.5012   0.3448   0.2635     H
C      0.50474  0.49434  0.23049     C
O      0.50581  0.63461  0.65629     O
O      0.50627  0.13747  0.25266     O
H       0.5106   0.3415   0.5919     H
C      0.51078  0.29108  0.67062     C
C       0.5131   0.4726  0.80155     C
H       0.5182   0.9855   0.3721     H
H       0.5201    0.793   0.0807     H
H        0.522   0.7979   0.2966     H
H       0.5232   0.5693     0.13     H
O      0.52355  0.74405  0.68108     O
H        0.525   0.7983   0.9513     H
C       0.5264   0.6764  0.68208     C
O      0.52726  0.50226  0.59216     O
N       0.5276   0.8365   0.9654     N
C       0.5283   0.9392   0.6604     C
H       0.5322   0.1922   0.7641     H
Na     0.53406  0.51926  0.65389    Na
C      0.53502  0.23772  0.69386     C
H       0.5356   0.8774   0.0911     H
H       0.5366   0.0988   0.7191     H
H       0.5414   0.3398   0.8321     H
C       0.5421   0.9973  0.63704     C
H       0.5425   0.0819   0.3321     H
H       0.5442   0.0099   0.2286     H
H       0.5463   0.5546   0.1856     H
C       0.5474   0.4481  0.57595     C
H       0.5482   0.9363   0.8668     H
C       0.5492   0.4483  0.87944     C
O      0.55135  0.44025   0.5421     O
C      0.55471  0.64981  0.71862     C
H       0.5587   0.5002   0.8852     H
H       0.5592   0.9791   0.9047     H
H       0.5594   0.4212   0.9015     H
O      0.56313  0.57403  0.71607     O
H       0.5665   0.0779   0.2014     H
C       0.5678   0.3844  0.59703     C
C       0.5684   0.1484  0.02391     C
H       0.5685   0.7142   0.2368     H
C       0.5699   0.8401   0.0802     C
O      0.57042  0.39962  0.63544     O
O       0.5728    0.098  0.00313     O
O      0.57396  0.62986  0.26918     O
H       0.5751   0.1805   0.5635     H
H       0.5757   0.2718   0.5211     H
Co     0.58053  0.82891  0.71069    Co
C      0.58096  0.54446  0.74941     C
C       0.5881   0.1082  0.25526     C
H       0.5894   0.8534    0.055     H
C       0.5926   0.0571  0.22361     C
H       0.5926   0.7373   0.1178     H
C      0.59407  0.34287  0.65612     C
H        0.595   0.9703   0.9944     H
C        0.597   0.9547  0.88683     C
H       0.5976   0.0952   0.5918     H
H       0.6024   0.2612   0.0717     H
H       0.6052    0.055   0.8351     H
C       0.6097    0.198  0.76792     C
N      0.61024  0.91034  0.67335     N
C       0.6137   0.3563  0.84196     C
C       0.6143   0.1038  0.72211     C
H       0.6154    0.095   0.8737     H
C       0.6157   0.4777   0.8159     C
H       0.6217   0.9139   0.8985     H
H       0.6223   0.3286    0.864     H
H       0.6231   0.1643    0.787     H
C       0.6233   0.6965  0.25145     C
H       0.6238   0.6793    0.727     H
S      0.62452   0.7136  0.34267     S
H       0.6257   0.6465   0.4706     H
C       0.6286   0.8749  0.97434     C
H       0.6288   0.0705   0.7411     H
C       0.6304   0.4371  0.85123     C
C      0.63204  0.60014  0.29423     C
H       0.6371   0.3728   0.5894     H
H       0.6393   0.2481   0.7754     H
S      0.64019  0.49491  0.24212     S
C      0.64023  0.23493  0.70352     C
C       0.6409   0.2109  0.55641     C
C       0.6412   0.2652  0.53167     C
C       0.6445   0.0304  0.62691     C
H       0.6459   0.0919   0.6992     H
H       0.6496   0.7336   0.2702     H
C        0.651   0.9451  0.98911     C
C       0.6537   0.0723  0.85527     C
O       0.6543   0.1165  0.27942     O
C      0.65501  0.62921  0.32895     C
N       0.6555   0.0901  0.60379     N
C      0.65985  0.53385   0.2858     C
N      0.66008  0.55468  0.48933     N
H       0.6619   0.6472   0.5874     H
C       0.6629   0.1813  0.73279     C
H       0.6668   0.3487   0.8238     H
H       0.6679   0.4289   0.3937     H
C        0.668   0.1992  0.03629     C
C       0.6683   0.2547  0.06133     C
C       0.6685   0.7598   0.1149     C
O       0.6694   0.3618  0.11265     O
C       0.6779   0.8346  0.10322     C
H       0.6832   0.3233   0.2168     H
C       0.6834   0.6224  0.47524     C
C      0.68423  0.54963  0.76306     C
H       0.6864   0.2624    0.247     H
C       0.6884   0.8917  0.13344     C
H       0.6904   0.9795   0.1011     H
C       0.6919   0.9646  0.12577     C
S      0.69191  0.10682  0.13994     S
C       0.6932   0.0087  0.87199     C
C       0.6966   0.8727   0.1699     C
C      0.69767  0.01657  0.15309     C
H       0.6983   0.8237    0.176     H
O      0.69839  0.04509  0.21723     O
C      0.69908  0.33828  0.66349     C
C      0.69916  0.99586  0.18925     C
H       0.6996   0.4769   0.1338     H
O      0.70051  0.82161  0.74285     O
C       0.7007   0.5158  0.79586     C
H       0.7011   0.7329   0.0967     H
S      0.70199  0.89383  0.24292     S
C       0.7023   0.9237  0.19739     C
H       0.7048   0.0448   0.3477     H
H       0.7053   0.7949   0.9569     H
H       0.7055   0.7587   0.1382     H
H       0.7058   0.5043   0.4148     H
H       0.7061   0.2163   0.1924     H
O      0.70611  0.69261  0.19397     O
H       0.7066   0.3465   0.2583     H
C       0.7073    0.942   0.6624     C
C       0.7112   0.5944  0.35346     C
H       0.7149    0.108   0.8462     H
C      0.71554  0.68834  0.22705     C
C       0.7161   0.5002  0.31062     C
C       0.7165   0.8422  0.96729     C
C       0.7177   0.3121   0.2393     C
C       0.7213   0.2854  0.68718     C
H       0.7263   0.6148    0.377     H
H       0.7276   0.5941   0.5674     H
H       0.7282    0.981   0.3046     H
C       0.7285   0.0017   0.6401     C
H       0.7296   0.4759   0.5057     H
C       0.7299   0.4632  0.40324     C
C       0.7301    0.644   0.5757     C
H       0.7329   0.0614   0.9212     H
H       0.7338    0.578   0.1705     H
H       0.7345   0.3486   0.5053     H
H       0.7346   0.4552   0.3042     H
C       0.7356   0.3102   0.5221     C
C       0.7385      0.2  0.57137     C
H       0.7422   0.6772   0.5549     H
C       0.7428    0.462  0.86619     C
C       0.7439   0.5236  0.49574     C
C       0.7446   0.1411  0.59758     C
C       0.7463     0.53  0.34461     C
H       0.7464   0.9864   0.3728     H
H       0.7481   0.0668   0.3878     H
H       0.7519   0.4332   0.8878     H
H       0.7536   0.5136   0.8728     H
C       0.7537     0.97  0.84461     C
C       0.7554   0.3589  0.09758     C
C       0.7561   0.9764  0.99574     C
C       0.7572    0.038  0.36619     C
H       0.7578   0.8228   0.0549     H
C       0.7615      0.3  0.07137     C
C       0.7644   0.1898   0.0221     C
H       0.7654   0.0448   0.8042     H
H       0.7655   0.1514   0.0053     H
H       0.7662    0.922   0.6705     H
H       0.7671   0.4386   0.4212     H
C       0.7699    0.856   0.0757     C
C       0.7701   0.0368  0.90324     C
H       0.7704   0.0241   0.0057     H
C       0.7715   0.4983   0.1401     C
H       0.7718    0.519   0.8046     H
H       0.7724   0.9059   0.0674     H
H       0.7737   0.8852    0.877     H
C       0.7787   0.2146  0.18718     C
C       0.7823   0.1879   0.7393     C
C       0.7835   0.6578  0.46729     C
C       0.7839   0.9998  0.81062     C
C      0.78446  0.81166  0.72705     C
H       0.7851    0.392   0.3462     H
C       0.7888   0.9056  0.85346     C
C       0.7927    0.558   0.1624     C
H       0.7934   0.1535   0.7583     H
O      0.79389  0.80739  0.69397     O
H       0.7939   0.2837   0.6924     H
H       0.7942   0.9957   0.9148     H
H       0.7945   0.7413   0.6382     H
H       0.7947   0.7051   0.4569     H
H       0.7952   0.4552   0.8477     H
C       0.7977   0.5763  0.69739     C
S      0.79801  0.60617  0.74292     S
H       0.7989   0.7671   0.5967     H
C       0.7993   0.9842  0.29586     C
O      0.79949  0.67839  0.24285     O
H       0.8004   0.0231   0.6338     H
C      0.80084  0.50414  0.68925     C
C      0.80092  0.16172  0.16349     C
O      0.80161  0.45491  0.71723     O
H       0.8017   0.6763    0.676     H
C      0.80233  0.48343  0.65309     C
C       0.8034   0.6273   0.6699     C
C       0.8068   0.4913  0.37199     C
S      0.80809  0.39318  0.63994     S
C       0.8081   0.5354  0.62577     C
H       0.8096   0.5205   0.6011     H
C       0.8116   0.6083  0.63344     C
H       0.8136   0.2376    0.747     H
C      0.81577  0.95037  0.26306     C
C       0.8166   0.8776  0.97524     C
H       0.8168   0.1767   0.7168     H
C       0.8221   0.6654  0.60322     C
O       0.8306   0.1382  0.61265     O
C       0.8315   0.7402   0.6149     C
C       0.8317   0.2453  0.56133     C
C        0.832   0.3008  0.53629     C
H       0.8321   0.0711   0.8937     H
H       0.8332   0.1513   0.3238     H
C       0.8371   0.3187  0.23279     C
H       0.8381   0.8528   0.0874     H
N      0.83992  0.94532  0.98933     N
C      0.84015  0.96615   0.7858     C
N       0.8445   0.4099  0.10379     N
C      0.84499  0.87079  0.82895     C
O       0.8457   0.3835  0.77942     O
C       0.8463   0.4277  0.35527     C
C        0.849   0.5549  0.48911     C
H       0.8504   0.7664   0.7702     H
H       0.8541   0.4081   0.1992     H
C       0.8555   0.4696  0.12691     C
C       0.8588   0.2348  0.03167     C
C       0.8591   0.2891  0.05641     C
C      0.85977  0.26507  0.20352     C
S      0.85981  0.00509  0.74212     S
H       0.8607   0.2519   0.2754     H
H       0.8629   0.1272   0.0894     H
C      0.86796  0.89986  0.79423     C
C       0.8696   0.0629  0.35123     C
H       0.8712   0.4295   0.2411     H
C       0.8714   0.6251  0.47434     C
H       0.8743   0.8535   0.9706     H
S      0.87548   0.7864  0.84267     S
H       0.8762   0.8207    0.227     H
C       0.8767   0.8035  0.75145     C
H       0.8769   0.3357    0.287     H
H       0.8777   0.1714    0.364     H
H       0.8783   0.5861   0.3985     H
C       0.8843   0.0223   0.3159     C
H       0.8846    0.405   0.3737     H
C       0.8857   0.3962  0.22211     C
C       0.8863   0.1437  0.34196     C
N      0.88976  0.58966  0.17335     N
C       0.8903    0.302  0.26792     C
H       0.8948    0.445   0.3351     H
H       0.8976   0.2388   0.5717     H
H       0.9024   0.4048   0.0918     H
C        0.903   0.5453  0.38683     C
H        0.905   0.5297   0.4944     H
C      0.90593  0.15713  0.15612     C
C       0.9074   0.4429  0.72361     C
H       0.9074   0.7627   0.6178     H
H       0.9106   0.6466    0.555     H
C       0.9119   0.3918  0.75526     C
C      0.91904  0.95554  0.24941     C
Co     0.91947  0.67109  0.21069    Co
H       0.9243   0.2282   0.0211     H
H       0.9249   0.3195   0.0635     H
O      0.92604  0.87014  0.76918     O
O       0.9272    0.402  0.50313     O
O      0.92958  0.10038  0.13544     O
C       0.9301   0.6599   0.5802     C
H       0.9315   0.7858   0.7368     H
C       0.9316   0.3516  0.52391     C
C       0.9322   0.1156  0.09703     C
H       0.9335   0.4221   0.7014     H
O      0.93687  0.92597  0.21607     O
H       0.9406   0.0788   0.4015     H
H       0.9408   0.5209   0.4047     H
H       0.9413   0.9998   0.3852     H
C      0.94529  0.85019  0.21862     C
O      0.94865  0.05975   0.0421     O
C       0.9508   0.0517  0.37944     C
H       0.9518   0.5637   0.3668     H
C       0.9526   0.0519  0.07595     C
H       0.9537   0.9454   0.6856     H
H       0.9558   0.4901   0.7286     H
H       0.9575   0.4181   0.8321     H
C       0.9579   0.5027  0.13704     C
H       0.9586   0.1602   0.3321     H
H       0.9634   0.4012   0.2191     H
H       0.9644   0.6226   0.5911     H
C      0.96498  0.26228  0.19386     C
Na     0.96594  0.98074  0.15389    Na
H       0.9678   0.3078   0.2641     H
C       0.9717   0.5608   0.1604     C
N       0.9724   0.6635   0.4654     N
O      0.97274  0.99774  0.09216     O
C       0.9736   0.8236  0.18208     C
H        0.975   0.7017   0.4513     H
O      0.97645  0.75595  0.18108     O
H       0.9768   0.9307     0.63     H
H        0.978   0.7021   0.7966     H
H       0.9799    0.707   0.5807     H
H       0.9818   0.5145   0.8721     H
C       0.9869   0.0274  0.30155     C
C      0.98922  0.20892  0.17062     C
H       0.9894   0.1585   0.0919     H
O      0.99373  0.36253  0.75266     O
O      0.99419  0.86539  0.15629     O
C      0.99526  0.00566  0.73049     C
H       0.9988   0.1552   0.7635     H
