data_I
_chemical_name_common  '/home/zhangsd/repos/MofS-CGCNN/ML/data/SSD/clean_cifs/BAHGUN01_clean'
_cell_length_a  4.95790
_cell_length_b 10.98810
_cell_length_c 12.78190
_cell_angle_alpha 91.55970
_cell_angle_beta  101.18300
_cell_angle_gamma 81.93220
_space_group_name_H-M_alt      'P 1'


loop_
_space_group_symop_operation_xyz
  'x, y, z' 

loop_
_atom_site_label
_atom_site_fract_x
_atom_site_fract_y
_atom_site_fract_z
_atom_site_type_symbol
N      0.04585   0.1661   0.8891     N
C      0.04719   0.0579  0.47038     C
C      0.05608   0.5804  0.93556     C
Cu     0.05648  0.78373  0.22654    Cu
H       0.0619   0.0781     0.13     H
C      0.08504   0.9929  0.37968     C
H       0.0968   0.3837   0.4554     H
C      0.12052   0.0804  0.06444     C
H       0.1332   0.1285   0.4888     H
N      0.15675   0.6661   0.1109     N
C      0.19095   0.5879   0.3657     C
H       0.1984   0.0207    0.337     H
O      0.20247  0.38772  0.79394     O
C      0.25267   0.4131  0.49674     C
C      0.26879   0.0902  0.87118     C
O      0.29852   0.6785  0.34124     O
C      0.30653   0.5019  0.95406     C
H       0.3195   0.0926   0.8042     H
H       0.3279   0.2825   0.6104     H
C      0.34556   0.5178  0.46552     C
C      0.35247   0.0019  0.04594     C
C      0.38611   0.4156  0.86782     C
C      0.39239   0.3528  0.58938     C
C      0.39761   0.5902  0.12882     C
O      0.40853  0.88772  0.20606     O
C      0.42737   0.0085  0.94694     C
C      0.48043   0.5085  0.05306     C
H       0.5153   0.5926   0.1958     H
C      0.51829   0.9156  0.13218     C
C      0.57681   0.5579  0.52962     C
H       0.5843   0.9579   0.9316     H
N      0.61809   0.3915  0.65058     N
H       0.6414   0.8837   0.5446     H
H       0.6444   0.6285   0.5112     H
O      0.64551  0.37844  0.87862     O
H       0.6527   0.4579   0.0684     H
O        0.653   0.0551   0.6828     O
C      0.70536   0.4929  0.62032     C
H       0.7175   0.7825   0.3896     H
C      0.75593   0.9131  0.50326     C
O      0.76689  0.87844  0.12138     O
C      0.80301   0.8528  0.41062     C
H       0.8252   0.2161     -0.0     H
H       0.8252   0.7161      0.0     H
C      0.82525   0.0879   0.6343     C
Cu     0.82994  0.28373  0.77346    Cu
H       0.8614   0.5207    0.663     H
C      0.88004   0.0178  0.53448     C
H       0.9319   0.5781     0.87     H
O      0.95728   0.1785  0.65876     O
N      0.96751   0.8915  0.34942     N
O       0.9702   0.5551   0.3172     O
C       0.9774   0.1615   0.9856     C
C       0.9918   0.6615   0.0144     C
