data_I
_chemical_name_common  '/home/zhangsd/repos/MofS-CGCNN/ML/data/SSD/clean_cifs/BAKJEE_clean'
_cell_length_a  9.28700
_cell_length_b 16.66700
_cell_length_c 28.24200
_cell_angle_alpha 90.00000
_cell_angle_beta  90.00000
_cell_angle_gamma 97.03000
_space_group_name_H-M_alt      'P 1'


loop_
_space_group_symop_operation_xyz
  'x, y, z' 

loop_
_atom_site_label
_atom_site_fract_x
_atom_site_fract_y
_atom_site_fract_z
_atom_site_type_symbol
C       0.0003    0.209  0.55644     C
C       0.0003    0.709  0.94356     C
O       0.0058  0.21284  0.83351     O
O       0.0058  0.71284  0.66649     O
C       0.0253    0.131  0.56737     C
C       0.0253    0.631  0.93263     C
C       0.0285   0.1873  0.87499     C
C       0.0285   0.6873  0.62501     C
C       0.0407   0.4115  0.10977     C
C       0.0407   0.9115  0.39023     C
H       0.0482   0.3115   0.1506     H
H       0.0482   0.8115   0.3494     H
H       0.0493      0.3   0.5101     H
H       0.0493      0.8   0.9899     H
O       0.0529  0.31224  0.41018     O
O       0.0529  0.81224  0.08982     O
H        0.061   0.2633   0.0758     H
H        0.061   0.7633   0.4242     H
H       0.0645   0.0247   0.4185     H
H       0.0645   0.5247   0.0815     H
C       0.0663   0.2461  0.51672     C
C       0.0663   0.7461  0.98328     C
C       0.0676   0.3688  0.15053     C
C       0.0676   0.8688  0.34947     C
C       0.0783   0.4951   0.1096     C
C       0.0783   0.9951   0.3904     C
H       0.0957   0.0843   0.9396     H
H       0.0957   0.5843   0.5604     H
C       0.1142   0.0945  0.53686     C
C       0.1142   0.5945  0.96314     C
C       0.1226   0.4088   0.1913     C
C       0.1226   0.9088   0.3087     C
H        0.134   0.0408   0.5428     H
H        0.134   0.5408   0.9572     H
O       0.1355  0.28561  0.23331     O
O       0.1355  0.78561  0.26669     O
C       0.1357   0.0365  0.35037     C
C       0.1357   0.5365  0.14963     C
C       0.1511    0.362  0.23472     C
C       0.1511    0.862  0.26528     C
N       0.1522  0.21107  0.48717     N
N       0.1522  0.71107  0.01283     N
C       0.1553   0.4918  0.19077     C
C       0.1553   0.9918  0.30923     C
C         0.17   0.1526   0.8831     C
C         0.17   0.6526   0.6169     C
C       0.1744   0.1361  0.49769     C
C       0.1744   0.6361  0.00231     C
C       0.1749   0.1259  0.35144     C
C       0.1749   0.6259  0.14856     C
C       0.1772   0.0974  0.91952     C
C       0.1772   0.5974  0.58048     C
O        0.185  0.15894  0.39123     O
O        0.185  0.65894  0.10877     O
O       0.1886  0.39895  0.27209     O
O       0.1886  0.89895  0.22791     O
H         0.19   0.4487   0.4304     H
H         0.19   0.9487   0.0696     H
H       0.1905   0.0508   0.0146     H
H       0.1905   0.5508   0.4854     H
H       0.1916   0.0191   0.2814     H
H       0.1916   0.5191   0.2186     H
Co     0.19278  0.28021  0.30478    Co
Co     0.19278  0.78021  0.19522    Co
O       0.1946  0.16126  0.31206     O
O       0.1946  0.66126  0.18794     O
H       0.2347   0.1094   0.4773     H
H       0.2347   0.6094   0.0227     H
C       0.2366    0.443  0.45996     C
C       0.2366    0.943  0.04004     C
C       0.2371   0.0045  0.00755     C
C       0.2371   0.5045  0.49245     C
Co     0.24455  0.26939  0.42457    Co
Co     0.24455  0.76939  0.07543    Co
H       0.2843   0.2108   0.8288     H
H       0.2843   0.7108   0.6712     H
C       0.2901   0.1745  0.85449     C
C       0.2901   0.6745  0.64551     C
N       0.2981  0.37573  0.46763     N
N       0.2981  0.87573  0.03237     N
C       0.3024    0.061  0.92701     C
C       0.3024    0.561  0.57299     C
C       0.3066   0.4984   0.5359     C
C       0.3066   0.9984   0.9641     C
O       0.3245  0.32608  0.35999     O
O       0.3245  0.82608  0.14001     O
C       0.3699   0.3713  0.50883     C
C       0.3699   0.8713  0.99117     C
C       0.3772   0.4307   0.5431     C
C       0.3772   0.9307   0.9569     C
H       0.4179   0.3251   0.5145     H
H       0.4179   0.8251   0.9855     H
C       0.4183    0.143  0.86378     C
C       0.4183    0.643  0.63622     C
C        0.424   0.0856  0.89906     C
C        0.424   0.5856  0.60094     C
H       0.4302   0.4252   0.5715     H
H       0.4302   0.9252   0.9285     H
C        0.445   0.3263  0.33765     C
C        0.445   0.8263  0.16235     C
O       0.4474  0.30084  0.29648     O
O       0.4474  0.80084  0.20352     O
H       0.4885   0.4373   0.4043     H
H       0.4885   0.9373   0.0957     H
H       0.5115   0.0627   0.9043     H
H       0.5115   0.5627   0.5957     H
O       0.5526  0.19916  0.79648     O
O       0.5526  0.69916  0.70352     O
C        0.555   0.1737  0.83765     C
C        0.555   0.6737  0.66235     C
H       0.5698   0.0748   0.0715     H
H       0.5698   0.5748   0.4285     H
C        0.576   0.4144  0.39906     C
C        0.576   0.9144  0.10094     C
C       0.5817    0.357  0.36378     C
C       0.5817    0.857  0.13622     C
H       0.5821   0.1749   0.0145     H
H       0.5821   0.6749   0.4855     H
C       0.6228   0.0693   0.0431     C
C       0.6228   0.5693   0.4569     C
C       0.6301   0.1287  0.00883     C
C       0.6301   0.6287  0.49117     C
O       0.6755  0.17392  0.85999     O
O       0.6755  0.67392  0.64001     O
C       0.6934   0.0016   0.0359     C
C       0.6934   0.5016   0.4641     C
C       0.6976    0.439  0.42701     C
C       0.6976    0.939  0.07299     C
N       0.7019  0.12427  0.96763     N
N       0.7019  0.62427  0.53237     N
C       0.7099   0.3255  0.35449     C
C       0.7099   0.8255  0.14551     C
H       0.7157   0.2892   0.3288     H
H       0.7157   0.7892   0.1712     H
Co     0.75545  0.23061  0.92457    Co
Co     0.75545  0.73061  0.57543    Co
C       0.7629   0.4955  0.50755     C
C       0.7629   0.9955  0.99245     C
C       0.7634    0.057  0.95996     C
C       0.7634    0.557  0.54004     C
H       0.7653   0.3906   0.9773     H
H       0.7653   0.8906   0.5227     H
O       0.8054  0.33874  0.81206     O
O       0.8054  0.83874  0.68794     O
Co     0.80722  0.21979  0.80478    Co
Co     0.80722  0.71979  0.69522    Co
H       0.8084   0.4809   0.7814     H
H       0.8084   0.9809   0.7186     H
H       0.8095   0.4492   0.5146     H
H       0.8095   0.9492   0.9854     H
H         0.81   0.0513   0.9304     H
H         0.81   0.5513   0.5696     H
O       0.8114  0.10105  0.77209     O
O       0.8114  0.60105  0.72791     O
O        0.815  0.34106  0.89123     O
O        0.815  0.84106  0.60877     O
C       0.8228   0.4026  0.41952     C
C       0.8228   0.9026  0.08048     C
C       0.8251   0.3741  0.85144     C
C       0.8251   0.8741  0.64856     C
C       0.8256   0.3639  0.99769     C
C       0.8256   0.8639  0.50231     C
C         0.83   0.3474   0.3831     C
C         0.83   0.8474   0.1169     C
C       0.8447   0.0082  0.69077     C
C       0.8447   0.5082  0.80923     C
N       0.8478  0.28893  0.98717     N
N       0.8478  0.78893  0.51283     N
C       0.8489    0.138  0.73472     C
C       0.8489    0.638  0.76528     C
C       0.8643   0.4635  0.85037     C
C       0.8643   0.9635  0.64963     C
O       0.8645  0.21439  0.73331     O
O       0.8645  0.71439  0.76669     O
H        0.866   0.4592   0.0428     H
H        0.866   0.9592   0.4572     H
C       0.8774   0.0912   0.6913     C
C       0.8774   0.5912   0.8087     C
C       0.8858   0.4055  0.03686     C
C       0.8858   0.9055  0.46314     C
H       0.9043   0.4157   0.4396     H
H       0.9043   0.9157   0.0604     H
C       0.9217   0.0049   0.6096     C
C       0.9217   0.5049   0.8904     C
C       0.9324   0.1312  0.65053     C
C       0.9324   0.6312  0.84947     C
C       0.9337   0.2539  0.01672     C
C       0.9337   0.7539  0.48328     C
H       0.9355   0.4753   0.9185     H
H       0.9355   0.9753   0.5815     H
H        0.939   0.2367   0.5758     H
H        0.939   0.7367   0.9242     H
O       0.9471  0.18776  0.91018     O
O       0.9471  0.68776  0.58982     O
H       0.9507      0.2   0.0101     H
H       0.9507      0.7   0.4899     H
H       0.9518   0.1885   0.6506     H
H       0.9518   0.6885   0.8494     H
C       0.9593   0.0885  0.60977     C
C       0.9593   0.5885  0.89023     C
C       0.9715   0.3127  0.37499     C
C       0.9715   0.8127  0.12501     C
C       0.9747    0.369  0.06737     C
C       0.9747    0.869  0.43263     C
O       0.9942  0.28716  0.33351     O
O       0.9942  0.78716  0.16649     O
C       0.9997    0.291  0.05644     C
C       0.9997    0.791  0.44356     C
