data_I
_chemical_name_common  '/home/zhangsd/repos/MofS-CGCNN/ML/data/SSD/clean_cifs/BAZGAM_clean'
_cell_length_a 48.30330
_cell_length_b 48.30330
_cell_length_c 48.30330
_cell_angle_alpha 60.00000
_cell_angle_beta  60.00000
_cell_angle_gamma 60.00000
_space_group_name_H-M_alt      'P 1'


loop_
_space_group_symop_operation_xyz
  'x, y, z' 

loop_
_atom_site_label
_atom_site_fract_x
_atom_site_fract_y
_atom_site_fract_z
_atom_site_type_symbol
H       0.0019   0.0869   0.3963     H
H       0.0019   0.0869   0.5149     H
H       0.0019   0.3963   0.0869     H
H       0.0019   0.3963   0.5149     H
H       0.0019   0.5149   0.0869     H
H       0.0019   0.5149   0.3963     H
O      0.00397  0.49139  0.54749     O
O      0.00397  0.49139  0.95715     O
O      0.00397  0.54749  0.49139     O
O      0.00397  0.54749  0.95715     O
O      0.00397  0.95715  0.49139     O
O      0.00397  0.95715  0.54749     O
C      0.02309  0.07497  0.38449     C
C      0.02309  0.07497  0.51745     C
C      0.02309  0.38449  0.07497     C
C      0.02309  0.38449  0.51745     C
C      0.02309  0.51745  0.07497     C
C      0.02309  0.51745  0.38449     C
C       0.0252   0.0252  0.43988     C
C       0.0252   0.0252  0.50972     C
C       0.0252  0.43988   0.0252     C
C       0.0252  0.43988  0.50972     C
C       0.0252  0.50972   0.0252     C
C       0.0252  0.50972  0.43988     C
Cu     0.02728      0.5      0.5    Cu
Cu     0.02728      0.5  0.97272    Cu
Cu     0.02728  0.97272      0.5    Cu
H       0.0273   0.1123   0.3373     H
H       0.0273   0.1123   0.5231     H
H       0.0273   0.3373   0.1123     H
H       0.0273   0.3373   0.5231     H
H       0.0273   0.5231   0.1123     H
H       0.0273   0.5231   0.3373     H
C      0.03856  0.09044  0.34912     C
C      0.03856  0.09044  0.52188     C
C      0.03856  0.34912  0.09044     C
C      0.03856  0.34912  0.52188     C
C      0.03856  0.52188  0.09044     C
C      0.03856  0.52188  0.34912     C
C       0.0408   0.0408  0.40138     C
C       0.0408   0.0408  0.51702     C
C       0.0408  0.40138   0.0408     C
C       0.0408  0.40138  0.51702     C
C       0.0408  0.51702   0.0408     C
C       0.0408  0.51702  0.40138     C
O      0.04285  0.45251  0.50861     O
O      0.04285  0.45251  0.99603     O
O      0.04285  0.50861  0.45251     O
O      0.04285  0.50861  0.99603     O
O      0.04285  0.99603  0.45251     O
O      0.04285  0.99603  0.50861     O
H       0.0512   0.1358   0.2926     H
H       0.0512   0.1358   0.5204     H
H       0.0512   0.2926   0.1358     H
H       0.0512   0.2926   0.5204     H
H       0.0512   0.5204   0.1358     H
H       0.0512   0.5204   0.2926     H
C      0.07159  0.07159  0.33251     C
C      0.07159  0.07159  0.52431     C
C      0.07159  0.33251  0.07159     C
C      0.07159  0.33251  0.52431     C
C      0.07159  0.52431  0.07159     C
C      0.07159  0.52431  0.33251     C
C      0.07252  0.12428  0.28054     C
C      0.07252  0.12428  0.52266     C
C      0.07252  0.28054  0.12428     C
C      0.07252  0.28054  0.52266     C
C      0.07252  0.52266  0.12428     C
C      0.07252  0.52266  0.28054     C
C      0.07497  0.02309  0.38449     C
C      0.07497  0.02309  0.51745     C
C      0.07497  0.38449  0.02309     C
C      0.07497  0.38449  0.51745     C
C      0.07497  0.51745  0.02309     C
C      0.07497  0.51745  0.38449     C
H       0.0781   0.1627   0.2347     H
H       0.0781   0.1627   0.5245     H
H       0.0781   0.2347   0.1627     H
H       0.0781   0.2347   0.5245     H
H       0.0781   0.5245   0.1627     H
H       0.0781   0.5245   0.2347     H
H       0.0869   0.0019   0.3963     H
H       0.0869   0.0019   0.5149     H
H       0.0869   0.3963   0.0019     H
H       0.0869   0.3963   0.5149     H
H       0.0869   0.5149   0.0019     H
H       0.0869   0.5149   0.3963     H
C      0.08897  0.14055  0.24603     C
C      0.08897  0.14055  0.52445     C
C      0.08897  0.24603  0.14055     C
C      0.08897  0.24603  0.52445     C
C      0.08897  0.52445  0.14055     C
C      0.08897  0.52445  0.24603     C
C       0.0897   0.0897   0.2962     C
C       0.0897   0.0897   0.5244     C
C       0.0897   0.2962   0.0897     C
C       0.0897   0.2962   0.5244     C
C       0.0897   0.5244   0.0897     C
C       0.0897   0.5244   0.2962     C
C      0.09044  0.03856  0.34912     C
C      0.09044  0.03856  0.52188     C
C      0.09044  0.34912  0.03856     C
C      0.09044  0.34912  0.52188     C
C      0.09044  0.52188  0.03856     C
C      0.09044  0.52188  0.34912     C
H       0.0996   0.1844   0.1844     H
H       0.0996   0.1844   0.5316     H
H       0.0996   0.5316   0.1844     H
H       0.1123   0.0273   0.3373     H
H       0.1123   0.0273   0.5231     H
H       0.1123   0.3373   0.0273     H
H       0.1123   0.3373   0.5231     H
H       0.1123   0.5231   0.0273     H
H       0.1123   0.5231   0.3373     H
C      0.12175  0.17323  0.17323     C
C      0.12175  0.17323  0.53179     C
C      0.12175  0.53179  0.17323     C
C       0.1225   0.1225   0.2289     C
C       0.1225   0.1225   0.5261     C
C       0.1225   0.2289   0.1225     C
C       0.1225   0.2289   0.5261     C
C       0.1225   0.5261   0.1225     C
C       0.1225   0.5261   0.2289     C
C      0.12428  0.07252  0.28054     C
C      0.12428  0.07252  0.52266     C
C      0.12428  0.28054  0.07252     C
C      0.12428  0.28054  0.52266     C
C      0.12428  0.52266  0.07252     C
C      0.12428  0.52266  0.28054     C
H       0.1358   0.0512   0.2926     H
H       0.1358   0.0512   0.5204     H
H       0.1358   0.2926   0.0512     H
H       0.1358   0.2926   0.5204     H
H       0.1358   0.5204   0.0512     H
H       0.1358   0.5204   0.2926     H
C       0.1388   0.1388   0.1904     C
C       0.1388   0.1388    0.532     C
C       0.1388   0.1904   0.1388     C
C       0.1388   0.1904    0.532     C
C       0.1388    0.532   0.1388     C
C       0.1388    0.532   0.1904     C
C      0.14055  0.08897  0.24603     C
C      0.14055  0.08897  0.52445     C
C      0.14055  0.24603  0.08897     C
C      0.14055  0.24603  0.52445     C
C      0.14055  0.52445  0.08897     C
C      0.14055  0.52445  0.24603     C
H       0.1627   0.0781   0.2347     H
H       0.1627   0.0781   0.5245     H
H       0.1627   0.2347   0.0781     H
H       0.1627   0.2347   0.5245     H
H       0.1627   0.5245   0.0781     H
H       0.1627   0.5245   0.2347     H
C      0.17323  0.12175  0.17323     C
C      0.17323  0.12175  0.53179     C
C      0.17323  0.17323  0.12175     C
C      0.17323  0.17323  0.53179     C
C      0.17323  0.53179  0.12175     C
C      0.17323  0.53179  0.17323     C
H       0.1844   0.0996   0.1844     H
H       0.1844   0.0996   0.5316     H
H       0.1844   0.1844   0.0996     H
H       0.1844   0.1844   0.5316     H
H       0.1844   0.5316   0.0996     H
H       0.1844   0.5316   0.1844     H
C       0.1904   0.1388   0.1388     C
C       0.1904   0.1388    0.532     C
C       0.1904    0.532   0.1388     C
C       0.2289   0.1225   0.1225     C
C       0.2289   0.1225   0.5261     C
C       0.2289   0.5261   0.1225     C
H       0.2347   0.0781   0.1627     H
H       0.2347   0.0781   0.5245     H
H       0.2347   0.1627   0.0781     H
H       0.2347   0.1627   0.5245     H
H       0.2347   0.5245   0.0781     H
H       0.2347   0.5245   0.1627     H
C      0.24603  0.08897  0.14055     C
C      0.24603  0.08897  0.52445     C
C      0.24603  0.14055  0.08897     C
C      0.24603  0.14055  0.52445     C
C      0.24603  0.52445  0.08897     C
C      0.24603  0.52445  0.14055     C
C      0.28054  0.07252  0.12428     C
C      0.28054  0.07252  0.52266     C
C      0.28054  0.12428  0.07252     C
C      0.28054  0.12428  0.52266     C
C      0.28054  0.52266  0.07252     C
C      0.28054  0.52266  0.12428     C
H       0.2926   0.0512   0.1358     H
H       0.2926   0.0512   0.5204     H
H       0.2926   0.1358   0.0512     H
H       0.2926   0.1358   0.5204     H
H       0.2926   0.5204   0.0512     H
H       0.2926   0.5204   0.1358     H
C       0.2962   0.0897   0.0897     C
C       0.2962   0.0897   0.5244     C
C       0.2962   0.5244   0.0897     C
C      0.33251  0.07159  0.07159     C
C      0.33251  0.07159  0.52431     C
C      0.33251  0.52431  0.07159     C
H       0.3373   0.0273   0.1123     H
H       0.3373   0.0273   0.5231     H
H       0.3373   0.1123   0.0273     H
H       0.3373   0.1123   0.5231     H
H       0.3373   0.5231   0.0273     H
H       0.3373   0.5231   0.1123     H
C      0.34912  0.03856  0.09044     C
C      0.34912  0.03856  0.52188     C
C      0.34912  0.09044  0.03856     C
C      0.34912  0.09044  0.52188     C
C      0.34912  0.52188  0.03856     C
C      0.34912  0.52188  0.09044     C
C      0.38449  0.02309  0.07497     C
C      0.38449  0.02309  0.51745     C
C      0.38449  0.07497  0.02309     C
C      0.38449  0.07497  0.51745     C
C      0.38449  0.51745  0.02309     C
C      0.38449  0.51745  0.07497     C
H       0.3963   0.0019   0.0869     H
H       0.3963   0.0019   0.5149     H
H       0.3963   0.0869   0.0019     H
H       0.3963   0.0869   0.5149     H
H       0.3963   0.5149   0.0019     H
H       0.3963   0.5149   0.0869     H
C      0.40138   0.0408   0.0408     C
C      0.40138   0.0408  0.51702     C
C      0.40138  0.51702   0.0408     C
C      0.43988   0.0252   0.0252     C
C      0.43988   0.0252  0.50972     C
C      0.43988  0.50972   0.0252     C
O      0.45251  0.04285  0.50861     O
O      0.45251  0.04285  0.99603     O
O      0.45251  0.50861  0.04285     O
O      0.45251  0.50861  0.99603     O
O      0.45251  0.99603  0.04285     O
O      0.45251  0.99603  0.50861     O
C        0.468   0.8096   0.8612     C
C        0.468   0.8612   0.8096     C
C        0.468   0.8612   0.8612     C
C      0.46821  0.82677  0.82677     C
C      0.46821  0.82677  0.87825     C
C      0.46821  0.87825  0.82677     C
H       0.4684   0.8156   0.8156     H
H       0.4684   0.8156   0.9004     H
H       0.4684   0.9004   0.8156     H
C       0.4739   0.7711   0.8775     C
C       0.4739   0.8775   0.7711     C
C       0.4739   0.8775   0.8775     C
H       0.4755   0.7653   0.8373     H
H       0.4755   0.7653   0.9219     H
H       0.4755   0.8373   0.7653     H
H       0.4755   0.8373   0.9219     H
H       0.4755   0.9219   0.7653     H
H       0.4755   0.9219   0.8373     H
C      0.47555  0.75397  0.85945     C
C      0.47555  0.75397  0.91103     C
C      0.47555  0.85945  0.75397     C
C      0.47555  0.85945  0.91103     C
C      0.47555  0.91103  0.75397     C
C      0.47555  0.91103  0.85945     C
C       0.4756   0.7038   0.9103     C
C       0.4756   0.9103   0.7038     C
C       0.4756   0.9103   0.9103     C
C      0.47569  0.66749  0.92841     C
C      0.47569  0.92841  0.66749     C
C      0.47569  0.92841  0.92841     C
H       0.4769   0.6627   0.8877     H
H       0.4769   0.6627   0.9727     H
H       0.4769   0.8877   0.6627     H
H       0.4769   0.8877   0.9727     H
H       0.4769   0.9727   0.6627     H
H       0.4769   0.9727   0.8877     H
C      0.47734  0.71946  0.87572     C
C      0.47734  0.71946  0.92748     C
C      0.47734  0.87572  0.71946     C
C      0.47734  0.87572  0.92748     C
C      0.47734  0.92748  0.71946     C
C      0.47734  0.92748  0.87572     C
C      0.47812  0.65088  0.90956     C
C      0.47812  0.65088  0.96144     C
C      0.47812  0.90956  0.65088     C
C      0.47812  0.90956  0.96144     C
C      0.47812  0.96144  0.65088     C
C      0.47812  0.96144  0.90956     C
H       0.4796   0.7074   0.8642     H
H       0.4796   0.7074   0.9488     H
H       0.4796   0.8642   0.7074     H
H       0.4796   0.8642   0.9488     H
H       0.4796   0.9488   0.7074     H
H       0.4796   0.9488   0.8642     H
C      0.48255  0.61551  0.92503     C
C      0.48255  0.61551  0.97691     C
C      0.48255  0.92503  0.61551     C
C      0.48255  0.92503  0.97691     C
C      0.48255  0.97691  0.61551     C
C      0.48255  0.97691  0.92503     C
C      0.48298  0.59862   0.9592     C
C      0.48298   0.9592  0.59862     C
C      0.48298   0.9592   0.9592     C
H       0.4851   0.6037   0.9131     H
H       0.4851   0.6037   0.9981     H
H       0.4851   0.9131   0.6037     H
H       0.4851   0.9131   0.9981     H
H       0.4851   0.9981   0.6037     H
H       0.4851   0.9981   0.9131     H
C      0.49028  0.56012   0.9748     C
C      0.49028   0.9748  0.56012     C
C      0.49028   0.9748   0.9748     C
O      0.49139  0.00397  0.54749     O
O      0.49139  0.00397  0.95715     O
O      0.49139  0.54749  0.00397     O
O      0.49139  0.54749  0.95715     O
O      0.49139  0.95715  0.00397     O
O      0.49139  0.95715  0.54749     O
Cu         0.5  0.02728      0.5    Cu
Cu         0.5  0.02728  0.97272    Cu
Cu         0.5      0.5  0.02728    Cu
Cu         0.5      0.5  0.97272    Cu
Cu         0.5  0.97272  0.02728    Cu
Cu         0.5  0.97272      0.5    Cu
O      0.50861  0.04285  0.45251     O
O      0.50861  0.04285  0.99603     O
O      0.50861  0.45251  0.04285     O
O      0.50861  0.45251  0.99603     O
O      0.50861  0.99603  0.04285     O
O      0.50861  0.99603  0.45251     O
C      0.50972   0.0252   0.0252     C
C      0.50972   0.0252  0.43988     C
C      0.50972  0.43988   0.0252     C
H       0.5149   0.0019   0.0869     H
H       0.5149   0.0019   0.3963     H
H       0.5149   0.0869   0.0019     H
H       0.5149   0.0869   0.3963     H
H       0.5149   0.3963   0.0019     H
H       0.5149   0.3963   0.0869     H
C      0.51702   0.0408   0.0408     C
C      0.51702   0.0408  0.40138     C
C      0.51702  0.40138   0.0408     C
C      0.51745  0.02309  0.07497     C
C      0.51745  0.02309  0.38449     C
C      0.51745  0.07497  0.02309     C
C      0.51745  0.07497  0.38449     C
C      0.51745  0.38449  0.02309     C
C      0.51745  0.38449  0.07497     C
H       0.5204   0.0512   0.1358     H
H       0.5204   0.0512   0.2926     H
H       0.5204   0.1358   0.0512     H
H       0.5204   0.1358   0.2926     H
H       0.5204   0.2926   0.0512     H
H       0.5204   0.2926   0.1358     H
C      0.52188  0.03856  0.09044     C
C      0.52188  0.03856  0.34912     C
C      0.52188  0.09044  0.03856     C
C      0.52188  0.09044  0.34912     C
C      0.52188  0.34912  0.03856     C
C      0.52188  0.34912  0.09044     C
C      0.52266  0.07252  0.12428     C
C      0.52266  0.07252  0.28054     C
C      0.52266  0.12428  0.07252     C
C      0.52266  0.12428  0.28054     C
C      0.52266  0.28054  0.07252     C
C      0.52266  0.28054  0.12428     C
H       0.5231   0.0273   0.1123     H
H       0.5231   0.0273   0.3373     H
H       0.5231   0.1123   0.0273     H
H       0.5231   0.1123   0.3373     H
H       0.5231   0.3373   0.0273     H
H       0.5231   0.3373   0.1123     H
C      0.52431  0.07159  0.07159     C
C      0.52431  0.07159  0.33251     C
C      0.52431  0.33251  0.07159     C
C       0.5244   0.0897   0.0897     C
C       0.5244   0.0897   0.2962     C
C       0.5244   0.2962   0.0897     C
C      0.52445  0.08897  0.14055     C
C      0.52445  0.08897  0.24603     C
C      0.52445  0.14055  0.08897     C
C      0.52445  0.14055  0.24603     C
C      0.52445  0.24603  0.08897     C
C      0.52445  0.24603  0.14055     C
H       0.5245   0.0781   0.1627     H
H       0.5245   0.0781   0.2347     H
H       0.5245   0.1627   0.0781     H
H       0.5245   0.1627   0.2347     H
H       0.5245   0.2347   0.0781     H
H       0.5245   0.2347   0.1627     H
C       0.5261   0.1225   0.1225     C
C       0.5261   0.1225   0.2289     C
C       0.5261   0.2289   0.1225     C
H       0.5316   0.0996   0.1844     H
H       0.5316   0.1844   0.0996     H
H       0.5316   0.1844   0.1844     H
C      0.53179  0.12175  0.17323     C
C      0.53179  0.17323  0.12175     C
C      0.53179  0.17323  0.17323     C
C        0.532   0.1388   0.1388     C
C        0.532   0.1388   0.1904     C
C        0.532   0.1904   0.1388     C
O      0.54749  0.00397  0.49139     O
O      0.54749  0.00397  0.95715     O
O      0.54749  0.49139  0.00397     O
O      0.54749  0.49139  0.95715     O
O      0.54749  0.95715  0.00397     O
O      0.54749  0.95715  0.49139     O
C      0.56012  0.49028   0.9748     C
C      0.56012   0.9748  0.49028     C
C      0.56012   0.9748   0.9748     C
C      0.59862  0.48298   0.9592     C
C      0.59862   0.9592  0.48298     C
C      0.59862   0.9592   0.9592     C
H       0.6037   0.4851   0.9131     H
H       0.6037   0.4851   0.9981     H
H       0.6037   0.9131   0.4851     H
H       0.6037   0.9131   0.9981     H
H       0.6037   0.9981   0.4851     H
H       0.6037   0.9981   0.9131     H
C      0.61551  0.48255  0.92503     C
C      0.61551  0.48255  0.97691     C
C      0.61551  0.92503  0.48255     C
C      0.61551  0.92503  0.97691     C
C      0.61551  0.97691  0.48255     C
C      0.61551  0.97691  0.92503     C
C      0.65088  0.47812  0.90956     C
C      0.65088  0.47812  0.96144     C
C      0.65088  0.90956  0.47812     C
C      0.65088  0.90956  0.96144     C
C      0.65088  0.96144  0.47812     C
C      0.65088  0.96144  0.90956     C
H       0.6627   0.4769   0.8877     H
H       0.6627   0.4769   0.9727     H
H       0.6627   0.8877   0.4769     H
H       0.6627   0.8877   0.9727     H
H       0.6627   0.9727   0.4769     H
H       0.6627   0.9727   0.8877     H
C      0.66749  0.47569  0.92841     C
C      0.66749  0.92841  0.47569     C
C      0.66749  0.92841  0.92841     C
C       0.7038   0.4756   0.9103     C
C       0.7038   0.9103   0.4756     C
C       0.7038   0.9103   0.9103     C
H       0.7074   0.4796   0.8642     H
H       0.7074   0.4796   0.9488     H
H       0.7074   0.8642   0.4796     H
H       0.7074   0.8642   0.9488     H
H       0.7074   0.9488   0.4796     H
H       0.7074   0.9488   0.8642     H
C      0.71946  0.47734  0.87572     C
C      0.71946  0.47734  0.92748     C
C      0.71946  0.87572  0.47734     C
C      0.71946  0.87572  0.92748     C
C      0.71946  0.92748  0.47734     C
C      0.71946  0.92748  0.87572     C
C      0.75397  0.47555  0.85945     C
C      0.75397  0.47555  0.91103     C
C      0.75397  0.85945  0.47555     C
C      0.75397  0.85945  0.91103     C
C      0.75397  0.91103  0.47555     C
C      0.75397  0.91103  0.85945     C
H       0.7653   0.4755   0.8373     H
H       0.7653   0.4755   0.9219     H
H       0.7653   0.8373   0.4755     H
H       0.7653   0.8373   0.9219     H
H       0.7653   0.9219   0.4755     H
H       0.7653   0.9219   0.8373     H
C       0.7711   0.4739   0.8775     C
C       0.7711   0.8775   0.4739     C
C       0.7711   0.8775   0.8775     C
C       0.8096    0.468   0.8612     C
C       0.8096   0.8612    0.468     C
C       0.8096   0.8612   0.8612     C
H       0.8156   0.4684   0.8156     H
H       0.8156   0.4684   0.9004     H
H       0.8156   0.8156   0.4684     H
H       0.8156   0.8156   0.9004     H
H       0.8156   0.9004   0.4684     H
H       0.8156   0.9004   0.8156     H
C      0.82677  0.46821  0.82677     C
C      0.82677  0.46821  0.87825     C
C      0.82677  0.82677  0.46821     C
C      0.82677  0.82677  0.87825     C
C      0.82677  0.87825  0.46821     C
C      0.82677  0.87825  0.82677     C
H       0.8373   0.4755   0.7653     H
H       0.8373   0.4755   0.9219     H
H       0.8373   0.7653   0.4755     H
H       0.8373   0.7653   0.9219     H
H       0.8373   0.9219   0.4755     H
H       0.8373   0.9219   0.7653     H
C      0.85945  0.47555  0.75397     C
C      0.85945  0.47555  0.91103     C
C      0.85945  0.75397  0.47555     C
C      0.85945  0.75397  0.91103     C
C      0.85945  0.91103  0.47555     C
C      0.85945  0.91103  0.75397     C
C       0.8612    0.468   0.8096     C
C       0.8612    0.468   0.8612     C
C       0.8612   0.8096    0.468     C
C       0.8612   0.8096   0.8612     C
C       0.8612   0.8612    0.468     C
C       0.8612   0.8612   0.8096     C
H       0.8642   0.4796   0.7074     H
H       0.8642   0.4796   0.9488     H
H       0.8642   0.7074   0.4796     H
H       0.8642   0.7074   0.9488     H
H       0.8642   0.9488   0.4796     H
H       0.8642   0.9488   0.7074     H
C      0.87572  0.47734  0.71946     C
C      0.87572  0.47734  0.92748     C
C      0.87572  0.71946  0.47734     C
C      0.87572  0.71946  0.92748     C
C      0.87572  0.92748  0.47734     C
C      0.87572  0.92748  0.71946     C
C       0.8775   0.4739   0.7711     C
C       0.8775   0.4739   0.8775     C
C       0.8775   0.7711   0.4739     C
C       0.8775   0.7711   0.8775     C
C       0.8775   0.8775   0.4739     C
C       0.8775   0.8775   0.7711     C
C      0.87825  0.46821  0.82677     C
C      0.87825  0.82677  0.46821     C
C      0.87825  0.82677  0.82677     C
H       0.8877   0.4769   0.6627     H
H       0.8877   0.4769   0.9727     H
H       0.8877   0.6627   0.4769     H
H       0.8877   0.6627   0.9727     H
H       0.8877   0.9727   0.4769     H
H       0.8877   0.9727   0.6627     H
H       0.9004   0.4684   0.8156     H
H       0.9004   0.8156   0.4684     H
H       0.9004   0.8156   0.8156     H
C      0.90956  0.47812  0.65088     C
C      0.90956  0.47812  0.96144     C
C      0.90956  0.65088  0.47812     C
C      0.90956  0.65088  0.96144     C
C      0.90956  0.96144  0.47812     C
C      0.90956  0.96144  0.65088     C
C       0.9103   0.4756   0.7038     C
C       0.9103   0.4756   0.9103     C
C       0.9103   0.7038   0.4756     C
C       0.9103   0.7038   0.9103     C
C       0.9103   0.9103   0.4756     C
C       0.9103   0.9103   0.7038     C
C      0.91103  0.47555  0.75397     C
C      0.91103  0.47555  0.85945     C
C      0.91103  0.75397  0.47555     C
C      0.91103  0.75397  0.85945     C
C      0.91103  0.85945  0.47555     C
C      0.91103  0.85945  0.75397     C
H       0.9131   0.4851   0.6037     H
H       0.9131   0.4851   0.9981     H
H       0.9131   0.6037   0.4851     H
H       0.9131   0.6037   0.9981     H
H       0.9131   0.9981   0.4851     H
H       0.9131   0.9981   0.6037     H
H       0.9219   0.4755   0.7653     H
H       0.9219   0.4755   0.8373     H
H       0.9219   0.7653   0.4755     H
H       0.9219   0.7653   0.8373     H
H       0.9219   0.8373   0.4755     H
H       0.9219   0.8373   0.7653     H
C      0.92503  0.48255  0.61551     C
C      0.92503  0.48255  0.97691     C
C      0.92503  0.61551  0.48255     C
C      0.92503  0.61551  0.97691     C
C      0.92503  0.97691  0.48255     C
C      0.92503  0.97691  0.61551     C
C      0.92748  0.47734  0.71946     C
C      0.92748  0.47734  0.87572     C
C      0.92748  0.71946  0.47734     C
C      0.92748  0.71946  0.87572     C
C      0.92748  0.87572  0.47734     C
C      0.92748  0.87572  0.71946     C
C      0.92841  0.47569  0.66749     C
C      0.92841  0.47569  0.92841     C
C      0.92841  0.66749  0.47569     C
C      0.92841  0.66749  0.92841     C
C      0.92841  0.92841  0.47569     C
C      0.92841  0.92841  0.66749     C
H       0.9488   0.4796   0.7074     H
H       0.9488   0.4796   0.8642     H
H       0.9488   0.7074   0.4796     H
H       0.9488   0.7074   0.8642     H
H       0.9488   0.8642   0.4796     H
H       0.9488   0.8642   0.7074     H
O      0.95715  0.00397  0.49139     O
O      0.95715  0.00397  0.54749     O
O      0.95715  0.49139  0.00397     O
O      0.95715  0.49139  0.54749     O
O      0.95715  0.54749  0.00397     O
O      0.95715  0.54749  0.49139     O
C       0.9592  0.48298  0.59862     C
C       0.9592  0.48298   0.9592     C
C       0.9592  0.59862  0.48298     C
C       0.9592  0.59862   0.9592     C
C       0.9592   0.9592  0.48298     C
C       0.9592   0.9592  0.59862     C
C      0.96144  0.47812  0.65088     C
C      0.96144  0.47812  0.90956     C
C      0.96144  0.65088  0.47812     C
C      0.96144  0.65088  0.90956     C
C      0.96144  0.90956  0.47812     C
C      0.96144  0.90956  0.65088     C
H       0.9727   0.4769   0.6627     H
H       0.9727   0.4769   0.8877     H
H       0.9727   0.6627   0.4769     H
H       0.9727   0.6627   0.8877     H
H       0.9727   0.8877   0.4769     H
H       0.9727   0.8877   0.6627     H
Cu     0.97272  0.02728      0.5    Cu
Cu     0.97272      0.5  0.02728    Cu
Cu     0.97272      0.5      0.5    Cu
C       0.9748  0.49028  0.56012     C
C       0.9748  0.49028   0.9748     C
C       0.9748  0.56012  0.49028     C
C       0.9748  0.56012   0.9748     C
C       0.9748   0.9748  0.49028     C
C       0.9748   0.9748  0.56012     C
C      0.97691  0.48255  0.61551     C
C      0.97691  0.48255  0.92503     C
C      0.97691  0.61551  0.48255     C
C      0.97691  0.61551  0.92503     C
C      0.97691  0.92503  0.48255     C
C      0.97691  0.92503  0.61551     C
O      0.99603  0.04285  0.45251     O
O      0.99603  0.04285  0.50861     O
O      0.99603  0.45251  0.04285     O
O      0.99603  0.45251  0.50861     O
O      0.99603  0.50861  0.04285     O
O      0.99603  0.50861  0.45251     O
H       0.9981   0.4851   0.6037     H
H       0.9981   0.4851   0.9131     H
H       0.9981   0.6037   0.4851     H
H       0.9981   0.6037   0.9131     H
H       0.9981   0.9131   0.4851     H
H       0.9981   0.9131   0.6037     H
