data_I
_chemical_name_common  '/home/zhangsd/repos/MofS-CGCNN/ML/data/SSD/clean_cifs/BEDYEQ_clean'
_cell_length_a 17.14300
_cell_length_b 41.96800
_cell_length_c 41.96800
_cell_angle_alpha 120.00000
_cell_angle_beta  90.00000
_cell_angle_gamma 90.00000
_space_group_name_H-M_alt      'P 1'


loop_
_space_group_symop_operation_xyz
  'x, y, z' 

loop_
_atom_site_label
_atom_site_fract_x
_atom_site_fract_y
_atom_site_fract_z
_atom_site_type_symbol
O          0.0  0.03385  0.47404     O
O          0.0  0.03385  0.55981     O
Zr         0.0  0.06764  0.53382    Zr
O          0.0  0.44019  0.47404     O
O          0.0  0.44019  0.96615     O
Zr         0.0  0.46618  0.53382    Zr
Zr         0.0  0.46618  0.93236    Zr
O          0.0  0.47404  0.03385     O
O          0.0  0.47404  0.44019     O
O          0.0  0.52596  0.55981     O
O          0.0  0.52596  0.96615     O
Zr         0.0  0.53382  0.06764    Zr
Zr         0.0  0.53382  0.46618    Zr
O          0.0  0.55981  0.03385     O
O          0.0  0.55981  0.52596     O
Zr         0.0  0.93236  0.46618    Zr
O          0.0  0.96615  0.44019     O
O          0.0  0.96615  0.52596     O
O      0.07892  0.09873   0.5176     O
O      0.07892  0.09873  0.58113     O
O      0.07892  0.41887   0.5176     O
O      0.07892  0.41887  0.90127     O
O      0.07892   0.4824  0.58113     O
O      0.07892   0.4824  0.90127     O
O      0.07892   0.5176  0.09873     O
O      0.07892   0.5176  0.41887     O
O      0.07892  0.58113  0.09873     O
O      0.07892  0.58113   0.4824     O
O      0.07892  0.90127  0.41887     O
O      0.07892  0.90127   0.4824     O
Zr     0.10266     -0.0  0.45797    Zr
Zr     0.10266     -0.0  0.54203    Zr
Zr     0.10266  0.45797      0.0    Zr
Zr     0.10266  0.45797  0.45797    Zr
Zr     0.10266  0.54203      0.0    Zr
Zr     0.10266  0.54203  0.54203    Zr
O       0.1031  0.03289  0.51645     O
O       0.1031  0.48356  0.51645     O
O       0.1031  0.48356  0.96712     O
O       0.1031  0.51644  0.03288     O
O       0.1031  0.51644  0.48355     O
O       0.1031  0.96711  0.48355     O
C       0.1314  0.08768   0.4936     C
C       0.1314  0.08768  0.59408     C
C       0.1314  0.40592   0.4936     C
C       0.1314  0.40592  0.91232     C
C       0.1314   0.4936  0.08768     C
C       0.1314   0.4936  0.40592     C
C       0.1314   0.5064  0.59408     C
C       0.1314   0.5064  0.91232     C
C       0.1314  0.59408  0.08768     C
C       0.1314  0.59408   0.5064     C
C       0.1314  0.91232  0.40592     C
C       0.1314  0.91232   0.5064     C
O      0.14348  0.05532  0.46905     O
O      0.14348  0.05532  0.58627     O
O      0.14348  0.41373  0.46905     O
O      0.14348  0.41373  0.94468     O
O      0.14348  0.46905  0.05532     O
O      0.14348  0.46905  0.41373     O
O      0.14348  0.53095  0.58627     O
O      0.14348  0.53095  0.94468     O
O      0.14348  0.58627  0.05532     O
O      0.14348  0.58627  0.53095     O
O      0.14348  0.94468  0.41373     O
O      0.14348  0.94468  0.53095     O
H       0.1577   0.1564   0.5468     H
H       0.1577   0.1564   0.6096     H
H       0.1577   0.3904   0.5468     H
H       0.1577   0.3904   0.8436     H
H       0.1577   0.4532   0.6096     H
H       0.1577   0.4532   0.8436     H
H       0.1577   0.5468   0.1564     H
H       0.1577   0.5468   0.3904     H
H       0.1577   0.6096   0.1564     H
H       0.1577   0.6096   0.4532     H
H       0.1577   0.8436   0.3904     H
H       0.1577   0.8436   0.4532     H
C       0.1876  0.11662  0.49592     C
C       0.1876  0.11662   0.6207     C
C       0.1876   0.3793  0.49592     C
C       0.1876   0.3793  0.88338     C
C       0.1876  0.49592  0.11662     C
C       0.1876  0.49592   0.3793     C
C       0.1876  0.50408   0.6207     C
C       0.1876  0.50408  0.88338     C
C       0.1876   0.6207  0.11662     C
C       0.1876   0.6207  0.50408     C
C       0.1876  0.88338   0.3793     C
C       0.1876  0.88338  0.50408     C
C       0.1919  0.15019  0.52665     C
C       0.1919  0.15019  0.62354     C
C       0.1919  0.37646  0.52665     C
C       0.1919  0.37646  0.84981     C
C       0.1919  0.47335  0.62354     C
C       0.1919  0.47335  0.84981     C
C       0.1919  0.52665  0.15019     C
C       0.1919  0.52665  0.37646     C
C       0.1919  0.62354  0.15019     C
C       0.1919  0.62354  0.47335     C
C       0.1919  0.84981  0.37646     C
C       0.1919  0.84981  0.47335     C
H       0.2089   0.2201   0.4981     H
H       0.2089   0.2201    0.722     H
H       0.2089    0.278   0.4981     H
H       0.2089    0.278   0.7799     H
H       0.2089   0.4981   0.2201     H
H       0.2089   0.4981    0.278     H
H       0.2089   0.5019    0.722     H
H       0.2089   0.5019   0.7799     H
H       0.2089    0.722   0.2201     H
H       0.2089    0.722   0.5019     H
H       0.2089   0.7799    0.278     H
H       0.2089   0.7799   0.5019     H
H       0.2363   0.0842   0.4455     H
H       0.2363   0.0842   0.6387     H
H       0.2363   0.3613   0.4455     H
H       0.2363   0.3613   0.9158     H
H       0.2363   0.4455   0.0842     H
H       0.2363   0.4455   0.3613     H
H       0.2363   0.5545   0.6387     H
H       0.2363   0.5545   0.9158     H
H       0.2363   0.6387   0.0842     H
H       0.2363   0.6387   0.5545     H
H       0.2363   0.9158   0.3613     H
H       0.2363   0.9158   0.5545     H
C       0.2381  0.10779  0.46701     C
C       0.2381  0.10779  0.64078     C
C       0.2381  0.35922  0.46701     C
C       0.2381  0.35922  0.89221     C
C       0.2381  0.46701  0.10779     C
C       0.2381  0.46701  0.35922     C
C       0.2381  0.53299  0.64078     C
C       0.2381  0.53299  0.89221     C
C       0.2381  0.64078  0.10779     C
C       0.2381  0.64078  0.53299     C
C       0.2381  0.89221  0.35922     C
C       0.2381  0.89221  0.53299     C
C       0.2472  0.17569  0.52848     C
C       0.2472  0.17569  0.64721     C
C       0.2472  0.35279  0.52848     C
C       0.2472  0.35279  0.82431     C
C       0.2472  0.47152  0.64721     C
C       0.2472  0.47152  0.82431     C
C       0.2472  0.52848  0.17569     C
C       0.2472  0.52848  0.35279     C
C       0.2472  0.64721  0.17569     C
C       0.2472  0.64721  0.47152     C
C       0.2472  0.82431  0.35279     C
C       0.2472  0.82431  0.47152     C
H       0.2494   0.1995   0.5497     H
H       0.2494   0.1995   0.6498     H
H       0.2494   0.3502   0.5497     H
H       0.2494   0.3502   0.8005     H
H       0.2494   0.4503   0.6498     H
H       0.2494   0.4503   0.8005     H
H       0.2494   0.5497   0.1995     H
H       0.2494   0.5497   0.3502     H
H       0.2494   0.6498   0.1995     H
H       0.2494   0.6498   0.4503     H
H       0.2494   0.8005   0.3502     H
H       0.2494   0.8005   0.4503     H
C       0.2536  0.23415  0.49969     C
C       0.2536  0.23415  0.73446     C
C       0.2536  0.26554  0.49969     C
C       0.2536  0.26554  0.76585     C
C       0.2536  0.49969  0.23415     C
C       0.2536  0.49969  0.26554     C
C       0.2536  0.50031  0.73446     C
C       0.2536  0.50031  0.76585     C
C       0.2536  0.73446  0.23415     C
C       0.2536  0.73446  0.50031     C
C       0.2536  0.76585  0.26554     C
C       0.2536  0.76585  0.50031     C
C       0.2913  0.13396  0.46991     C
C       0.2913  0.13396  0.66405     C
C       0.2913  0.33595  0.46991     C
C       0.2913  0.33595  0.86604     C
C       0.2913  0.46991  0.13396     C
C       0.2913  0.46991  0.33595     C
C       0.2913  0.53009  0.66405     C
C       0.2913  0.53009  0.86604     C
C       0.2913  0.66405  0.13396     C
C       0.2913  0.66405  0.53009     C
C       0.2913  0.86604  0.33595     C
C       0.2913  0.86604  0.53009     C
C       0.2975  0.16701  0.50048     C
C       0.2975  0.16701  0.66653     C
C       0.2975  0.33347  0.50048     C
C       0.2975  0.33347  0.83299     C
C       0.2975  0.49952  0.66653     C
C       0.2975  0.49952  0.83299     C
C       0.2975  0.50048  0.16701     C
C       0.2975  0.50048  0.33347     C
C       0.2975  0.66653  0.16701     C
C       0.2975  0.66653  0.49952     C
C       0.2975  0.83299  0.33347     C
C       0.2975  0.83299  0.49952     C
H       0.3245   0.1283   0.4496     H
H       0.3245   0.1283   0.6787     H
H       0.3245   0.3213   0.4496     H
H       0.3245   0.3213   0.8717     H
H       0.3245   0.4496   0.1283     H
H       0.3245   0.4496   0.3213     H
H       0.3245   0.5504   0.6787     H
H       0.3245   0.5504   0.8717     H
H       0.3245   0.6787   0.1283     H
H       0.3245   0.6787   0.5504     H
H       0.3245   0.8717   0.3213     H
H       0.3245   0.8717   0.5504     H
C       0.3334  0.22487  0.50258     C
C       0.3334  0.22487  0.72229     C
C       0.3334  0.27771  0.50258     C
C       0.3334  0.27771  0.77513     C
C       0.3334  0.49742  0.72229     C
C       0.3334  0.49742  0.77513     C
C       0.3334  0.50258  0.22487     C
C       0.3334  0.50258  0.27771     C
C       0.3334  0.72229  0.22487     C
C       0.3334  0.72229  0.49742     C
C       0.3334  0.77513  0.27771     C
C       0.3334  0.77513  0.49742     C
C       0.3581  0.19348  0.50226     C
C       0.3581  0.19348  0.69122     C
C       0.3581  0.30878  0.50226     C
C       0.3581  0.30878  0.80652     C
C       0.3581  0.49774  0.69122     C
C       0.3581  0.49774  0.80652     C
C       0.3581  0.50226  0.19348     C
C       0.3581  0.50226  0.30878     C
C       0.3581  0.69122  0.19348     C
C       0.3581  0.69122  0.49774     C
C       0.3581  0.80652  0.30878     C
C       0.3581  0.80652  0.49774     C
N       0.3824  0.25202  0.50405     N
N       0.3824  0.25203  0.74798     N
N       0.3824  0.49595  0.74798     N
N       0.3824  0.50405  0.25203     N
N       0.3824  0.74797  0.25202     N
N       0.3824  0.74797  0.49595     N
H        0.428   0.1332   0.5031     H
H        0.428   0.1332   0.6301     H
H        0.428   0.3699   0.5031     H
H        0.428   0.3699   0.8668     H
H        0.428   0.4969   0.6301     H
H        0.428   0.4969   0.8668     H
H        0.428   0.5031   0.1332     H
H        0.428   0.5031   0.3699     H
H        0.428   0.6301   0.1332     H
H        0.428   0.6301   0.4969     H
H        0.428   0.8668   0.3699     H
H        0.428   0.8668   0.4969     H
C       0.4354  0.18392  0.50287     C
C       0.4354  0.18392  0.68105     C
C       0.4354  0.31895  0.50287     C
C       0.4354  0.31895  0.81608     C
C       0.4354  0.49713  0.68105     C
C       0.4354  0.49713  0.81608     C
C       0.4354  0.50287  0.18392     C
C       0.4354  0.50287  0.31895     C
C       0.4354  0.68105  0.18392     C
C       0.4354  0.68105  0.49713     C
C       0.4354  0.81608  0.31895     C
C       0.4354  0.81608  0.49713     C
C       0.4607  0.15141    0.503     C
C       0.4607  0.15141  0.64841     C
C       0.4607  0.35159    0.503     C
C       0.4607  0.35159  0.84859     C
C       0.4607    0.497  0.64841     C
C       0.4607    0.497  0.84859     C
C       0.4607    0.503  0.15141     C
C       0.4607    0.503  0.35159     C
C       0.4607  0.64841  0.15141     C
C       0.4607  0.64841    0.497     C
C       0.4607  0.84859  0.35159     C
C       0.4607  0.84859    0.497     C
N          0.5  0.20432  0.50293     N
N          0.5  0.20432  0.70139     N
Fe         0.5    0.256    0.512    Fe
Fe         0.5    0.256    0.744    Fe
Cl         0.5  0.28852  0.57704    Cl
Cl         0.5  0.28852  0.71148    Cl
N          0.5  0.29861  0.50293     N
N          0.5  0.29861  0.79568     N
Cl         0.5  0.42296  0.71148    Cl
Fe         0.5    0.488    0.744    Fe
N          0.5  0.49707  0.70139     N
N          0.5  0.49707  0.79568     N
N          0.5  0.50293  0.20432     N
N          0.5  0.50293  0.29861     N
Fe         0.5    0.512    0.256    Fe
Cl         0.5  0.57704  0.28852    Cl
N          0.5  0.70139  0.20432     N
N          0.5  0.70139  0.49707     N
Cl         0.5  0.71148  0.28852    Cl
Cl         0.5  0.71148  0.42296    Cl
Fe         0.5    0.744    0.256    Fe
Fe         0.5    0.744    0.488    Fe
N          0.5  0.79568  0.29861     N
N          0.5  0.79568  0.49707     N
C       0.5393  0.15141    0.503     C
C       0.5393  0.15141  0.64841     C
C       0.5393  0.35159    0.503     C
C       0.5393  0.35159  0.84859     C
C       0.5393    0.497  0.64841     C
C       0.5393    0.497  0.84859     C
C       0.5393    0.503  0.15141     C
C       0.5393    0.503  0.35159     C
C       0.5393  0.64841  0.15141     C
C       0.5393  0.64841    0.497     C
C       0.5393  0.84859  0.35159     C
C       0.5393  0.84859    0.497     C
C       0.5646  0.18392  0.50287     C
C       0.5646  0.18392  0.68105     C
C       0.5646  0.31895  0.50287     C
C       0.5646  0.31895  0.81608     C
C       0.5646  0.49713  0.68105     C
C       0.5646  0.49713  0.81608     C
C       0.5646  0.50287  0.18392     C
C       0.5646  0.50287  0.31895     C
C       0.5646  0.68105  0.18392     C
C       0.5646  0.68105  0.49713     C
C       0.5646  0.81608  0.31895     C
C       0.5646  0.81608  0.49713     C
H        0.572   0.1332   0.5031     H
H        0.572   0.1332   0.6301     H
H        0.572   0.3699   0.5031     H
H        0.572   0.3699   0.8668     H
H        0.572   0.4969   0.6301     H
H        0.572   0.4969   0.8668     H
H        0.572   0.5031   0.1332     H
H        0.572   0.5031   0.3699     H
H        0.572   0.6301   0.1332     H
H        0.572   0.6301   0.4969     H
H        0.572   0.8668   0.3699     H
H        0.572   0.8668   0.4969     H
N       0.6176  0.25202  0.74797     N
N       0.6176  0.25203  0.50406     N
N       0.6176  0.49595  0.74798     N
N       0.6176  0.50405  0.25202     N
N       0.6176  0.74797  0.25202     N
N       0.6176  0.74797  0.49595     N
C       0.6419  0.19348  0.50226     C
C       0.6419  0.19348  0.69122     C
C       0.6419  0.30878  0.50226     C
C       0.6419  0.30878  0.80652     C
C       0.6419  0.49774  0.69122     C
C       0.6419  0.49774  0.80652     C
C       0.6419  0.50226  0.19348     C
C       0.6419  0.50226  0.30878     C
C       0.6419  0.69122  0.19348     C
C       0.6419  0.69122  0.49774     C
C       0.6419  0.80652  0.30878     C
C       0.6419  0.80652  0.49774     C
C       0.6666  0.22487  0.50258     C
C       0.6666  0.22487  0.72229     C
C       0.6666  0.27771  0.50258     C
C       0.6666  0.27771  0.77513     C
C       0.6666  0.49742  0.72229     C
C       0.6666  0.49742  0.77513     C
C       0.6666  0.50258  0.22487     C
C       0.6666  0.50258  0.27771     C
C       0.6666  0.72229  0.22487     C
C       0.6666  0.72229  0.49742     C
C       0.6666  0.77513  0.27771     C
C       0.6666  0.77513  0.49742     C
H       0.6755   0.1283   0.4496     H
H       0.6755   0.1283   0.6787     H
H       0.6755   0.3213   0.4496     H
H       0.6755   0.3213   0.8717     H
H       0.6755   0.4496   0.1283     H
H       0.6755   0.4496   0.3213     H
H       0.6755   0.5504   0.6787     H
H       0.6755   0.5504   0.8717     H
H       0.6755   0.6787   0.1283     H
H       0.6755   0.6787   0.5504     H
H       0.6755   0.8717   0.3213     H
H       0.6755   0.8717   0.5504     H
C       0.7025  0.16701  0.50048     C
C       0.7025  0.16701  0.66653     C
C       0.7025  0.33347  0.50048     C
C       0.7025  0.33347  0.83299     C
C       0.7025  0.49952  0.66653     C
C       0.7025  0.49952  0.83299     C
C       0.7025  0.50048  0.16701     C
C       0.7025  0.50048  0.33347     C
C       0.7025  0.66653  0.16701     C
C       0.7025  0.66653  0.49952     C
C       0.7025  0.83299  0.33347     C
C       0.7025  0.83299  0.49952     C
C       0.7087  0.13396  0.46991     C
C       0.7087  0.13396  0.66405     C
C       0.7087  0.33595  0.46991     C
C       0.7087  0.33595  0.86604     C
C       0.7087  0.46991  0.13396     C
C       0.7087  0.46991  0.33595     C
C       0.7087  0.53009  0.66405     C
C       0.7087  0.53009  0.86604     C
C       0.7087  0.66405  0.13396     C
C       0.7087  0.66405  0.53009     C
C       0.7087  0.86604  0.33595     C
C       0.7087  0.86604  0.53009     C
C       0.7464  0.23415  0.49969     C
C       0.7464  0.23415  0.73446     C
C       0.7464  0.26554  0.49969     C
C       0.7464  0.26554  0.76585     C
C       0.7464  0.49969  0.23415     C
C       0.7464  0.49969  0.26554     C
C       0.7464  0.50031  0.73446     C
C       0.7464  0.50031  0.76585     C
C       0.7464  0.73446  0.23415     C
C       0.7464  0.73446  0.50031     C
C       0.7464  0.76585  0.26554     C
C       0.7464  0.76585  0.50031     C
H       0.7506   0.1995   0.5497     H
H       0.7506   0.1995   0.6498     H
H       0.7506   0.3502   0.5497     H
H       0.7506   0.3502   0.8005     H
H       0.7506   0.4503   0.6498     H
H       0.7506   0.4503   0.8005     H
H       0.7506   0.5497   0.1995     H
H       0.7506   0.5497   0.3502     H
H       0.7506   0.6498   0.1995     H
H       0.7506   0.6498   0.4503     H
H       0.7506   0.8005   0.3502     H
H       0.7506   0.8005   0.4503     H
C       0.7528  0.17569  0.52848     C
C       0.7528  0.17569  0.64721     C
C       0.7528  0.35279  0.52848     C
C       0.7528  0.35279  0.82431     C
C       0.7528  0.47152  0.64721     C
C       0.7528  0.47152  0.82431     C
C       0.7528  0.52848  0.17569     C
C       0.7528  0.52848  0.35279     C
C       0.7528  0.64721  0.17569     C
C       0.7528  0.64721  0.47152     C
C       0.7528  0.82431  0.35279     C
C       0.7528  0.82431  0.47152     C
C       0.7619  0.10779  0.46701     C
C       0.7619  0.10779  0.64078     C
C       0.7619  0.35922  0.46701     C
C       0.7619  0.35922  0.89221     C
C       0.7619  0.46701  0.10779     C
C       0.7619  0.46701  0.35922     C
C       0.7619  0.53299  0.64078     C
C       0.7619  0.53299  0.89221     C
C       0.7619  0.64078  0.10779     C
C       0.7619  0.64078  0.53299     C
C       0.7619  0.89221  0.35922     C
C       0.7619  0.89221  0.53299     C
H       0.7637   0.0842   0.4455     H
H       0.7637   0.0842   0.6387     H
H       0.7637   0.3613   0.4455     H
H       0.7637   0.3613   0.9158     H
H       0.7637   0.4455   0.0842     H
H       0.7637   0.4455   0.3613     H
H       0.7637   0.5545   0.6387     H
H       0.7637   0.5545   0.9158     H
H       0.7637   0.6387   0.0842     H
H       0.7637   0.6387   0.5545     H
H       0.7637   0.9158   0.3613     H
H       0.7637   0.9158   0.5545     H
H       0.7911   0.2201   0.4981     H
H       0.7911   0.2201    0.722     H
H       0.7911    0.278   0.4981     H
H       0.7911    0.278   0.7799     H
H       0.7911   0.4981   0.2201     H
H       0.7911   0.4981    0.278     H
H       0.7911   0.5019    0.722     H
H       0.7911   0.5019   0.7799     H
H       0.7911    0.722   0.2201     H
H       0.7911    0.722   0.5019     H
H       0.7911   0.7799    0.278     H
H       0.7911   0.7799   0.5019     H
C       0.8081  0.15019  0.52665     C
C       0.8081  0.15019  0.62354     C
C       0.8081  0.37646  0.52665     C
C       0.8081  0.37646  0.84981     C
C       0.8081  0.47335  0.62354     C
C       0.8081  0.47335  0.84981     C
C       0.8081  0.52665  0.15019     C
C       0.8081  0.52665  0.37646     C
C       0.8081  0.62354  0.15019     C
C       0.8081  0.62354  0.47335     C
C       0.8081  0.84981  0.37646     C
C       0.8081  0.84981  0.47335     C
C       0.8124  0.11662  0.49592     C
C       0.8124  0.11662   0.6207     C
C       0.8124   0.3793  0.49592     C
C       0.8124   0.3793  0.88338     C
C       0.8124  0.49592  0.11662     C
C       0.8124  0.49592   0.3793     C
C       0.8124  0.50408   0.6207     C
C       0.8124  0.50408  0.88338     C
C       0.8124   0.6207  0.11662     C
C       0.8124   0.6207  0.50408     C
C       0.8124  0.88338   0.3793     C
C       0.8124  0.88338  0.50408     C
H       0.8423   0.1564   0.5468     H
H       0.8423   0.1564   0.6096     H
H       0.8423   0.3904   0.5468     H
H       0.8423   0.3904   0.8436     H
H       0.8423   0.4532   0.6096     H
H       0.8423   0.4532   0.8436     H
H       0.8423   0.5468   0.1564     H
H       0.8423   0.5468   0.3904     H
H       0.8423   0.6096   0.1564     H
H       0.8423   0.6096   0.4532     H
H       0.8423   0.8436   0.3904     H
H       0.8423   0.8436   0.4532     H
O      0.85652  0.05532  0.46905     O
O      0.85652  0.05532  0.58627     O
O      0.85652  0.41373  0.46905     O
O      0.85652  0.41373  0.94468     O
O      0.85652  0.46905  0.05532     O
O      0.85652  0.46905  0.41373     O
O      0.85652  0.53095  0.58627     O
O      0.85652  0.53095  0.94468     O
O      0.85652  0.58627  0.05532     O
O      0.85652  0.58627  0.53095     O
O      0.85652  0.94468  0.41373     O
O      0.85652  0.94468  0.53095     O
C       0.8686  0.08768   0.4936     C
C       0.8686  0.08768  0.59408     C
C       0.8686  0.40592   0.4936     C
C       0.8686  0.40592  0.91232     C
C       0.8686   0.4936  0.08768     C
C       0.8686   0.4936  0.40592     C
C       0.8686   0.5064  0.59408     C
C       0.8686   0.5064  0.91232     C
C       0.8686  0.59408  0.08768     C
C       0.8686  0.59408   0.5064     C
C       0.8686  0.91232  0.40592     C
C       0.8686  0.91232   0.5064     C
O       0.8969  0.03289  0.51645     O
O       0.8969  0.48356  0.51645     O
O       0.8969  0.48356  0.96712     O
O       0.8969  0.51644  0.03289     O
O       0.8969  0.51644  0.48355     O
O       0.8969  0.96711  0.48355     O
Zr     0.89734     -0.0  0.45797    Zr
Zr     0.89734     -0.0  0.54203    Zr
Zr     0.89734  0.45797     -0.0    Zr
Zr     0.89734  0.45797  0.45797    Zr
Zr     0.89734  0.54203      0.0    Zr
Zr     0.89734  0.54203  0.54203    Zr
O      0.92108  0.09873   0.5176     O
O      0.92108  0.09873  0.58113     O
O      0.92108  0.41887   0.5176     O
O      0.92108  0.41887  0.90127     O
O      0.92108   0.4824  0.58113     O
O      0.92108   0.4824  0.90127     O
O      0.92108   0.5176  0.09873     O
O      0.92108   0.5176  0.41887     O
O      0.92108  0.58113  0.09873     O
O      0.92108  0.58113   0.4824     O
O      0.92108  0.90127  0.41887     O
O      0.92108  0.90127   0.4824     O
