data_I
_chemical_name_common  '/home/zhangsd/repos/MofS-CGCNN/ML/data/SSD/clean_cifs/BEFLAB01_clean'
_cell_length_a 20.14690
_cell_length_b 20.51470
_cell_length_c 10.02420
_cell_angle_alpha 90.00000
_cell_angle_beta  90.00000
_cell_angle_gamma 90.00000
_space_group_name_H-M_alt      'P 1'


loop_
_space_group_symop_operation_xyz
  'x, y, z' 

loop_
_atom_site_label
_atom_site_fract_x
_atom_site_fract_y
_atom_site_fract_z
_atom_site_type_symbol
O        0.019   0.0834   0.0577     O
O        0.019   0.4166   0.4423     O
O        0.019   0.5834   0.9423     O
O        0.019   0.9166   0.5577     O
Al      0.0694   0.0656   0.4059    Al
Al      0.0694   0.4344   0.0941    Al
Al      0.0694   0.5656   0.5941    Al
Al      0.0694   0.9344   0.9059    Al
P       0.0867   0.0578   0.0914     P
P       0.0867   0.4422   0.4086     P
P       0.0867   0.5578   0.9086     P
P       0.0867   0.9422   0.5914     P
O       0.0906   0.0369   0.2372     O
O       0.0906   0.4631   0.2628     O
O       0.0906   0.5369   0.7628     O
O       0.0906   0.9631   0.7372     O
O       0.1039   0.0008   0.5095     O
O       0.1039   0.4992   0.9905     O
O       0.1039   0.5008   0.4905     O
O       0.1039   0.9992   0.0095     O
O       0.1089   0.1444    0.434     O
O       0.1089   0.3556    0.066     O
O       0.1089   0.6444    0.566     O
O       0.1089   0.8556    0.934     O
O       0.1385   0.1083   0.0635     O
O       0.1385   0.3917   0.4365     O
O       0.1385   0.6083   0.9365     O
O       0.1385   0.8917   0.5635     O
O       0.1638   0.2493   0.0552     O
O       0.1638   0.2507   0.4448     O
O       0.1638   0.7493   0.9448     O
O       0.1638   0.7507   0.5552     O
P       0.1762   0.1788   0.4322     P
P       0.1762   0.3212   0.0678     P
P       0.1762   0.6788   0.5678     P
P       0.1762   0.8212   0.9322     P
Al      0.1983   0.1711   0.1199    Al
Al      0.1983   0.3289   0.3801    Al
Al      0.1983   0.6711   0.8801    Al
Al      0.1983   0.8289   0.6199    Al
O       0.2143   0.1655   0.3073     O
O       0.2143   0.3345   0.1927     O
O       0.2143   0.6655   0.6927     O
O       0.2143   0.8345   0.8073     O
O       0.2186   0.1567   0.5508     O
O       0.2186   0.3433   0.9492     O
O       0.2186   0.6567   0.4492     O
O       0.2186   0.8433   0.0508     O
O       0.2814   0.1567   0.0508     O
O       0.2814   0.3433   0.4492     O
O       0.2814   0.6567   0.9492     O
O       0.2814   0.8433   0.5508     O
O       0.2857   0.1655   0.8073     O
O       0.2857   0.3345   0.6927     O
O       0.2857   0.6655   0.1927     O
O       0.2857   0.8345   0.3073     O
Al      0.3017   0.1711   0.6199    Al
Al      0.3017   0.3289   0.8801    Al
Al      0.3017   0.6711   0.3801    Al
Al      0.3017   0.8289   0.1199    Al
P       0.3238   0.1788   0.9322     P
P       0.3238   0.3212   0.5678     P
P       0.3238   0.6788   0.0678     P
P       0.3238   0.8212   0.4322     P
O       0.3362   0.2493   0.5552     O
O       0.3362   0.2507   0.9448     O
O       0.3362   0.7493   0.4448     O
O       0.3362   0.7507   0.0552     O
O       0.3615   0.1083   0.5635     O
O       0.3615   0.3917   0.9365     O
O       0.3615   0.6083   0.4365     O
O       0.3615   0.8917   0.0635     O
O       0.3911   0.1444    0.934     O
O       0.3911   0.3556    0.566     O
O       0.3911   0.6444    0.066     O
O       0.3911   0.8556    0.434     O
O       0.3961   0.0008   0.0095     O
O       0.3961   0.4992   0.4905     O
O       0.3961   0.5008   0.9905     O
O       0.3961   0.9992   0.5095     O
O       0.4094   0.0369   0.7372     O
O       0.4094   0.4631   0.7628     O
O       0.4094   0.5369   0.2628     O
O       0.4094   0.9631   0.2372     O
P       0.4133   0.0578   0.5914     P
P       0.4133   0.4422   0.9086     P
P       0.4133   0.5578   0.4086     P
P       0.4133   0.9422   0.0914     P
Al      0.4306   0.0656   0.9059    Al
Al      0.4306   0.4344   0.5941    Al
Al      0.4306   0.5656   0.0941    Al
Al      0.4306   0.9344   0.4059    Al
O        0.481   0.0834   0.5577     O
O        0.481   0.4166   0.9423     O
O        0.481   0.5834   0.4423     O
O        0.481   0.9166   0.0577     O
O        0.519   0.0834   0.9423     O
O        0.519   0.4166   0.5577     O
O        0.519   0.5834   0.0577     O
O        0.519   0.9166   0.4423     O
Al      0.5694   0.0656   0.5941    Al
Al      0.5694   0.4344   0.9059    Al
Al      0.5694   0.5656   0.4059    Al
Al      0.5694   0.9344   0.0941    Al
P       0.5867   0.0578   0.9086     P
P       0.5867   0.4422   0.5914     P
P       0.5867   0.5578   0.0914     P
P       0.5867   0.9422   0.4086     P
O       0.5906   0.0369   0.7628     O
O       0.5906   0.4631   0.7372     O
O       0.5906   0.5369   0.2372     O
O       0.5906   0.9631   0.2628     O
O       0.6039   0.0008   0.4905     O
O       0.6039   0.4992   0.0095     O
O       0.6039   0.5008   0.5095     O
O       0.6039   0.9992   0.9905     O
O       0.6089   0.1444    0.566     O
O       0.6089   0.3556    0.934     O
O       0.6089   0.6444    0.434     O
O       0.6089   0.8556    0.066     O
O       0.6385   0.1083   0.9365     O
O       0.6385   0.3917   0.5635     O
O       0.6385   0.6083   0.0635     O
O       0.6385   0.8917   0.4365     O
O       0.6638   0.2493   0.9448     O
O       0.6638   0.2507   0.5552     O
O       0.6638   0.7493   0.0552     O
O       0.6638   0.7507   0.4448     O
P       0.6762   0.1788   0.5678     P
P       0.6762   0.3212   0.9322     P
P       0.6762   0.6788   0.4322     P
P       0.6762   0.8212   0.0678     P
Al      0.6983   0.1711   0.8801    Al
Al      0.6983   0.3289   0.6199    Al
Al      0.6983   0.6711   0.1199    Al
Al      0.6983   0.8289   0.3801    Al
O       0.7143   0.1655   0.6927     O
O       0.7143   0.3345   0.8073     O
O       0.7143   0.6655   0.3073     O
O       0.7143   0.8345   0.1927     O
O       0.7186   0.1567   0.4492     O
O       0.7186   0.3433   0.0508     O
O       0.7186   0.6567   0.5508     O
O       0.7186   0.8433   0.9492     O
O       0.7814   0.1567   0.9492     O
O       0.7814   0.3433   0.5508     O
O       0.7814   0.6567   0.0508     O
O       0.7814   0.8433   0.4492     O
O       0.7857   0.1655   0.1927     O
O       0.7857   0.3345   0.3073     O
O       0.7857   0.6655   0.8073     O
O       0.7857   0.8345   0.6927     O
Al      0.8017   0.1711   0.3801    Al
Al      0.8017   0.3289   0.1199    Al
Al      0.8017   0.6711   0.6199    Al
Al      0.8017   0.8289   0.8801    Al
P       0.8238   0.1788   0.0678     P
P       0.8238   0.3212   0.4322     P
P       0.8238   0.6788   0.9322     P
P       0.8238   0.8212   0.5678     P
O       0.8362   0.2493   0.4448     O
O       0.8362   0.2507   0.0552     O
O       0.8362   0.7493   0.5552     O
O       0.8362   0.7507   0.9448     O
O       0.8615   0.1083   0.4365     O
O       0.8615   0.3917   0.0635     O
O       0.8615   0.6083   0.5635     O
O       0.8615   0.8917   0.9365     O
O       0.8911   0.1444    0.066     O
O       0.8911   0.3556    0.434     O
O       0.8911   0.6444    0.934     O
O       0.8911   0.8556    0.566     O
O       0.8961   0.0008   0.9905     O
O       0.8961   0.4992   0.5095     O
O       0.8961   0.5008   0.0095     O
O       0.8961   0.9992   0.4905     O
O       0.9094   0.0369   0.2628     O
O       0.9094   0.4631   0.2372     O
O       0.9094   0.5369   0.7372     O
O       0.9094   0.9631   0.7628     O
P       0.9133   0.0578   0.4086     P
P       0.9133   0.4422   0.0914     P
P       0.9133   0.5578   0.5914     P
P       0.9133   0.9422   0.9086     P
Al      0.9306   0.0656   0.0941    Al
Al      0.9306   0.4344   0.4059    Al
Al      0.9306   0.5656   0.9059    Al
Al      0.9306   0.9344   0.5941    Al
O        0.981   0.0834   0.4423     O
O        0.981   0.4166   0.0577     O
O        0.981   0.5834   0.5577     O
O        0.981   0.9166   0.9423     O
