data_I
_chemical_name_common  '/home/zhangsd/repos/MofS-CGCNN/ML/data/SSD/clean_cifs/BEFMOQ_clean'
_cell_length_a 14.13000
_cell_length_b 13.17800
_cell_length_c 14.01800
_cell_angle_alpha 90.00000
_cell_angle_beta  90.56100
_cell_angle_gamma 90.00000
_space_group_name_H-M_alt      'P 1'


loop_
_space_group_symop_operation_xyz
  'x, y, z' 

loop_
_atom_site_label
_atom_site_fract_x
_atom_site_fract_y
_atom_site_fract_z
_atom_site_type_symbol
P          0.0   0.0594     0.25     P
Co         0.0   0.4468     0.75    Co
Co         0.0   0.5532     0.25    Co
P          0.0   0.9406     0.75     P
O       0.0066   0.3691   0.6319     O
O       0.0066   0.6309   0.1319     O
O       0.0091   0.1215   0.3387     O
O       0.0091   0.8785   0.8387     O
Co      0.0192   0.2575   0.1229    Co
Al      0.0192   0.7425   0.6229    Al
P       0.0254   0.2625   0.8933     P
P       0.0254   0.7375   0.3933     P
O       0.0564   0.1879   0.6162     O
O       0.0564   0.8121   0.1162     O
O       0.0597   0.2634   0.9979     O
O       0.0597   0.7366   0.4979     O
O       0.0832    0.345    0.359     O
O       0.0832    0.655    0.859     O
O       0.0892   0.0027   0.7476     O
O       0.0892   0.9973   0.2476     O
O        0.106   0.2311   0.8302     O
O        0.106   0.7689   0.3302     O
O       0.1185    0.478   0.2412     O
O       0.1185    0.522   0.7412     O
Co      0.1239   0.1419   0.7257    Co
Al      0.1239   0.8581   0.2257    Al
O       0.1262   0.2964   0.1964     O
O       0.1262   0.7036   0.6964     O
P       0.1443   0.3709    0.275     P
P       0.1443   0.6291    0.775     P
O       0.2451   0.3656   0.3073     O
O       0.2451   0.6344   0.8073     O
O       0.2549   0.1344   0.6927     O
O       0.2549   0.8656   0.1927     O
P       0.3557   0.1291    0.725     P
P       0.3557   0.8709    0.225     P
O       0.3738   0.2036   0.8036     O
O       0.3738   0.7964   0.3036     O
Al      0.3761   0.3581   0.2743    Al
Co      0.3761   0.6419   0.7743    Co
O       0.3815    0.022   0.7588     O
O       0.3815    0.978   0.2588     O
O        0.394   0.2689   0.1698     O
O        0.394   0.7311   0.6698     O
O       0.4108   0.4973   0.2524     O
O       0.4108   0.5027   0.7524     O
O       0.4168    0.155    0.641     O
O       0.4168    0.845    0.141     O
O       0.4403   0.2366   0.0021     O
O       0.4403   0.7634   0.5021     O
O       0.4436   0.3121   0.3838     O
O       0.4436   0.6879   0.8838     O
P       0.4746   0.2375   0.1067     P
P       0.4746   0.7625   0.6067     P
Al      0.4808   0.2425   0.8771    Al
Co      0.4808   0.7575   0.3771    Co
O       0.4909   0.3785   0.6613     O
O       0.4909   0.6215   0.1613     O
O       0.4934   0.1309   0.3681     O
O       0.4934   0.8691   0.8681     O
Co         0.5   0.0532     0.25    Co
P          0.5   0.4406     0.75     P
P          0.5   0.5594     0.25     P
Co         0.5   0.9468     0.75    Co
O       0.5066   0.1309   0.1319     O
O       0.5066   0.8691   0.6319     O
O       0.5091   0.3785   0.8387     O
O       0.5091   0.6215   0.3387     O
Al      0.5192   0.2425   0.6229    Al
Co      0.5192   0.7575   0.1229    Co
P       0.5254   0.2375   0.3933     P
P       0.5254   0.7625   0.8933     P
O       0.5564   0.3121   0.1162     O
O       0.5564   0.6879   0.6162     O
O       0.5597   0.2366   0.4979     O
O       0.5597   0.7634   0.9979     O
O       0.5832    0.155    0.859     O
O       0.5832    0.845    0.359     O
O       0.5892   0.4973   0.2476     O
O       0.5892   0.5027   0.7476     O
O        0.606   0.2689   0.3302     O
O        0.606   0.7311   0.8302     O
O       0.6185    0.022   0.7412     O
O       0.6185    0.978   0.2412     O
Al      0.6239   0.3581   0.2257    Al
Co      0.6239   0.6419   0.7257    Co
O       0.6262   0.2036   0.6964     O
O       0.6262   0.7964   0.1964     O
P       0.6443   0.1291    0.775     P
P       0.6443   0.8709    0.275     P
O       0.7451   0.1344   0.8073     O
O       0.7451   0.8656   0.3073     O
O       0.7549   0.3656   0.1927     O
O       0.7549   0.6344   0.6927     O
P       0.8557   0.3709    0.225     P
P       0.8557   0.6291    0.725     P
O       0.8738   0.2964   0.3036     O
O       0.8738   0.7036   0.8036     O
Co      0.8761   0.1419   0.7743    Co
Al      0.8761   0.8581   0.2743    Al
O       0.8815    0.478   0.2588     O
O       0.8815    0.522   0.7588     O
O        0.894   0.2311   0.6698     O
O        0.894   0.7689   0.1698     O
O       0.9108   0.0027   0.7524     O
O       0.9108   0.9973   0.2524     O
O       0.9168    0.345    0.141     O
O       0.9168    0.655    0.641     O
O       0.9403   0.2634   0.5021     O
O       0.9403   0.7366   0.0021     O
O       0.9436   0.1879   0.8838     O
O       0.9436   0.8121   0.3838     O
P       0.9746   0.2625   0.6067     P
P       0.9746   0.7375   0.1067     P
Co      0.9808   0.2575   0.3771    Co
Al      0.9808   0.7425   0.8771    Al
O       0.9909   0.1215   0.1613     O
O       0.9909   0.8785   0.6613     O
O       0.9934   0.3691   0.8681     O
O       0.9934   0.6309   0.3681     O
