data_I
_chemical_name_common  '/home/zhangsd/repos/MofS-CGCNN/ML/data/SSD/clean_cifs/BEFMUW_clean'
_cell_length_a 13.82010
_cell_length_b 13.18700
_cell_length_c 13.85270
_cell_angle_alpha 90.00000
_cell_angle_beta  90.80400
_cell_angle_gamma 90.00000
_space_group_name_H-M_alt      'P 1'


loop_
_space_group_symop_operation_xyz
  'x, y, z' 

loop_
_atom_site_label
_atom_site_fract_x
_atom_site_fract_y
_atom_site_fract_z
_atom_site_type_symbol
P          0.0   0.0594     0.25     P
Co         0.0   0.4422     0.75    Co
Co         0.0   0.5578     0.25    Co
P          0.0   0.9406     0.75     P
O       0.0016   0.1243   0.1587     O
O       0.0016   0.8757   0.6587     O
O       0.0089   0.3659   0.6304     O
O       0.0089   0.6341   0.1304     O
Co       0.025   0.2594   0.1236    Co
Al       0.025   0.7406   0.6236    Al
P       0.0292   0.2607   0.8946     P
P       0.0292   0.7393   0.3946     P
O       0.0514   0.1831    0.615     O
O       0.0514   0.8169    0.115     O
O       0.0689   0.2603   0.9983     O
O       0.0689   0.7397   0.4983     O
O         0.08   0.3454   0.3635     O
O         0.08   0.6546   0.8635     O
O       0.0896   0.0048   0.7571     O
O       0.0896   0.9952   0.2571     O
O       0.1132    0.235   0.8284     O
O       0.1132    0.765   0.3284     O
O       0.1204   0.4821    0.248     O
O       0.1204   0.5179    0.748     O
Co      0.1239    0.141   0.7254    Co
Al      0.1239    0.859   0.2254    Al
O       0.1332   0.2997   0.1984     O
O       0.1332   0.7003   0.6984     O
P       0.1447   0.3749   0.2806     P
P       0.1447   0.6251   0.7806     P
O       0.2479   0.3728   0.3189     O
O       0.2479   0.6272   0.8189     O
O       0.2521   0.1272   0.6811     O
O       0.2521   0.8728   0.1811     O
P       0.3553   0.1251   0.7194     P
P       0.3553   0.8749   0.2194     P
O       0.3668   0.2003   0.8016     O
O       0.3668   0.7997   0.3016     O
Al      0.3761    0.359   0.2746    Al
Co      0.3761    0.641   0.7746    Co
O       0.3796   0.0179    0.752     O
O       0.3796   0.9821    0.252     O
O       0.3868    0.265   0.1716     O
O       0.3868    0.735   0.6716     O
O       0.4104   0.4952   0.2429     O
O       0.4104   0.5048   0.7429     O
O         0.42   0.1546   0.6365     O
O         0.42   0.8454   0.1365     O
O       0.4311   0.2397   0.0017     O
O       0.4311   0.7603   0.5017     O
O       0.4486   0.3169    0.385     O
O       0.4486   0.6831    0.885     O
P       0.4708   0.2393   0.1054     P
P       0.4708   0.7607   0.6054     P
Al       0.475   0.2406   0.8764    Al
Co       0.475   0.7594   0.3764    Co
O       0.4911   0.1341   0.3696     O
O       0.4911   0.8659   0.8696     O
O       0.4984   0.3757   0.8413     O
O       0.4984   0.6243   0.3413     O
Co         0.5   0.0578     0.25    Co
P          0.5   0.4406     0.75     P
P          0.5   0.5594     0.25     P
Co         0.5   0.9422     0.75    Co
O       0.5016   0.3757   0.6587     O
O       0.5016   0.6243   0.1587     O
O       0.5089   0.1341   0.1304     O
O       0.5089   0.8659   0.6304     O
Al       0.525   0.2406   0.6236    Al
Co       0.525   0.7594   0.1236    Co
P       0.5292   0.2393   0.3946     P
P       0.5292   0.7607   0.8946     P
O       0.5514   0.3169    0.115     O
O       0.5514   0.6831    0.615     O
O       0.5689   0.2397   0.4983     O
O       0.5689   0.7603   0.9983     O
O         0.58   0.1546   0.8635     O
O         0.58   0.8454   0.3635     O
O       0.5896   0.4952   0.2571     O
O       0.5896   0.5048   0.7571     O
O       0.6132    0.265   0.3284     O
O       0.6132    0.735   0.8284     O
O       0.6204   0.0179    0.748     O
O       0.6204   0.9821    0.248     O
Al      0.6239    0.359   0.2254    Al
Co      0.6239    0.641   0.7254    Co
O       0.6332   0.2003   0.6984     O
O       0.6332   0.7997   0.1984     O
P       0.6447   0.1251   0.7806     P
P       0.6447   0.8749   0.2806     P
O       0.7479   0.1272   0.8189     O
O       0.7479   0.8728   0.3189     O
O       0.7521   0.3728   0.1811     O
O       0.7521   0.6272   0.6811     O
P       0.8553   0.3749   0.2194     P
P       0.8553   0.6251   0.7194     P
O       0.8668   0.2997   0.3016     O
O       0.8668   0.7003   0.8016     O
Co      0.8761    0.141   0.7746    Co
Al      0.8761    0.859   0.2746    Al
O       0.8796   0.4821    0.252     O
O       0.8796   0.5179    0.752     O
O       0.8868    0.235   0.6716     O
O       0.8868    0.765   0.1716     O
O       0.9104   0.0048   0.7429     O
O       0.9104   0.9952   0.2429     O
O         0.92   0.3454   0.1365     O
O         0.92   0.6546   0.6365     O
O       0.9311   0.2603   0.5017     O
O       0.9311   0.7397   0.0017     O
O       0.9486   0.1831    0.885     O
O       0.9486   0.8169    0.385     O
P       0.9708   0.2607   0.6054     P
P       0.9708   0.7393   0.1054     P
Co       0.975   0.2594   0.3764    Co
Al       0.975   0.7406   0.8764    Al
O       0.9911   0.3659   0.8696     O
O       0.9911   0.6341   0.3696     O
O       0.9984   0.1243   0.3413     O
O       0.9984   0.8757   0.8413     O
