data_I
_chemical_name_common  '/home/zhangsd/repos/MofS-CGCNN/ML/data/SSD/clean_cifs/BEFNAD_clean'
_cell_length_a 13.80780
_cell_length_b 13.24900
_cell_length_c 13.84200
_cell_angle_alpha 90.00000
_cell_angle_beta  91.32800
_cell_angle_gamma 90.00000
_space_group_name_H-M_alt      'P 1'


loop_
_space_group_symop_operation_xyz
  'x, y, z' 

loop_
_atom_site_label
_atom_site_fract_x
_atom_site_fract_y
_atom_site_fract_z
_atom_site_type_symbol
P          0.0   0.0621     0.25     P
Co         0.0   0.4412     0.75    Co
Co         0.0   0.5588     0.25    Co
P          0.0   0.9379     0.75     P
O        0.003   0.1269   0.3418     O
O        0.003   0.8731   0.8418     O
O       0.0081   0.3659    0.633     O
O       0.0081   0.6341    0.133     O
Co      0.0264   0.2609   0.1228    Co
Co      0.0264   0.7391   0.6228    Co
P       0.0318   0.2609    0.894     P
P       0.0318   0.7391    0.394     P
O       0.0477   0.1824    0.612     O
O       0.0477   0.8176    0.112     O
O       0.0743   0.2641   0.9972     O
O       0.0743   0.7359   0.4972     O
O        0.079     0.35   0.3662     O
O        0.079     0.65   0.8662     O
O       0.0901   0.0013   0.7556     O
O       0.0901   0.9987   0.2556     O
O       0.1159    0.236   0.8274     O
O       0.1159    0.764   0.3274     O
O       0.1181   0.4829    0.249     O
O       0.1181   0.5171    0.749     O
Co      0.1233   0.1393   0.7243    Co
Ga      0.1233   0.8607   0.2243    Ga
O       0.1335   0.3003    0.203     O
O       0.1335   0.6997    0.703     O
P       0.1442   0.3773   0.2841     P
P       0.1442   0.6227   0.7841     P
O       0.2479   0.3781   0.3234     O
O       0.2479   0.6219   0.8234     O
O       0.2521   0.1219   0.6766     O
O       0.2521   0.8781   0.1766     O
P       0.3558   0.1227   0.7159     P
P       0.3558   0.8773   0.2159     P
O       0.3665   0.1997    0.797     O
O       0.3665   0.8003    0.297     O
Ga      0.3767   0.3607   0.2757    Ga
Co      0.3767   0.6393   0.7757    Co
O       0.3819   0.0171    0.751     O
O       0.3819   0.9829    0.251     O
O       0.3841    0.264   0.1726     O
O       0.3841    0.736   0.6726     O
O       0.4099   0.4987   0.2444     O
O       0.4099   0.5013   0.7444     O
O        0.421     0.15   0.6338     O
O        0.421     0.85   0.1338     O
O       0.4257   0.2359   0.0028     O
O       0.4257   0.7641   0.5028     O
O       0.4523   0.3176    0.388     O
O       0.4523   0.6824    0.888     O
P       0.4682   0.2391    0.106     P
P       0.4682   0.7609    0.606     P
Co      0.4736   0.2391   0.8772    Co
Co      0.4736   0.7609   0.3772    Co
O       0.4919   0.1341    0.367     O
O       0.4919   0.8659    0.867     O
O        0.497   0.3731   0.6582     O
O        0.497   0.6269   0.1582     O
Co         0.5   0.0588     0.25    Co
P          0.5   0.4379     0.75     P
P          0.5   0.5621     0.25     P
Co         0.5   0.9412     0.75    Co
O        0.503   0.3731   0.8418     O
O        0.503   0.6269   0.3418     O
O       0.5081   0.1341    0.133     O
O       0.5081   0.8659    0.633     O
Co      0.5264   0.2391   0.6228    Co
Co      0.5264   0.7609   0.1228    Co
P       0.5318   0.2391    0.394     P
P       0.5318   0.7609    0.894     P
O       0.5477   0.3176    0.112     O
O       0.5477   0.6824    0.612     O
O       0.5743   0.2359   0.4972     O
O       0.5743   0.7641   0.9972     O
O        0.579     0.15   0.8662     O
O        0.579     0.85   0.3662     O
O       0.5901   0.4987   0.2556     O
O       0.5901   0.5013   0.7556     O
O       0.6159    0.264   0.3274     O
O       0.6159    0.736   0.8274     O
O       0.6181   0.0171    0.749     O
O       0.6181   0.9829    0.249     O
Ga      0.6233   0.3607   0.2243    Ga
Co      0.6233   0.6393   0.7243    Co
O       0.6335   0.1997    0.703     O
O       0.6335   0.8003    0.203     O
P       0.6442   0.1227   0.7841     P
P       0.6442   0.8773   0.2841     P
O       0.7479   0.1219   0.8234     O
O       0.7479   0.8781   0.3234     O
O       0.7521   0.3781   0.1766     O
O       0.7521   0.6219   0.6766     O
P       0.8558   0.3773   0.2159     P
P       0.8558   0.6227   0.7159     P
O       0.8665   0.3003    0.297     O
O       0.8665   0.6997    0.797     O
Co      0.8767   0.1393   0.7757    Co
Ga      0.8767   0.8607   0.2757    Ga
O       0.8819   0.4829    0.251     O
O       0.8819   0.5171    0.751     O
O       0.8841    0.236   0.6726     O
O       0.8841    0.764   0.1726     O
O       0.9099   0.0013   0.7444     O
O       0.9099   0.9987   0.2444     O
O        0.921     0.35   0.1338     O
O        0.921     0.65   0.6338     O
O       0.9257   0.2641   0.5028     O
O       0.9257   0.7359   0.0028     O
O       0.9523   0.1824    0.888     O
O       0.9523   0.8176    0.388     O
P       0.9682   0.2609    0.606     P
P       0.9682   0.7391    0.106     P
Co      0.9736   0.2609   0.3772    Co
Co      0.9736   0.7391   0.8772    Co
O       0.9919   0.3659    0.867     O
O       0.9919   0.6341    0.367     O
O        0.997   0.1269   0.1582     O
O        0.997   0.8731   0.6582     O
