data_I
_chemical_name_common  '/home/zhangsd/repos/MofS-CGCNN/ML/data/SSD/clean_cifs/BETGOY_clean'
_cell_length_a 18.50150
_cell_length_b 18.50150
_cell_length_c 18.50150
_cell_angle_alpha 90.00000
_cell_angle_beta  90.00000
_cell_angle_gamma 90.00000
_space_group_name_H-M_alt      'P 1'


loop_
_space_group_symop_operation_xyz
  'x, y, z' 

loop_
_atom_site_label
_atom_site_fract_x
_atom_site_fract_y
_atom_site_fract_z
_atom_site_type_symbol
Cl         0.0   0.2403      0.5    Cl
Co         0.0  0.36674      0.5    Co
Cl         0.0      0.5   0.2403    Cl
Co         0.0      0.5  0.36674    Co
Cl         0.0      0.5      0.5    Cl
Co         0.0      0.5  0.63326    Co
Cl         0.0      0.5   0.7597    Cl
Co         0.0  0.63326      0.5    Co
Cl         0.0   0.7597      0.5    Cl
N        0.075   0.3713   0.4215     N
N        0.075   0.3713   0.5785     N
N        0.075   0.4215   0.3713     N
N        0.075   0.4215   0.6287     N
N        0.075   0.5785   0.3713     N
N        0.075   0.5785   0.6287     N
N        0.075   0.6287   0.4215     N
N        0.075   0.6287   0.5785     N
N       0.1292   0.3258   0.4103     N
N       0.1292   0.3258   0.5897     N
N       0.1292   0.4103   0.3258     N
N       0.1292   0.4103   0.6742     N
N       0.1292   0.5897   0.3258     N
N       0.1292   0.5897   0.6742     N
N       0.1292   0.6742   0.4103     N
N       0.1292   0.6742   0.5897     N
Co      0.1484   0.2681      0.5    Co
Co      0.1484      0.5   0.2681    Co
Co      0.1484      0.5   0.7319    Co
Co      0.1484   0.7319      0.5    Co
C       0.1618   0.3507   0.3507     C
C       0.1618   0.3507   0.6493     C
C       0.1618   0.6493   0.3507     C
C       0.1618   0.6493   0.6493     C
C       0.2257   0.3169   0.3169     C
C       0.2257   0.3169   0.6831     C
C       0.2257   0.6831   0.3169     C
C       0.2257   0.6831   0.6831     C
H       0.2384   0.2384   0.3901     H
H       0.2384   0.2384   0.6099     H
H       0.2384   0.3901   0.2384     H
H       0.2384   0.3901   0.7616     H
H       0.2384   0.6099   0.2384     H
H       0.2384   0.6099   0.7616     H
H       0.2384   0.7616   0.3901     H
H       0.2384   0.7616   0.6099     H
Cl      0.2403      0.0      0.5    Cl
Cl      0.2403      0.5      0.0    Cl
C       0.2575   0.2575   0.3477     C
C       0.2575   0.2575   0.6523     C
C       0.2575   0.3477   0.2575     C
C       0.2575   0.3477   0.7425     C
C       0.2575   0.6523   0.2575     C
C       0.2575   0.6523   0.7425     C
C       0.2575   0.7425   0.3477     C
C       0.2575   0.7425   0.6523     C
Co      0.2681   0.1484      0.5    Co
Co      0.2681      0.5   0.1484    Co
Co      0.2681      0.5   0.8516    Co
Co      0.2681   0.8516      0.5    Co
C       0.3169   0.2257   0.3169     C
C       0.3169   0.2257   0.6831     C
C       0.3169   0.3169   0.2257     C
C       0.3169   0.3169   0.7743     C
C       0.3169   0.6831   0.2257     C
C       0.3169   0.6831   0.7743     C
C       0.3169   0.7743   0.3169     C
C       0.3169   0.7743   0.6831     C
N       0.3258   0.1292   0.4103     N
N       0.3258   0.1292   0.5897     N
N       0.3258   0.4103   0.1292     N
N       0.3258   0.4103   0.8708     N
N       0.3258   0.5897   0.1292     N
N       0.3258   0.5897   0.8708     N
N       0.3258   0.8708   0.4103     N
N       0.3258   0.8708   0.5897     N
C       0.3477   0.2575   0.2575     C
C       0.3477   0.2575   0.7425     C
C       0.3477   0.7425   0.2575     C
C       0.3477   0.7425   0.7425     C
C       0.3507   0.1618   0.3507     C
C       0.3507   0.1618   0.6493     C
C       0.3507   0.3507   0.1618     C
C       0.3507   0.3507   0.8382     C
C       0.3507   0.6493   0.1618     C
C       0.3507   0.6493   0.8382     C
C       0.3507   0.8382   0.3507     C
C       0.3507   0.8382   0.6493     C
Co     0.36674      0.0      0.5    Co
Co     0.36674      0.5      0.0    Co
N       0.3713    0.075   0.4215     N
N       0.3713    0.075   0.5785     N
N       0.3713   0.4215    0.075     N
N       0.3713   0.4215    0.925     N
N       0.3713   0.5785    0.075     N
N       0.3713   0.5785    0.925     N
N       0.3713    0.925   0.4215     N
N       0.3713    0.925   0.5785     N
H       0.3901   0.2384   0.2384     H
H       0.3901   0.2384   0.7616     H
H       0.3901   0.7616   0.2384     H
H       0.3901   0.7616   0.7616     H
N       0.4103   0.1292   0.3258     N
N       0.4103   0.1292   0.6742     N
N       0.4103   0.3258   0.1292     N
N       0.4103   0.3258   0.8708     N
N       0.4103   0.6742   0.1292     N
N       0.4103   0.6742   0.8708     N
N       0.4103   0.8708   0.3258     N
N       0.4103   0.8708   0.6742     N
N       0.4215    0.075   0.3713     N
N       0.4215    0.075   0.6287     N
N       0.4215   0.3713    0.075     N
N       0.4215   0.3713    0.925     N
N       0.4215   0.6287    0.075     N
N       0.4215   0.6287    0.925     N
N       0.4215    0.925   0.3713     N
N       0.4215    0.925   0.6287     N
Cl         0.5      0.0   0.2403    Cl
Co         0.5      0.0  0.36674    Co
Cl         0.5      0.0      0.5    Cl
Co         0.5      0.0  0.63326    Co
Cl         0.5      0.0   0.7597    Cl
Co         0.5   0.1484   0.2681    Co
Co         0.5   0.1484   0.7319    Co
Cl         0.5   0.2403      0.0    Cl
Co         0.5   0.2681   0.1484    Co
Co         0.5   0.2681   0.8516    Co
Co         0.5  0.36674      0.0    Co
Cl         0.5      0.5      0.0    Cl
Co         0.5  0.63326      0.0    Co
Co         0.5   0.7319   0.1484    Co
Co         0.5   0.7319   0.8516    Co
Cl         0.5   0.7597      0.0    Cl
Co         0.5   0.8516   0.2681    Co
Co         0.5   0.8516   0.7319    Co
N       0.5785    0.075   0.3713     N
N       0.5785    0.075   0.6287     N
N       0.5785   0.3713    0.075     N
N       0.5785   0.3713    0.925     N
N       0.5785   0.6287    0.075     N
N       0.5785   0.6287    0.925     N
N       0.5785    0.925   0.3713     N
N       0.5785    0.925   0.6287     N
N       0.5897   0.1292   0.3258     N
N       0.5897   0.1292   0.6742     N
N       0.5897   0.3258   0.1292     N
N       0.5897   0.3258   0.8708     N
N       0.5897   0.6742   0.1292     N
N       0.5897   0.6742   0.8708     N
N       0.5897   0.8708   0.3258     N
N       0.5897   0.8708   0.6742     N
H       0.6099   0.2384   0.2384     H
H       0.6099   0.2384   0.7616     H
H       0.6099   0.7616   0.2384     H
H       0.6099   0.7616   0.7616     H
N       0.6287    0.075   0.4215     N
N       0.6287    0.075   0.5785     N
N       0.6287   0.4215    0.075     N
N       0.6287   0.4215    0.925     N
N       0.6287   0.5785    0.075     N
N       0.6287   0.5785    0.925     N
N       0.6287    0.925   0.4215     N
N       0.6287    0.925   0.5785     N
Co     0.63326      0.0      0.5    Co
Co     0.63326      0.5      0.0    Co
C       0.6493   0.1618   0.3507     C
C       0.6493   0.1618   0.6493     C
C       0.6493   0.3507   0.1618     C
C       0.6493   0.3507   0.8382     C
C       0.6493   0.6493   0.1618     C
C       0.6493   0.6493   0.8382     C
C       0.6493   0.8382   0.3507     C
C       0.6493   0.8382   0.6493     C
C       0.6523   0.2575   0.2575     C
C       0.6523   0.2575   0.7425     C
C       0.6523   0.7425   0.2575     C
C       0.6523   0.7425   0.7425     C
N       0.6742   0.1292   0.4103     N
N       0.6742   0.1292   0.5897     N
N       0.6742   0.4103   0.1292     N
N       0.6742   0.4103   0.8708     N
N       0.6742   0.5897   0.1292     N
N       0.6742   0.5897   0.8708     N
N       0.6742   0.8708   0.4103     N
N       0.6742   0.8708   0.5897     N
C       0.6831   0.2257   0.3169     C
C       0.6831   0.2257   0.6831     C
C       0.6831   0.3169   0.2257     C
C       0.6831   0.3169   0.7743     C
C       0.6831   0.6831   0.2257     C
C       0.6831   0.6831   0.7743     C
C       0.6831   0.7743   0.3169     C
C       0.6831   0.7743   0.6831     C
Co      0.7319   0.1484      0.5    Co
Co      0.7319      0.5   0.1484    Co
Co      0.7319      0.5   0.8516    Co
Co      0.7319   0.8516      0.5    Co
C       0.7425   0.2575   0.3477     C
C       0.7425   0.2575   0.6523     C
C       0.7425   0.3477   0.2575     C
C       0.7425   0.3477   0.7425     C
C       0.7425   0.6523   0.2575     C
C       0.7425   0.6523   0.7425     C
C       0.7425   0.7425   0.3477     C
C       0.7425   0.7425   0.6523     C
Cl      0.7597      0.0      0.5    Cl
Cl      0.7597      0.5      0.0    Cl
H       0.7616   0.2384   0.3901     H
H       0.7616   0.2384   0.6099     H
H       0.7616   0.3901   0.2384     H
H       0.7616   0.3901   0.7616     H
H       0.7616   0.6099   0.2384     H
H       0.7616   0.6099   0.7616     H
H       0.7616   0.7616   0.3901     H
H       0.7616   0.7616   0.6099     H
C       0.7743   0.3169   0.3169     C
C       0.7743   0.3169   0.6831     C
C       0.7743   0.6831   0.3169     C
C       0.7743   0.6831   0.6831     C
C       0.8382   0.3507   0.3507     C
C       0.8382   0.3507   0.6493     C
C       0.8382   0.6493   0.3507     C
C       0.8382   0.6493   0.6493     C
Co      0.8516   0.2681      0.5    Co
Co      0.8516      0.5   0.2681    Co
Co      0.8516      0.5   0.7319    Co
Co      0.8516   0.7319      0.5    Co
N       0.8708   0.3258   0.4103     N
N       0.8708   0.3258   0.5897     N
N       0.8708   0.4103   0.3258     N
N       0.8708   0.4103   0.6742     N
N       0.8708   0.5897   0.3258     N
N       0.8708   0.5897   0.6742     N
N       0.8708   0.6742   0.4103     N
N       0.8708   0.6742   0.5897     N
N        0.925   0.3713   0.4215     N
N        0.925   0.3713   0.5785     N
N        0.925   0.4215   0.3713     N
N        0.925   0.4215   0.6287     N
N        0.925   0.5785   0.3713     N
N        0.925   0.5785   0.6287     N
N        0.925   0.6287   0.4215     N
N        0.925   0.6287   0.5785     N
