data_I
_chemical_name_common  '/home/zhangsd/repos/MofS-CGCNN/ML/data/SSD/clean_cifs/BETGUE_clean'
_cell_length_a 18.79760
_cell_length_b 18.79760
_cell_length_c 18.79760
_cell_angle_alpha 90.00000
_cell_angle_beta  90.00000
_cell_angle_gamma 90.00000
_space_group_name_H-M_alt      'P 1'


loop_
_space_group_symop_operation_xyz
  'x, y, z' 

loop_
_atom_site_label
_atom_site_fract_x
_atom_site_fract_y
_atom_site_fract_z
_atom_site_type_symbol
Co         0.0  0.36196      0.5    Co
Co         0.0      0.5  0.36196    Co
Co         0.0      0.5  0.63804    Co
Co         0.0  0.63804      0.5    Co
N      0.07772  0.36965  0.41876     N
N      0.07772  0.36965  0.58124     N
N      0.07772  0.41876  0.36965     N
N      0.07772  0.41876  0.63035     N
N      0.07772  0.58124  0.36965     N
N      0.07772  0.58124  0.63035     N
N      0.07772  0.63035  0.41876     N
N      0.07772  0.63035  0.58124     N
N      0.13205  0.32502  0.40828     N
N      0.13205  0.32502  0.59172     N
N      0.13205  0.40828  0.32502     N
N      0.13205  0.40828  0.67498     N
N      0.13205  0.59172  0.32502     N
N      0.13205  0.59172  0.67498     N
N      0.13205  0.67498  0.40828     N
N      0.13205  0.67498  0.59172     N
C       0.1641  0.35006  0.35006     C
C       0.1641  0.35006  0.64994     C
C       0.1641  0.64994  0.35006     C
C       0.1641  0.64994  0.64994     C
C       0.2273  0.31818  0.31818     C
C       0.2273  0.31818  0.68182     C
C       0.2273  0.68182  0.31818     C
C       0.2273  0.68182  0.68182     C
H       0.2368   0.2368   0.3877     H
H       0.2368   0.2368   0.6123     H
H       0.2368   0.3877   0.2368     H
H       0.2368   0.3877   0.7632     H
H       0.2368   0.6123   0.2368     H
H       0.2368   0.6123   0.7632     H
H       0.2368   0.7632   0.3877     H
H       0.2368   0.7632   0.6123     H
C      0.25746  0.25746   0.3477     C
C      0.25746  0.25746   0.6523     C
C      0.25746   0.3477  0.25746     C
C      0.25746   0.3477  0.74254     C
C      0.25746   0.6523  0.25746     C
C      0.25746   0.6523  0.74254     C
C      0.25746  0.74254   0.3477     C
C      0.25746  0.74254   0.6523     C
C      0.31818   0.2273  0.31818     C
C      0.31818   0.2273  0.68182     C
C      0.31818  0.31818   0.2273     C
C      0.31818  0.31818   0.7727     C
C      0.31818  0.68182   0.2273     C
C      0.31818  0.68182   0.7727     C
C      0.31818   0.7727  0.31818     C
C      0.31818   0.7727  0.68182     C
N      0.32502  0.13205  0.40828     N
N      0.32502  0.13205  0.59172     N
N      0.32502  0.40828  0.13205     N
N      0.32502  0.40828  0.86795     N
N      0.32502  0.59172  0.13205     N
N      0.32502  0.59172  0.86795     N
N      0.32502  0.86795  0.40828     N
N      0.32502  0.86795  0.59172     N
C       0.3477  0.25746  0.25746     C
C       0.3477  0.25746  0.74254     C
C       0.3477  0.74254  0.25746     C
C       0.3477  0.74254  0.74254     C
C      0.35006   0.1641  0.35006     C
C      0.35006   0.1641  0.64994     C
C      0.35006  0.35006   0.1641     C
C      0.35006  0.35006   0.8359     C
C      0.35006  0.64994   0.1641     C
C      0.35006  0.64994   0.8359     C
C      0.35006   0.8359  0.35006     C
C      0.35006   0.8359  0.64994     C
Co     0.36196      0.0      0.5    Co
Co     0.36196      0.5      0.0    Co
N      0.36965  0.07772  0.41876     N
N      0.36965  0.07772  0.58124     N
N      0.36965  0.41876  0.07772     N
N      0.36965  0.41876  0.92228     N
N      0.36965  0.58124  0.07772     N
N      0.36965  0.58124  0.92228     N
N      0.36965  0.92228  0.41876     N
N      0.36965  0.92228  0.58124     N
H       0.3877   0.2368   0.2368     H
H       0.3877   0.2368   0.7632     H
H       0.3877   0.7632   0.2368     H
H       0.3877   0.7632   0.7632     H
N      0.40828  0.13205  0.32502     N
N      0.40828  0.13205  0.67498     N
N      0.40828  0.32502  0.13205     N
N      0.40828  0.32502  0.86795     N
N      0.40828  0.67498  0.13205     N
N      0.40828  0.67498  0.86795     N
N      0.40828  0.86795  0.32502     N
N      0.40828  0.86795  0.67498     N
N      0.41876  0.07772  0.36965     N
N      0.41876  0.07772  0.63035     N
N      0.41876  0.36965  0.07772     N
N      0.41876  0.36965  0.92228     N
N      0.41876  0.63035  0.07772     N
N      0.41876  0.63035  0.92228     N
N      0.41876  0.92228  0.36965     N
N      0.41876  0.92228  0.63035     N
Co         0.5      0.0  0.36196    Co
Co         0.5      0.0  0.63804    Co
Co         0.5  0.36196      0.0    Co
Co         0.5  0.63804      0.0    Co
N      0.58124  0.07772  0.36965     N
N      0.58124  0.07772  0.63035     N
N      0.58124  0.36965  0.07772     N
N      0.58124  0.36965  0.92228     N
N      0.58124  0.63035  0.07772     N
N      0.58124  0.63035  0.92228     N
N      0.58124  0.92228  0.36965     N
N      0.58124  0.92228  0.63035     N
N      0.59172  0.13205  0.32502     N
N      0.59172  0.13205  0.67498     N
N      0.59172  0.32502  0.13205     N
N      0.59172  0.32502  0.86795     N
N      0.59172  0.67498  0.13205     N
N      0.59172  0.67498  0.86795     N
N      0.59172  0.86795  0.32502     N
N      0.59172  0.86795  0.67498     N
H       0.6123   0.2368   0.2368     H
H       0.6123   0.2368   0.7632     H
H       0.6123   0.7632   0.2368     H
H       0.6123   0.7632   0.7632     H
N      0.63035  0.07772  0.41876     N
N      0.63035  0.07772  0.58124     N
N      0.63035  0.41876  0.07772     N
N      0.63035  0.41876  0.92228     N
N      0.63035  0.58124  0.07772     N
N      0.63035  0.58124  0.92228     N
N      0.63035  0.92228  0.41876     N
N      0.63035  0.92228  0.58124     N
Co     0.63804      0.0      0.5    Co
Co     0.63804      0.5      0.0    Co
C      0.64994   0.1641  0.35006     C
C      0.64994   0.1641  0.64994     C
C      0.64994  0.35006   0.1641     C
C      0.64994  0.35006   0.8359     C
C      0.64994  0.64994   0.1641     C
C      0.64994  0.64994   0.8359     C
C      0.64994   0.8359  0.35006     C
C      0.64994   0.8359  0.64994     C
C       0.6523  0.25746  0.25746     C
C       0.6523  0.25746  0.74254     C
C       0.6523  0.74254  0.25746     C
C       0.6523  0.74254  0.74254     C
N      0.67498  0.13205  0.40828     N
N      0.67498  0.13205  0.59172     N
N      0.67498  0.40828  0.13205     N
N      0.67498  0.40828  0.86795     N
N      0.67498  0.59172  0.13205     N
N      0.67498  0.59172  0.86795     N
N      0.67498  0.86795  0.40828     N
N      0.67498  0.86795  0.59172     N
C      0.68182   0.2273  0.31818     C
C      0.68182   0.2273  0.68182     C
C      0.68182  0.31818   0.2273     C
C      0.68182  0.31818   0.7727     C
C      0.68182  0.68182   0.2273     C
C      0.68182  0.68182   0.7727     C
C      0.68182   0.7727  0.31818     C
C      0.68182   0.7727  0.68182     C
C      0.74254  0.25746   0.3477     C
C      0.74254  0.25746   0.6523     C
C      0.74254   0.3477  0.25746     C
C      0.74254   0.3477  0.74254     C
C      0.74254   0.6523  0.25746     C
C      0.74254   0.6523  0.74254     C
C      0.74254  0.74254   0.3477     C
C      0.74254  0.74254   0.6523     C
H       0.7632   0.2368   0.3877     H
H       0.7632   0.2368   0.6123     H
H       0.7632   0.3877   0.2368     H
H       0.7632   0.3877   0.7632     H
H       0.7632   0.6123   0.2368     H
H       0.7632   0.6123   0.7632     H
H       0.7632   0.7632   0.3877     H
H       0.7632   0.7632   0.6123     H
C       0.7727  0.31818  0.31818     C
C       0.7727  0.31818  0.68182     C
C       0.7727  0.68182  0.31818     C
C       0.7727  0.68182  0.68182     C
C       0.8359  0.35006  0.35006     C
C       0.8359  0.35006  0.64994     C
C       0.8359  0.64994  0.35006     C
C       0.8359  0.64994  0.64994     C
N      0.86795  0.32502  0.40828     N
N      0.86795  0.32502  0.59172     N
N      0.86795  0.40828  0.32502     N
N      0.86795  0.40828  0.67498     N
N      0.86795  0.59172  0.32502     N
N      0.86795  0.59172  0.67498     N
N      0.86795  0.67498  0.40828     N
N      0.86795  0.67498  0.59172     N
N      0.92228  0.36965  0.41876     N
N      0.92228  0.36965  0.58124     N
N      0.92228  0.41876  0.36965     N
N      0.92228  0.41876  0.63035     N
N      0.92228  0.58124  0.36965     N
N      0.92228  0.58124  0.63035     N
N      0.92228  0.63035  0.41876     N
N      0.92228  0.63035  0.58124     N
