data_I
_chemical_name_common  '/home/zhangsd/repos/MofS-CGCNN/ML/data/SSD/clean_cifs/BEXSAA_clean'
_cell_length_a 12.55280
_cell_length_b 12.66300
_cell_length_c 18.18900
_cell_angle_alpha 90.00000
_cell_angle_beta  90.00000
_cell_angle_gamma 113.38800
_space_group_name_H-M_alt      'P 1'


loop_
_space_group_symop_operation_xyz
  'x, y, z' 

loop_
_atom_site_label
_atom_site_fract_x
_atom_site_fract_y
_atom_site_fract_z
_atom_site_type_symbol
Mn         0.0      0.5      0.5    Mn
H       0.0159   0.5789   0.7177     H
C       0.0173   0.3915  0.78697     C
O      0.01997  0.24592  0.32849     O
H       0.0251   0.6916    0.203     H
C       0.0457   0.4482  0.24758     C
H       0.0501    0.401   0.7367     H
C       0.0624   0.5462  0.20556     C
H       0.0957    0.723   0.3961     H
C       0.1025   0.2834  0.28273     C
O      0.10894   0.4433  0.84085     O
C       0.1188   0.3903  0.23879     C
O        0.121  0.49435  0.58164     O
H       0.1255   0.2588   0.7766     H
N      0.14752   0.5977  0.41873     N
C       0.1519    0.693   0.3841     C
C       0.1539   0.5861  0.15565     C
O       0.1654  0.34542  0.55075     O
H       0.1668   0.6536   0.1278     H
O       0.1715   0.9015  0.31641     O
O       0.1734  0.23863  0.27077     O
Mn     0.17734   0.0729  0.29091    Mn
C       0.1783   0.4337  0.58884     C
C       0.1822   0.2944  0.81337     C
C       0.1847   0.3915  0.85029     C
O        0.191   0.1039  0.74164     O
C        0.209   0.4307  0.18832     C
H       0.2258   0.4898   0.4274     H
C       0.2269    0.528   0.1461     C
C        0.228   0.5566  0.40251     C
C       0.2355   0.7498  0.33131     C
C       0.2386   0.8575  0.29433     C
H       0.2409   0.6086   0.6825     H
H       0.2591   0.3914   0.1825     H
C       0.2614   0.1425  0.79433     C
C       0.2645   0.2502  0.83131     C
C        0.272   0.4434  0.90251     C
C       0.2731    0.472   0.6461     C
H       0.2742   0.5102   0.9274     H
C        0.291   0.5693  0.68832     C
O        0.309   0.8961  0.24164     O
C       0.3153   0.6085  0.35029     C
C       0.3178   0.7056  0.31337     C
C       0.3217   0.5663  0.08884     C
Mn     0.32266   0.9271  0.79091    Mn
O       0.3266  0.76137  0.77077     O
O       0.3285   0.0985  0.81641     O
H       0.3332   0.3464   0.6278     H
O       0.3346  0.65458  0.05075     O
C       0.3461   0.4139  0.65565     C
C       0.3481    0.307   0.8841     C
N      0.35248   0.4023  0.91873     N
H       0.3745   0.7412   0.2766     H
O        0.379  0.50565  0.08164     O
C       0.3812   0.6097  0.73879     C
O      0.39106   0.5567  0.34085     O
C       0.3975   0.7166  0.78273     C
H       0.4043    0.277   0.8961     H
C       0.4376   0.4538  0.70556     C
H       0.4499    0.599   0.2367     H
C       0.4543   0.5518  0.74758     C
H       0.4749   0.3084    0.703     H
O      0.48003  0.75408  0.82849     O
C       0.4827   0.6085  0.28697     C
H       0.4841   0.4211   0.2177     H
Mn         0.5      0.5      0.0    Mn
H       0.5159   0.5789   0.7823     H
C       0.5173   0.3915  0.71303     C
O      0.51997  0.24592  0.17151     O
H       0.5251   0.6916    0.297     H
C       0.5457   0.4482  0.25242     C
H       0.5501    0.401   0.7633     H
C       0.5624   0.5462  0.29444     C
H       0.5957    0.723   0.1039     H
C       0.6025   0.2834  0.21727     C
O      0.60894   0.4433  0.65915     O
C       0.6188   0.3903  0.26121     C
O        0.621  0.49435  0.91836     O
H       0.6255   0.2588   0.7234     H
N      0.64752   0.5977  0.08127     N
C       0.6519    0.693   0.1159     C
C       0.6539   0.5861  0.34435     C
O       0.6654  0.34542  0.94925     O
H       0.6668   0.6536   0.3722     H
O       0.6715   0.9015  0.18359     O
O       0.6734  0.23863  0.22923     O
Mn     0.67734   0.0729  0.20909    Mn
C       0.6783   0.4337  0.91116     C
C       0.6822   0.2944  0.68663     C
C       0.6847   0.3915  0.64971     C
O        0.691   0.1039  0.75836     O
C        0.709   0.4307  0.31168     C
H       0.7258   0.4898   0.0726     H
C       0.7269    0.528   0.3539     C
C        0.728   0.5566  0.09749     C
C       0.7355   0.7498  0.16869     C
C       0.7386   0.8575  0.20567     C
H       0.7409   0.6086   0.8175     H
H       0.7591   0.3914   0.3175     H
C       0.7614   0.1425  0.70567     C
C       0.7645   0.2502  0.66869     C
C        0.772   0.4434  0.59749     C
C       0.7731    0.472   0.8539     C
H       0.7742   0.5102   0.5726     H
C        0.791   0.5693  0.81168     C
O        0.809   0.8961  0.25836     O
C       0.8153   0.6085  0.14971     C
C       0.8178   0.7056  0.18663     C
C       0.8217   0.5663  0.41116     C
Mn     0.82266   0.9271  0.70909    Mn
O       0.8266  0.76137  0.72923     O
O       0.8285   0.0985  0.68359     O
H       0.8332   0.3464   0.8722     H
O       0.8346  0.65458  0.44925     O
C       0.8461   0.4139  0.84435     C
C       0.8481    0.307   0.6159     C
N      0.85248   0.4023  0.58127     N
H       0.8745   0.7412   0.2234     H
O        0.879  0.50565  0.41836     O
C       0.8812   0.6097  0.76121     C
O      0.89106   0.5567  0.15915     O
C       0.8975   0.7166  0.71727     C
H       0.9043    0.277   0.6039     H
C       0.9376   0.4538  0.79444     C
H       0.9499    0.599   0.2633     H
C       0.9543   0.5518  0.75242     C
H       0.9749   0.3084    0.797     H
O      0.98003  0.75408  0.67151     O
C       0.9827   0.6085  0.21303     C
H       0.9841   0.4211   0.2823     H
