data_I
_chemical_name_common  '/home/zhangsd/repos/MofS-CGCNN/ML/data/SSD/clean_cifs/BEXSEE_clean'
_cell_length_a 12.51750
_cell_length_b 17.86000
_cell_length_c 12.34350
_cell_angle_alpha 90.00000
_cell_angle_beta  112.60100
_cell_angle_gamma 90.00000
_space_group_name_H-M_alt      'P 1'


loop_
_space_group_symop_operation_xyz
  'x, y, z' 

loop_
_atom_site_label
_atom_site_fract_x
_atom_site_fract_y
_atom_site_fract_z
_atom_site_type_symbol
Co         0.0      0.0      0.5    Co
Co         0.0      0.5      0.0    Co
O      0.00178   0.5775  0.12805     O
O      0.00178   0.9225  0.62805     O
H       0.0157   0.5735   0.7875     H
H       0.0157   0.9265   0.2875     H
C       0.0161  0.14214   0.2128     C
C       0.0161  0.35786   0.7128     C
C       0.0377   0.2064   0.0502     C
C       0.0377   0.2936   0.5502     C
C       0.0506  0.09924   0.7121     C
C       0.0506  0.40076   0.2121     C
O       0.0511   0.1611  0.87773     O
O       0.0511   0.3389  0.37773     O
C       0.0555  0.08329   0.3079     C
C       0.0555  0.41671   0.8079     C
C       0.0614  0.74859   0.4668     C
C       0.0614  0.75141   0.9668     C
C        0.076  0.15366   0.1397     C
C        0.076  0.34634   0.6397     C
C       0.0816  0.68521   0.3027     C
C       0.0816  0.81479   0.8027     C
H       0.0878   0.7155   0.0281     H
H       0.0878   0.7845   0.5281     H
H       0.0888   0.2325   0.4358     H
H       0.0888   0.2675   0.9358     H
N      0.09035  0.08235  0.62886     N
N      0.09035  0.41765  0.12886     N
C       0.1006  0.21637   0.9692     C
C       0.1006  0.28363   0.4692     C
C       0.1018  0.15274   0.7982     C
C       0.1018  0.34726   0.2982     C
H       0.1212   0.6787   0.2513     H
H       0.1212   0.8213   0.7513     H
C       0.1218   0.7379   0.3932     C
C       0.1218   0.7621   0.8932     C
O      0.14158  0.04259   0.3159     O
O      0.14158  0.45741   0.8159     O
H       0.1436   0.1252   0.1512     H
H       0.1436   0.3748   0.6512     H
C       0.1844  0.11884   0.6293     C
C       0.1844  0.38116   0.1293     C
H       0.1846   0.2077   0.0114     H
H       0.1846   0.2923   0.5114     H
C       0.1966   0.1926   0.7973     C
C       0.1966   0.3074   0.2973     C
H       0.2141   0.1066   0.5713     H
H       0.2141   0.3934   0.0713     H
C       0.2284  0.71735   0.9093     C
C       0.2284  0.78265   0.4093     C
H       0.2309   0.2312   0.8527     H
H       0.2309   0.2688   0.3527     H
C       0.2397   0.1738   0.7115     C
C       0.2397   0.3262   0.2115     C
O      0.26617  0.67177  0.99561     O
O      0.26617  0.82823  0.49561     O
O      0.27418  0.72828  0.83616     O
O      0.27418  0.77172  0.33616     O
C       0.3467  0.21287   0.7108     C
C       0.3467  0.28713   0.2108     C
O      0.37613   0.2275  0.26881     O
O      0.37613   0.2725  0.76881     O
O      0.39737  0.18194  0.65209     O
O      0.39737  0.31806  0.15209     O
Co     0.43751  0.70447   0.8426    Co
Co     0.43751  0.79553   0.3426    Co
Co     0.56249  0.20447   0.6574    Co
Co     0.56249  0.29553   0.1574    Co
O      0.60263  0.68194  0.84791     O
O      0.60263  0.81806  0.34791     O
O      0.62387   0.7275  0.23119     O
O      0.62387   0.7725  0.73119     O
C       0.6533  0.71287   0.7892     C
C       0.6533  0.78713   0.2892     C
O      0.72582  0.22828  0.66384     O
O      0.72582  0.27172  0.16384     O
O      0.73383  0.17177  0.50439     O
O      0.73383  0.32823  0.00439     O
C       0.7603   0.6738   0.7885     C
C       0.7603   0.8262   0.2885     C
H       0.7691   0.7312   0.6473     H
H       0.7691   0.7688   0.1473     H
C       0.7716  0.21735   0.5907     C
C       0.7716  0.28265   0.0907     C
H       0.7859   0.6066   0.9287     H
H       0.7859   0.8934   0.4287     H
C       0.8034   0.6926   0.7027     C
C       0.8034   0.8074   0.2027     C
H       0.8154   0.7077   0.4886     H
H       0.8154   0.7923   0.9886     H
C       0.8156  0.61884   0.8707     C
C       0.8156  0.88116   0.3707     C
H       0.8564   0.6252   0.3488     H
H       0.8564   0.8748   0.8488     H
O      0.85842  0.54259   0.1841     O
O      0.85842  0.95741   0.6841     O
C       0.8782   0.2379   0.1068     C
C       0.8782   0.2621   0.6068     C
H       0.8788   0.1787   0.2487     H
H       0.8788   0.3213   0.7487     H
C       0.8982  0.65274   0.7018     C
C       0.8982  0.84726   0.2018     C
C       0.8994  0.71637   0.5308     C
C       0.8994  0.78363   0.0308     C
N      0.90965  0.58235  0.87114     N
N      0.90965  0.91765  0.37114     N
H       0.9112   0.7325   0.0642     H
H       0.9112   0.7675   0.5642     H
H       0.9122   0.2155   0.4719     H
H       0.9122   0.2845   0.9719     H
C       0.9184  0.18521   0.1973     C
C       0.9184  0.31479   0.6973     C
C        0.924  0.65366   0.3603     C
C        0.924  0.84634   0.8603     C
C       0.9386  0.24859   0.0332     C
C       0.9386  0.25141   0.5332     C
C       0.9445  0.58329   0.1921     C
C       0.9445  0.91671   0.6921     C
O       0.9489   0.6611  0.62227     O
O       0.9489   0.8389  0.12227     O
C       0.9494  0.59924   0.7879     C
C       0.9494  0.90076   0.2879     C
C       0.9623   0.7064   0.4498     C
C       0.9623   0.7936   0.9498     C
C       0.9839  0.64214   0.2872     C
C       0.9839  0.85786   0.7872     C
H       0.9843   0.0735   0.7125     H
H       0.9843   0.4265   0.2125     H
O      0.99822   0.0775  0.37195     O
O      0.99822   0.4225  0.87195     O
