data_I
_chemical_name_common  '/home/zhangsd/repos/MofS-CGCNN/ML/data/SSD/clean_cifs/BIRMUM_clean'
_cell_length_a 21.07500
_cell_length_b  7.02390
_cell_length_c 31.99000
_cell_angle_alpha 90.00000
_cell_angle_beta  104.35600
_cell_angle_gamma 90.00000
_space_group_name_H-M_alt      'P 1'


loop_
_space_group_symop_operation_xyz
  'x, y, z' 

loop_
_atom_site_label
_atom_site_fract_x
_atom_site_fract_y
_atom_site_fract_z
_atom_site_type_symbol
C       0.0308   0.1319  0.53094     C
C       0.0308   0.3681  0.03094     C
H       0.0325   0.5097   0.5336     H
H       0.0325   0.9903   0.0336     H
C        0.037   0.6204  0.97985     C
C        0.037   0.8796  0.47985     C
C       0.0613   0.0375  0.05828     C
C       0.0613   0.4625  0.55828     C
C       0.0659   0.0125  0.51103     C
C       0.0659   0.4875  0.01103     C
H       0.0675   0.0239   0.8748     H
H       0.0675   0.4761   0.3748     H
C       0.0676   0.2314  0.06426     C
C       0.0676   0.2686  0.56426     C
H       0.0677   0.7192   0.9281     H
H       0.0677   0.7808   0.4281     H
H       0.0758   0.6292    0.465     H
H       0.0758   0.8708    0.965     H
C       0.0804   0.7386   0.9587     C
C       0.0804   0.7614   0.4587     C
H       0.0929   0.7188   0.5834     H
H       0.0929   0.7812   0.0834     H
C       0.0969   0.5883  0.58825     C
C       0.0969   0.9117  0.08825     C
C        0.106   0.0903  0.87563     C
C        0.106   0.4097  0.37563     C
C       0.1098   0.2008  0.60148     C
C       0.1098   0.2992  0.10148     C
H       0.1114    0.021   0.5188     H
H       0.1114    0.479   0.0188     H
H       0.1151   0.0701   0.6055     H
H       0.1151   0.4299   0.1055     H
H       0.1152   0.2062   0.9345     H
H       0.1152   0.2938   0.4345     H
H       0.1155   0.0062    0.817     H
H       0.1155   0.4938    0.317     H
H       0.1252   0.7007   0.9697     H
H       0.1252   0.7993   0.4697     H
C       0.1346     0.08  0.84099     C
C       0.1346     0.42  0.34099     C
C       0.1347   0.1995  0.91152     C
C       0.1347   0.3005  0.41152     C
C       0.1386   0.5185  0.62568     C
C       0.1386   0.9815  0.12568     C
C       0.1447   0.1749  0.13328     C
C       0.1447   0.3251  0.63328     C
H       0.1627    0.603   0.6459     H
H       0.1627    0.897   0.1459     H
C       0.1876   0.2474  0.67448     C
C       0.1876   0.2526  0.17448     C
C       0.1915   0.1801  0.84238     C
C       0.1915   0.3199  0.34238     C
C       0.1924   0.2011  0.41342     C
C       0.1924   0.2989  0.91342     C
O      0.19827   0.0733   0.6772     O
O      0.19827   0.4267   0.1772     O
H       0.1996   0.6779   0.8911     H
H       0.1996   0.8221   0.3911     H
O      0.20653   0.0359  0.77883     O
O      0.20653   0.4641  0.27883     O
O      0.20951   0.1347  0.20509     O
O      0.20951   0.3653  0.70509     O
H       0.2162   0.1944   0.9935     H
H       0.2162   0.3056   0.4935     H
C       0.2193   0.2105  0.37799     C
C       0.2193   0.2895  0.87799     C
C       0.2227   0.1717  0.80499     C
C       0.2227   0.3283  0.30499     C
C       0.2249   0.0932  0.45291     C
C       0.2249   0.4068  0.95291     C
C       0.2332   0.1838   0.4929     C
C       0.2332   0.3162   0.9929     C
H       0.2378   0.6546   0.4186     H
H       0.2378   0.8454   0.9186     H
C       0.2397   0.7136  0.91113     C
C       0.2397   0.7864  0.41113     C
Mn     0.24495  0.60247  0.23269    Mn
Mn     0.24495  0.89753  0.73269    Mn
H       0.2483   0.1625   0.5901     H
H       0.2483   0.3375   0.0901     H
C       0.2496   0.5911  0.95197     C
C       0.2496   0.9089  0.45197     C
H        0.257   0.1412   0.3783     H
H        0.257   0.3588   0.8783     H
H        0.261   0.1549   0.0652     H
H        0.261   0.3451   0.5652     H
O      0.26405   0.2035   0.3027     O
O      0.26405   0.2965   0.8027     O
C       0.2656   0.1007  0.53157     C
C       0.2656   0.3993  0.03157     C
H       0.2679   0.6844   0.1063     H
H       0.2679   0.8156   0.6063     H
C       0.2745   0.2162  0.57238     C
C       0.2745   0.2838  0.07238     C
H       0.2757    0.694   0.8982     H
H       0.2757    0.806   0.3982     H
O      0.27833    0.737   0.6855     O
O      0.27833    0.763   0.1855     O
C       0.2822   0.6735  0.99033     C
C       0.2822   0.8265  0.49033     C
C       0.2923    0.582  0.03045     C
C       0.2923    0.918  0.53045     C
H       0.2985   0.7038   0.4896     H
H       0.2985   0.7962   0.9896     H
Mn     0.30068  0.11129  0.25054    Mn
Mn     0.30068  0.38871  0.75054    Mn
O      0.30899   0.7005  0.78008     O
O      0.30899   0.7995  0.28008     O
C       0.3096    0.724  0.10517     C
C       0.3096    0.776  0.60517     C
H       0.3197   0.2143   0.5879     H
H       0.3197   0.2857   0.0879     H
C       0.3215   0.6264  0.67817     C
C       0.3215   0.8736  0.17817     C
C       0.3327   0.6797  0.06925     C
C       0.3327   0.8203  0.56925     C
O      0.33549    0.094   0.7378     O
O      0.33549    0.406   0.2378     O
H       0.3371   0.0696   0.6794     H
H       0.3371   0.4304   0.1794     H
O      0.34489   0.0157  0.20062     O
O      0.34489   0.4843  0.70062     O
H       0.3471    0.001   0.8289     H
H       0.3471    0.499   0.3289     H
C        0.348   0.6726  0.63973     C
C        0.348   0.8274  0.13973     C
C       0.3585   0.6371  0.80764     C
C       0.3585   0.8629  0.30764     C
C       0.3634   0.0849  0.70724     C
C       0.3634   0.4151  0.20724     C
C       0.3698   0.5674  0.35284     C
C       0.3698   0.9326  0.85284     C
H       0.3783   0.2095   0.0087     H
H       0.3783   0.2905   0.5087     H
H       0.3822   0.1502    0.895     H
H       0.3822   0.3498    0.395     H
C       0.3827   0.7414  0.84904     C
C       0.3827   0.7586  0.34904     C
O      0.38471   0.0169  0.30199     O
O      0.38471   0.4831  0.80199     O
C       0.3908   0.0215  0.89227     C
C       0.3908   0.4785  0.39227     C
H       0.3948   0.0622   0.4614     H
H       0.3948   0.4378   0.9614     H
C       0.3972   0.7327  0.07003     C
C       0.3972   0.7673  0.57003     C
C       0.4107   0.6173  0.63917     C
C       0.4107   0.8827  0.13917     C
H       0.4144   0.7013   0.0468     H
H       0.4144   0.7987   0.5468     H
C       0.4176   0.6382  0.88482     C
C       0.4176   0.8618  0.38482     C
H       0.4198   0.2307   0.0564     H
H       0.4198   0.2693   0.5564     H
C       0.4217   0.2043  0.02727     C
C       0.4217   0.2957  0.52727     C
H       0.4223    0.068    0.649     H
H       0.4223    0.432    0.149     H
C       0.4242     0.58  0.42766     C
C       0.4242     0.92  0.92766     C
N      0.42608   0.0953  0.71191     N
N      0.42608   0.4047  0.21191     N
H       0.4272   0.5105   0.8818     H
H       0.4272   0.9895   0.3818     H
C       0.4355   0.6694  0.60459     C
C       0.4355   0.8306  0.10459     C
H       0.4359    0.546   0.6617     H
H       0.4359    0.954   0.1617     H
C       0.4374   0.0367  0.47706     C
C       0.4374   0.4633  0.97706     C
C       0.4378   0.7262  0.92485     C
C       0.4378   0.7738  0.42485     C
H       0.4382   0.5182   0.4541     H
H       0.4382   0.9818   0.9541     H
H       0.4397   0.0797   0.0259     H
H       0.4397   0.4203   0.5259     H
C       0.4554   0.0956  0.67489     C
C       0.4554   0.4044  0.17489     C
H       0.4578   0.0385   0.7746     H
H       0.4578   0.4615   0.2746     H
H       0.4612   0.2446   0.2638     H
H       0.4612   0.2554   0.7638     H
C       0.4643   0.1499  0.51299     C
C       0.4643   0.3501  0.01299     C
C       0.4681   0.1285   0.7547     C
C       0.4681   0.3715   0.2547     C
C        0.471   0.6121  0.96343     C
C        0.471   0.8879  0.46343     C
H        0.474   0.2186   0.6723     H
H        0.474   0.2814   0.1723     H
H       0.4784    0.638   0.6047     H
H       0.4784    0.862   0.1047     H
H       0.4869   0.6136   0.7461     H
H       0.4869   0.8864   0.2461     H
H       0.4892   0.0006    0.679     H
H       0.4892   0.4994    0.179     H
H       0.5108   0.5006    0.821     H
H       0.5108   0.9994    0.321     H
H       0.5131   0.1136   0.7539     H
H       0.5131   0.3864   0.2539     H
H       0.5216    0.138   0.8953     H
H       0.5216    0.362   0.3953     H
H        0.526   0.7186   0.8277     H
H        0.526   0.7814   0.3277     H
C        0.529   0.1121  0.53657     C
C        0.529   0.3879  0.03657     C
C       0.5319   0.6285   0.7453     C
C       0.5319   0.8715   0.2453     C
C       0.5357   0.6499  0.98701     C
C       0.5357   0.8501  0.48701     C
H       0.5388   0.7446   0.2362     H
H       0.5388   0.7554   0.7362     H
H       0.5422   0.5385   0.7254     H
H       0.5422   0.9615   0.2254     H
C       0.5446   0.5956  0.82511     C
C       0.5446   0.9044  0.32511     C
H       0.5603   0.5797   0.4741     H
H       0.5603   0.9203   0.9741     H
H       0.5618   0.0182   0.0459     H
H       0.5618   0.4818   0.5459     H
C       0.5622   0.2262  0.57515     C
C       0.5622   0.2738  0.07515     C
C       0.5626   0.5367  0.02294     C
C       0.5626   0.9633  0.52294     C
H       0.5641    0.046   0.8383     H
H       0.5641    0.454   0.3383     H
C       0.5645   0.1694  0.89541     C
C       0.5645   0.3306  0.39541     C
H       0.5728   0.0105   0.6182     H
H       0.5728   0.4895   0.1182     H
N      0.57392   0.5953  0.78809     N
N      0.57392   0.9047  0.28809     N
C       0.5758     0.08  0.07234     C
C       0.5758     0.42  0.57234     C
H       0.5777    0.568    0.851     H
H       0.5777    0.932    0.351     H
C       0.5783   0.7043  0.47273     C
C       0.5783   0.7957  0.97273     C
H       0.5802   0.7307   0.4436     H
H       0.5802   0.7693   0.9436     H
C       0.5824   0.1382  0.61518     C
C       0.5824   0.3618  0.11518     C
H       0.5856   0.2013   0.4532     H
H       0.5856   0.2987   0.9532     H
C       0.5893   0.1173  0.86083     C
C       0.5893   0.3827  0.36083     C
C       0.6028   0.2327  0.42997     C
C       0.6028   0.2673  0.92997     C
H       0.6052   0.5622   0.0386     H
H       0.6052   0.9378   0.5386     H
C       0.6092   0.5215  0.60773     C
C       0.6092   0.9785  0.10773     C
O      0.61529   0.5169  0.19801     O
O      0.61529   0.9831  0.69801     O
C       0.6173   0.2414  0.65096     C
C       0.6173   0.2586  0.15096     C
H       0.6178   0.6502    0.605     H
H       0.6178   0.8498    0.105     H
H       0.6217   0.7095   0.4913     H
H       0.6217   0.7905   0.9913     H
C       0.6302   0.0674  0.14716     C
C       0.6302   0.4326  0.64716     C
C       0.6366   0.5849  0.79276     C
C       0.6366   0.9151  0.29276     C
C       0.6415   0.1371  0.69236     C
C       0.6415   0.3629  0.19236     C
C        0.652   0.1726  0.86027     C
C        0.652   0.3274  0.36027     C
H       0.6529    0.501   0.6711     H
H       0.6529    0.999   0.1711     H
O      0.65511   0.5157  0.29938     O
O      0.65511   0.9843  0.79938     O
H       0.6629   0.5696   0.8206     H
H       0.6629   0.9304   0.3206     H
O      0.66451    0.594   0.7622     O
O      0.66451    0.906   0.2622     O
C       0.6673   0.1797  0.43075     C
C       0.6673   0.3203  0.93075     C
C       0.6785   0.1264  0.82183     C
C       0.6785   0.3736  0.32183     C
H       0.6803   0.7143   0.9121     H
H       0.6803   0.7857   0.4121     H
C       0.6904    0.224  0.39483     C
C       0.6904    0.276  0.89483     C
O      0.69101   0.2005  0.71992     O
O      0.69101   0.2995  0.21992     O
Mn     0.69932  0.61129  0.24946    Mn
Mn     0.69932  0.88871  0.74946    Mn
H       0.7015   0.2038   0.0104     H
H       0.7015   0.2962   0.5104     H
C       0.7077    0.082  0.46955     C
C       0.7077    0.418  0.96955     C
C       0.7178   0.1735  0.50967     C
C       0.7178   0.3265  0.00967     C
O      0.72167    0.237   0.8145     O
O      0.72167    0.263   0.3145     O
H       0.7243    0.194   0.6018     H
H       0.7243    0.306   0.1018     H
C       0.7255   0.7162  0.92762     C
C       0.7255   0.7838  0.42762     C
H       0.7321   0.1844   0.3937     H
H       0.7321   0.3156   0.8937     H
C       0.7344   0.6007  0.96843     C
C       0.7344   0.8993  0.46843     C
O      0.73595   0.7035   0.1973     O
O      0.73595   0.7965   0.6973     O
H        0.739   0.6549   0.4348     H
H        0.739   0.8451   0.9348     H
H        0.743   0.6412   0.1217     H
H        0.743   0.8588   0.6217     H
C       0.7504   0.0911  0.54803     C
C       0.7504   0.4089  0.04803     C
H       0.7517   0.6625   0.9099     H
H       0.7517   0.8375   0.4099     H
Mn     0.75505  0.10247  0.26732    Mn
Mn     0.75505  0.39753  0.76732    Mn
C       0.7603   0.2136  0.58887     C
C       0.7603   0.2864  0.08887     C
H       0.7622   0.1546   0.0814     H
H       0.7622   0.3454   0.5814     H
C       0.7668   0.6838   0.0071     C
C       0.7668   0.8162   0.5071     C
C       0.7751   0.5932  0.04709     C
C       0.7751   0.9068  0.54709     C
C       0.7773   0.6717  0.69501     C
C       0.7773   0.8283  0.19501     C
C       0.7807   0.7105  0.12201     C
C       0.7807   0.7895  0.62201     C
H       0.7838   0.6944   0.5065     H
H       0.7838   0.8056   0.0065     H
O      0.79049   0.6347  0.29491     O
O      0.79049   0.8653  0.79491     O
O      0.79347   0.5359  0.72117     O
O      0.79347   0.9641  0.22117     O
H       0.8004   0.1779   0.6089     H
H       0.8004   0.3221   0.1089     H
O      0.80173   0.5733   0.8228     O
O      0.80173   0.9267   0.3228     O
C       0.8076   0.7011  0.08658     C
C       0.8076   0.7989  0.58658     C
C       0.8085   0.6801  0.65762     C
C       0.8085   0.8199  0.15762     C
C       0.8124   0.7474  0.82552     C
C       0.8124   0.7526  0.32552     C
H       0.8373    0.103   0.8541     H
H       0.8373    0.397   0.3541     H
C       0.8553   0.6749  0.36672     C
C       0.8553   0.8251  0.86672     C
C       0.8614   0.0185  0.87432     C
C       0.8614   0.4815  0.37432     C
C       0.8653   0.6995  0.58848     C
C       0.8653   0.8005  0.08848     C
C       0.8654     0.58  0.65901     C
C       0.8654     0.92  0.15901     C
H       0.8748   0.2007   0.5303     H
H       0.8748   0.2993   0.0303     H
H       0.8845   0.5062    0.683     H
H       0.8845   0.9938    0.183     H
H       0.8848   0.7062   0.5655     H
H       0.8848   0.7938   0.0655     H
H       0.8849   0.5701   0.8945     H
H       0.8849   0.9299   0.3945     H
H       0.8886    0.521   0.9812     H
H       0.8886    0.979   0.4812     H
C       0.8902   0.7008  0.89852     C
C       0.8902   0.7992  0.39852     C
C        0.894   0.5903  0.62437     C
C        0.894   0.9097  0.12437     C
C       0.9031   0.0883  0.91175     C
C       0.9031   0.4117  0.41175     C
H       0.9071   0.2188   0.9166     H
H       0.9071   0.2812   0.4166     H
C       0.9196   0.2386   0.5413     C
C       0.9196   0.2614   0.0413     C
H       0.9242   0.1292    0.035     H
H       0.9242   0.3708    0.535     H
H       0.9323   0.2192   0.5719     H
H       0.9323   0.2808   0.0719     H
C       0.9324   0.7314  0.43574     C
C       0.9324   0.7686  0.93574     C
H       0.9325   0.5239   0.6252     H
H       0.9325   0.9761   0.1252     H
C       0.9341   0.5125  0.98897     C
C       0.9341   0.9875  0.48897     C
C       0.9387   0.5375  0.44172     C
C       0.9387   0.9625  0.94172     C
C        0.963   0.1204  0.52015     C
C        0.963   0.3796  0.02015     C
H       0.9675   0.0097   0.9664     H
H       0.9675   0.4903   0.4664     H
C       0.9692   0.6319  0.96906     C
C       0.9692   0.8681  0.46906     C
