data_I
_chemical_name_common  '/home/zhangsd/repos/MofS-CGCNN/ML/data/SSD/clean_cifs/BIRSEC_clean'
_cell_length_a 13.11100
_cell_length_b 13.84800
_cell_length_c 19.97800
_cell_angle_alpha 90.00000
_cell_angle_beta  90.00000
_cell_angle_gamma 90.00000
_space_group_name_H-M_alt      'P 1'


loop_
_space_group_symop_operation_xyz
  'x, y, z' 

loop_
_atom_site_label
_atom_site_fract_x
_atom_site_fract_y
_atom_site_fract_z
_atom_site_type_symbol
C       0.0344    0.216   0.8716     C
C       0.0344    0.284   0.3716     C
C       0.0344    0.716   0.6284     C
C       0.0344    0.784   0.1284     C
H       0.0501   0.1718   0.8381     H
H       0.0501   0.3282   0.3381     H
H       0.0501   0.6718   0.6619     H
H       0.0501   0.8282   0.1619     H
C        0.089   0.1746   0.4562     C
C        0.089   0.3254   0.9562     C
C        0.089   0.6746   0.0438     C
C        0.089   0.8254   0.5438     C
C       0.1104   0.2371   0.4041     C
C       0.1104   0.2629   0.9041     C
C       0.1104   0.7371   0.0959     C
C       0.1104   0.7629   0.5959     C
H       0.1582      0.0      0.0     H
H       0.1582      0.5      0.5     H
O       0.1688   0.1132  0.55421     O
O       0.1688   0.3868  0.05421     O
O       0.1688   0.6132  0.94579     O
O       0.1688   0.8868  0.44579     O
C       0.1751   0.1245   0.4923     C
C       0.1751   0.3755   0.9923     C
C       0.1751   0.6245   0.0077     C
C       0.1751   0.8755   0.5077     C
H       0.1777    0.247   0.3911     H
H       0.1777    0.253   0.8911     H
H       0.1777    0.747   0.1089     H
H       0.1777    0.753   0.6089     H
C       0.2292      0.0      0.0     C
C       0.2292      0.5      0.5     C
H       0.2469   0.1443   0.0029     H
H       0.2469   0.3557   0.5029     H
H       0.2469   0.6443   0.4971     H
H       0.2469   0.8557   0.9971     H
O       0.2473  0.09593  0.45666     O
O       0.2473  0.40407  0.95666     O
O       0.2473  0.59593  0.04334     O
O       0.2473  0.90407  0.54334     O
Co     0.25927  0.02526    0.615    Co
Co     0.25927  0.47474    0.115    Co
Co     0.25927  0.52526    0.885    Co
Co     0.25927  0.97474    0.385    Co
C       0.2823   0.0862   0.0003     C
C       0.2823   0.4138   0.5003     C
C       0.2823   0.5862   0.4997     C
C       0.2823   0.9138   0.9997     C
H       0.2971   0.0494   0.7642     H
H       0.2971   0.4506   0.2642     H
H       0.2971   0.5494   0.7358     H
H       0.2971   0.9506   0.2358     H
N       0.2974   0.1331  0.68536     N
N       0.2974   0.3669  0.18536     N
N       0.2974   0.6331  0.81464     N
N       0.2974   0.8669  0.31464     N
C       0.3088   0.1124   0.7499     C
C       0.3088   0.3876   0.2499     C
C       0.3088   0.6124   0.7501     C
C       0.3088   0.8876   0.2501     C
H        0.309   0.2393   0.6207     H
H        0.309   0.2607   0.1207     H
H        0.309   0.7393   0.8793     H
H        0.309   0.7607   0.3793     H
C       0.3147   0.2244   0.6659     C
C       0.3147   0.2756   0.1659     C
C       0.3147   0.7244   0.8341     C
C       0.3147   0.7756   0.3341     C
O       0.3251   0.0706  0.31791     O
O       0.3251   0.4294  0.81791     O
O       0.3251   0.5706  0.18209     O
O       0.3251   0.9294  0.68209     O
C       0.3372   0.1802   0.7964     C
C       0.3372   0.3198   0.2964     C
C       0.3372   0.6802   0.7036     C
C       0.3372   0.8198   0.2036     C
C       0.3404   0.2032   0.2097     C
C       0.3404   0.2968   0.7097     C
C       0.3404   0.7032   0.2903     C
C       0.3404   0.7968   0.7903     C
H       0.3453   0.1628    0.841     H
H       0.3453   0.3372    0.341     H
H       0.3453   0.6628    0.659     H
H       0.3453   0.8372    0.159     H
H       0.3488   0.1403   0.1945     H
H       0.3488   0.3597   0.6945     H
H       0.3488   0.6403   0.3055     H
H       0.3488   0.8597   0.8055     H
C       0.3537    0.225   0.2764     C
C       0.3537    0.275   0.7764     C
C       0.3537    0.725   0.2236     C
C       0.3537    0.775   0.7236     C
C       0.3718   0.1479   0.3275     C
C       0.3718   0.3521   0.8275     C
C       0.3718   0.6479   0.1725     C
C       0.3718   0.8521   0.6725     C
C        0.387   0.0866   0.9968     C
C        0.387   0.4134   0.4968     C
C        0.387   0.5866   0.5032     C
C        0.387   0.9134   0.0032     C
O        0.391   0.2458  0.50869     O
O        0.391   0.2542  0.00869     O
O        0.391   0.7458  0.99131     O
O        0.391   0.7542  0.49131     O
O       0.3938  0.03694  0.56556     O
O       0.3938  0.46306  0.06556     O
O       0.3938  0.53694  0.93444     O
O       0.3938  0.96306  0.43444     O
Co     0.40532  0.10368  0.47478    Co
Co     0.40532  0.39632  0.97478    Co
Co     0.40532  0.60368  0.02522    Co
Co     0.40532  0.89632  0.52522    Co
O       0.4256   0.1684  0.37887     O
O       0.4256   0.3316  0.87887     O
O       0.4256   0.6684  0.12113     O
O       0.4256   0.8316  0.62113     O
C       0.4396   0.1823   0.9904     C
C       0.4396   0.3177   0.4904     C
C       0.4396   0.6823   0.5096     C
C       0.4396   0.8177   0.0096     C
C       0.4399      0.0      0.0     C
C       0.4399      0.5      0.5     C
H       0.4507   0.0527   0.5954     H
H       0.4507   0.4473   0.0954     H
H       0.4507   0.5527   0.9046     H
H       0.4507   0.9473   0.4046     H
H       0.5109      0.0      0.0     H
H       0.5109      0.5      0.5     H
O       0.5281   0.1828  0.96457     O
O       0.5281   0.3172  0.46457     O
O       0.5281   0.6828  0.53543     O
O       0.5281   0.8172  0.03543     O
O       0.5623  0.11177  0.48172     O
O       0.5623  0.38823  0.98172     O
O       0.5623  0.61177  0.01828     O
O       0.5623  0.88823  0.51828     O
H       0.5726   0.1542   0.5204     H
H       0.5726   0.3458   0.0204     H
H       0.5726   0.6542   0.9796     H
H       0.5726   0.8458   0.4796     H
H       0.5857   0.0791   0.8725     H
H       0.5857   0.4209   0.3725     H
H       0.5857   0.5791   0.6275     H
H       0.5857   0.9209   0.1275     H
Co     0.58707    0.202  0.40253    Co
Co     0.58707    0.298  0.90253    Co
Co     0.58707    0.702  0.09747    Co
Co     0.58707    0.798  0.59747    Co
C       0.5957    0.103   0.8295     C
C       0.5957    0.397   0.3295     C
C       0.5957    0.603   0.6705     C
C       0.5957    0.897   0.1705     C
N       0.6001   0.1979  0.82166     N
N       0.6001   0.3021  0.32166     N
N       0.6001   0.6979  0.67834     N
N       0.6001   0.8021  0.17834     N
H       0.6017   0.0284   0.2135     H
H       0.6017   0.4716   0.7135     H
H       0.6017   0.5284   0.2865     H
H       0.6017   0.9716   0.7865     H
C       0.6052   0.0375   0.7778     C
C       0.6052   0.4625   0.2778     C
C       0.6052   0.5375   0.7222     C
C       0.6052   0.9625   0.2222     C
C       0.6125    0.227   0.7597     C
C       0.6125    0.273   0.2597     C
C       0.6125    0.727   0.7403     C
C       0.6125    0.773   0.2403     C
H       0.6153   0.2069   0.2518     H
H       0.6153   0.2931   0.7518     H
H       0.6153   0.7069   0.2482     H
H       0.6153   0.7931   0.7482     H
C       0.6196   0.0699    0.714     C
C       0.6196   0.4301    0.214     C
C       0.6196   0.5699    0.786     C
C       0.6196   0.9301    0.286     C
C       0.6215   0.1669   0.7061     C
C       0.6215   0.3331   0.2061     C
C       0.6215   0.6669   0.7939     C
C       0.6215   0.8331   0.2939     C
O       0.6218   0.0861   0.3359     O
O       0.6218   0.4139   0.8359     O
O       0.6218   0.5861   0.1641     O
O       0.6218   0.9139   0.6641     O
H        0.629   0.1928   0.6634     H
H        0.629   0.3072   0.1634     H
H        0.629   0.6928   0.8366     H
H        0.629   0.8072   0.3366     H
C       0.6313   0.0013   0.6546     C
C       0.6313   0.4987   0.1546     C
C       0.6313   0.5013   0.8454     C
C       0.6313   0.9987   0.3454     C
O       0.6502   0.0441  0.60058     O
O       0.6502   0.4559  0.10058     O
O       0.6502   0.5441  0.89942     O
O       0.6502   0.9559  0.39942     O
Co     0.66305      0.0      0.5    Co
Co     0.66305      0.5      0.0    Co
O       0.7346    0.231   0.4303     O
O       0.7346    0.269   0.9303     O
O       0.7346    0.731   0.0697     O
O       0.7346    0.769   0.5697     O
O        0.785   0.0954  0.48097     O
O        0.785   0.4046  0.98097     O
O        0.785   0.5954  0.01903     O
O        0.785   0.9046  0.51903     O
C       0.7998   0.1735   0.4519     C
C       0.7998   0.3265   0.9519     C
C       0.7998   0.6735   0.0481     C
C       0.7998   0.8265   0.5481     C
H       0.8817   0.2013   0.8656     H
H       0.8817   0.2987   0.3656     H
H       0.8817   0.7013   0.6344     H
H       0.8817   0.7987   0.1344     H
C       0.9105   0.2011   0.4382     C
C       0.9105   0.2989   0.9382     C
C       0.9105   0.7011   0.0618     C
C       0.9105   0.7989   0.5618     C
C       0.9337   0.2334   0.8881     C
C       0.9337   0.2666   0.3881     C
C       0.9337   0.7334   0.6119     C
C       0.9337   0.7666   0.1119     C
H       0.9737   0.1151   0.5083     H
H       0.9737   0.3849   0.0083     H
H       0.9737   0.6151   0.9917     H
H       0.9737   0.8849   0.4917     H
C       0.9887   0.1569   0.4732     C
C       0.9887   0.3431   0.9732     C
C       0.9887   0.6569   0.0268     C
C       0.9887   0.8431   0.5268     C
