data_I
_chemical_name_common  '/home/zhangsd/repos/MofS-CGCNN/ML/data/SSD/clean_cifs/BIYVEM_clean'
_cell_length_a  8.02340
_cell_length_b 30.24390
_cell_length_c 15.32800
_cell_angle_alpha 90.00000
_cell_angle_beta  90.00000
_cell_angle_gamma 90.00000
_space_group_name_H-M_alt      'P 1'


loop_
_space_group_symop_operation_xyz
  'x, y, z' 

loop_
_atom_site_label
_atom_site_fract_x
_atom_site_fract_y
_atom_site_fract_z
_atom_site_type_symbol
H       0.0002   0.1115   0.4514     H
H       0.0002   0.3885   0.4514     H
O       0.0013  0.53042  0.70828     O
O       0.0013  0.96958  0.70828     O
O       0.0118   0.1695  0.23235     O
O       0.0118   0.3305  0.23235     O
C       0.0242   0.0879   0.4904     C
C       0.0242   0.4121   0.4904     C
H       0.0322     0.75   0.7568     H
C       0.0415  0.54793   0.3877     C
C       0.0415  0.95207   0.3877     C
Sm     0.06392  0.09299   0.2043    Sm
Sm     0.06392  0.40701   0.2043    Sm
N       0.0746  0.58242   0.4399     N
N       0.0746  0.91758   0.4399     N
C       0.0925  0.01942   0.6003     C
C       0.0925  0.48058   0.6003     C
C       0.0963  0.66781   0.7084     C
C       0.0963  0.83219   0.7084     C
C       0.0986     0.75   0.7055     C
O       0.1087  0.54198  0.88552     O
O       0.1087  0.95802  0.88552     O
H       0.1139   0.5427   0.3398     H
H       0.1139   0.9573   0.3398     H
C       0.1191  0.52015   0.6584     C
C       0.1191  0.97985   0.6584     C
C       0.1482  0.71042   0.6672     C
C       0.1482  0.78958   0.6672     C
O       0.1573  0.63126  0.68241     O
O       0.1573  0.86874  0.68241     O
C       0.1602  0.06078   0.4721     C
C       0.1602  0.43922   0.4721     C
C       0.1959  0.02656   0.5298     C
C       0.1959  0.47344   0.5298     C
H       0.2094   0.5083   0.0207     H
H       0.2094   0.9917   0.0207     H
N       0.2125     0.25   0.0522     N
H       0.2235    0.185   0.0653     H
H       0.2235    0.315   0.0653     H
C       0.2339  0.56641   0.8927     C
C       0.2339  0.93359   0.8927     C
O       0.2364  0.09708  0.33781     O
O       0.2364  0.40292  0.33781     O
C       0.2424  0.71206   0.5911     C
C       0.2424  0.78794   0.5911     C
O       0.2457  0.04002  0.15063     O
O       0.2457  0.45998  0.15063     O
O       0.2543  0.54002  0.65063     O
O       0.2543  0.95998  0.65063     O
C       0.2576  0.21206   0.0911     C
C       0.2576  0.28794   0.0911     C
O       0.2636  0.59708  0.83781     O
O       0.2636  0.90292  0.83781     O
C       0.2661  0.06641   0.3927     C
C       0.2661  0.43359   0.3927     C
H       0.2765    0.685   0.5653     H
H       0.2765    0.815   0.5653     H
N       0.2875     0.75   0.5522     N
H       0.2906   0.0083   0.5207     H
H       0.2906   0.4917   0.5207     H
C       0.3041  0.52656   0.0298     C
C       0.3041  0.97344   0.0298     C
C       0.3398  0.56078   0.9721     C
C       0.3398  0.93922   0.9721     C
O       0.3427  0.13126  0.18241     O
O       0.3427  0.36874  0.18241     O
C       0.3518  0.21042   0.1672     C
C       0.3518  0.28958   0.1672     C
C       0.3809  0.02015   0.1584     C
C       0.3809  0.47985   0.1584     C
H       0.3861   0.0427   0.8398     H
H       0.3861   0.4573   0.8398     H
O       0.3913  0.04198  0.38552     O
O       0.3913  0.45802  0.38552     O
C       0.4014     0.25   0.2055     C
C       0.4037  0.16781   0.2084     C
C       0.4037  0.33219   0.2084     C
C       0.4075  0.51942   0.1003     C
C       0.4075  0.98058   0.1003     C
N       0.4254  0.08242   0.9399     N
N       0.4254  0.41758   0.9399     N
Sm     0.43608  0.59299   0.7043    Sm
Sm     0.43608  0.90701   0.7043    Sm
C       0.4585  0.04793   0.8877     C
C       0.4585  0.45207   0.8877     C
H       0.4678     0.25   0.2568     H
C       0.4758   0.5879   0.9904     C
C       0.4758   0.9121   0.9904     C
O       0.4882   0.6695  0.73235     O
O       0.4882   0.8305  0.73235     O
O       0.4987  0.03042  0.20828     O
O       0.4987  0.46958  0.20828     O
H       0.4998   0.6115   0.9514     H
H       0.4998   0.8885   0.9514     H
H       0.5002   0.1115   0.0486     H
H       0.5002   0.3885   0.0486     H
O       0.5013  0.53042  0.79172     O
O       0.5013  0.96958  0.79172     O
O       0.5118   0.1695  0.26765     O
O       0.5118   0.3305  0.26765     O
C       0.5242   0.0879   0.0096     C
C       0.5242   0.4121   0.0096     C
H       0.5322     0.75   0.7432     H
C       0.5415  0.54793   0.1123     C
C       0.5415  0.95207   0.1123     C
Sm     0.56392  0.09299   0.2957    Sm
Sm     0.56392  0.40701   0.2957    Sm
N       0.5746  0.58242   0.0601     N
N       0.5746  0.91758   0.0601     N
C       0.5925  0.01942   0.8997     C
C       0.5925  0.48058   0.8997     C
C       0.5963  0.66781   0.7916     C
C       0.5963  0.83219   0.7916     C
C       0.5986     0.75   0.7945     C
O       0.6087  0.54198  0.61448     O
O       0.6087  0.95802  0.61448     O
H       0.6139   0.5427   0.1602     H
H       0.6139   0.9573   0.1602     H
C       0.6191  0.52015   0.8416     C
C       0.6191  0.97985   0.8416     C
C       0.6482  0.71042   0.8328     C
C       0.6482  0.78958   0.8328     C
O       0.6573  0.63126  0.81759     O
O       0.6573  0.86874  0.81759     O
C       0.6602  0.06078   0.0279     C
C       0.6602  0.43922   0.0279     C
C       0.6959  0.02656   0.9702     C
C       0.6959  0.47344   0.9702     C
H       0.7094   0.5083   0.4793     H
H       0.7094   0.9917   0.4793     H
N       0.7125     0.25   0.4478     N
H       0.7235    0.185   0.4347     H
H       0.7235    0.315   0.4347     H
C       0.7339  0.56641   0.6073     C
C       0.7339  0.93359   0.6073     C
O       0.7364  0.09708  0.16219     O
O       0.7364  0.40292  0.16219     O
C       0.7424  0.71206   0.9089     C
C       0.7424  0.78794   0.9089     C
O       0.7457  0.04002  0.34937     O
O       0.7457  0.45998  0.34937     O
O       0.7543  0.54002  0.84937     O
O       0.7543  0.95998  0.84937     O
C       0.7576  0.21206   0.4089     C
C       0.7576  0.28794   0.4089     C
O       0.7636  0.59708  0.66219     O
O       0.7636  0.90292  0.66219     O
C       0.7661  0.06641   0.1073     C
C       0.7661  0.43359   0.1073     C
H       0.7765    0.685   0.9347     H
H       0.7765    0.815   0.9347     H
N       0.7875     0.75   0.9478     N
H       0.7906   0.0083   0.9793     H
H       0.7906   0.4917   0.9793     H
C       0.8041  0.52656   0.4702     C
C       0.8041  0.97344   0.4702     C
C       0.8398  0.56078   0.5279     C
C       0.8398  0.93922   0.5279     C
O       0.8427  0.13126  0.31759     O
O       0.8427  0.36874  0.31759     O
C       0.8518  0.21042   0.3328     C
C       0.8518  0.28958   0.3328     C
C       0.8809  0.02015   0.3416     C
C       0.8809  0.47985   0.3416     C
H       0.8861   0.0427   0.6602     H
H       0.8861   0.4573   0.6602     H
O       0.8913  0.04198  0.11448     O
O       0.8913  0.45802  0.11448     O
C       0.9014     0.25   0.2945     C
C       0.9037  0.16781   0.2916     C
C       0.9037  0.33219   0.2916     C
C       0.9075  0.51942   0.3997     C
C       0.9075  0.98058   0.3997     C
N       0.9254  0.08242   0.5601     N
N       0.9254  0.41758   0.5601     N
Sm     0.93608  0.59299   0.7957    Sm
Sm     0.93608  0.90701   0.7957    Sm
C       0.9585  0.04793   0.6123     C
C       0.9585  0.45207   0.6123     C
H       0.9678     0.25   0.2432     H
C       0.9758   0.5879   0.5096     C
C       0.9758   0.9121   0.5096     C
O       0.9882   0.6695  0.76765     O
O       0.9882   0.8305  0.76765     O
O       0.9987  0.03042  0.29172     O
O       0.9987  0.46958  0.29172     O
H       0.9998   0.6115   0.5486     H
H       0.9998   0.8885   0.5486     H
