data_I
_chemical_name_common  '/home/zhangsd/repos/MofS-CGCNN/ML/data/SSD/clean_cifs/BIZMEE_clean'
_cell_length_a 24.03000
_cell_length_b 24.13480
_cell_length_c 24.39220
_cell_angle_alpha 85.03200
_cell_angle_beta  61.32500
_cell_angle_gamma 61.26500
_space_group_name_H-M_alt      'P 1'


loop_
_space_group_symop_operation_xyz
  'x, y, z' 

loop_
_atom_site_label
_atom_site_fract_x
_atom_site_fract_y
_atom_site_fract_z
_atom_site_type_symbol
H       0.0033   0.1681   0.6155     H
H       0.0111   0.5368   0.3391     H
C       0.0111   0.7914   0.3647     C
C       0.0126   0.7201   0.0845     C
N       0.0146   0.2901    0.637     N
C       0.0158    0.457   0.6158     C
H       0.0169   0.8161   0.0292     H
C        0.018   0.0903    0.183     C
C       0.0186    0.511   0.4146     C
C       0.0194   0.6646   0.1689     C
C         0.02    0.482   0.5173     C
H       0.0273   0.4645   0.7484     H
C       0.0277   0.1044   0.2288     C
H       0.0302   0.8363   0.6832     H
C       0.0351   0.8491   0.7157     C
C       0.0365    0.231   0.6086     C
N       0.0371   0.2788    0.788     N
H         0.04   0.6264   0.1838     H
C       0.0406   0.7796   0.9977     C
C       0.0432   0.7253   0.0158     C
C       0.0453   0.6629   0.1062     C
C        0.048   0.2261   0.8699     C
H       0.0486   0.5493   0.7416     H
C       0.0505    0.884   0.8093     C
C       0.0521   0.6763   0.3112     C
H       0.0561   0.8957   0.8418     H
O       0.0568   0.2778   0.7259     O
H       0.0574   0.0666    0.323     H
H       0.0596    0.062   0.1444     H
O         0.06   0.3126   0.6145     O
H       0.0668   0.6356   0.2918     H
H       0.0672   0.6244   0.7779     H
H       0.0683   0.8626   0.3576     H
H       0.0701   0.4825   0.3913     H
H       0.0709   0.8231   0.9227     H
C       0.0717   0.7842   0.9343     C
C       0.0719   0.2268   0.8085     C
H       0.0728   0.1881   0.8829     H
C       0.0738   0.4569   0.7393     C
C       0.0784   0.6713   0.9666     C
C       0.0801   0.7587   0.3099     C
H       0.0813   0.6316   0.9775     H
H       0.0832   0.2068   0.5717     H
H       0.0849   0.6242   0.0767     H
C       0.0871   0.5069   0.7349     C
H       0.0878   0.1559   0.6925     H
N       0.0892   0.4151   0.5845     N
C       0.0931   0.4382   0.4873     C
C       0.0975   0.0724   0.2279     C
C       0.0996   0.6999    0.286     C
C       0.1011   0.0537   0.2832     C
H       0.1015   0.7031   0.7602     H
C       0.1025   0.8233   0.7107     C
N       0.1026   0.7351   0.8895     N
C       0.1071   0.6777   0.9051     C
N       0.1098   0.8423   0.7561     N
C       0.1101   0.8438   0.3161     C
H       0.1133   0.0648   0.7366     H
H       0.1145   0.1897   0.7782     H
C       0.1164   0.6138   0.7487     C
O       0.1174   0.3469   0.7322     O
H       0.1204   0.4298   0.4422     H
O       0.1219   0.3857   0.6174     O
C       0.1273   0.7871   0.2822     C
N       0.1282    0.397   0.7302     N
C       0.1288   0.4058   0.5199     C
H       0.1305   0.6424   0.8725     H
O       0.1323   0.7403   0.8291     O
C       0.1374    0.123   0.6771     C
C       0.1375   0.6598   0.7391     C
H       0.1407   0.9083   0.3132     H
H       0.1448   0.7915   0.6747     H
H       0.1465   0.2585   0.4833     H
H       0.1474    0.674   0.2509     H
H       0.1478   0.0021   0.7983     H
C       0.1525   0.0692   0.7034     C
C       0.1528    0.871   0.2897     C
Ho     0.15294  0.28303  0.64067    Ho
C       0.1545   0.4985   0.7212     C
C       0.1657   0.0525   0.1713     C
H       0.1664   0.0637   0.1327     H
H       0.1686   0.9076   0.8381     H
C       0.1701   0.0159   0.2788     C
C       0.1703   0.5509    0.714     C
H       0.1716    0.173   0.4292     H
H       0.1728   0.0032   0.3158     H
H       0.1743   0.8229    0.926     H
H       0.1754   0.2607   0.7964     H
O       0.1757     0.82   0.7488     O
O       0.1783   0.1823   0.6033     O
H       0.1803   0.3773   0.4977     H
H       0.1885   0.0591   0.4388     H
C       0.1888    0.764   0.2204     C
C        0.191   0.9628   0.7727     C
C       0.1912   0.2194   0.4714     C
N       0.1934   0.1305   0.6283     N
C       0.1939    0.387   0.7185     C
H       0.2012   0.7281   0.1947     H
C       0.2035   0.9071   0.7967     C
C       0.2064   0.1701   0.4391     C
H       0.2069    0.842   0.4778     H
N       0.2073   0.6446   0.7006     N
C       0.2074   0.4354    0.715     C
O       0.2089   0.2066    0.692     O
H       0.2103   0.8579   0.3827     H
H       0.2109   0.8629   0.9792     H
N       0.2122   0.8461   0.2307     N
C       0.2202   0.7963   0.9241     C
O       0.2218    0.265   0.5265     O
H       0.2218   0.9603   0.3929     H
C        0.223   0.0218   0.6827     C
O       0.2252   0.6899   0.6956     O
C       0.2266   0.2398   0.7672     C
H       0.2291   0.8817   0.0468     H
C       0.2298   0.0181    0.171     C
N       0.2303   0.9984   0.2246     N
C       0.2313   0.7926   0.1967     C
H       0.2315   0.3443   0.7126     H
H       0.2358   0.3955   0.5785     H
C       0.2368   0.0324   0.4046     C
N       0.2388   0.2161   0.4889     N
O       0.2391   0.7152    0.865     O
C       0.2406   0.9625   0.7115     C
C        0.242   0.8201   0.9559     C
C       0.2431   0.5377   0.6732     C
H        0.248   0.6012   0.8889     H
C       0.2485   0.8124   0.4401     C
H       0.2496   0.8436   0.5427     H
C       0.2503   0.8217   0.3838     C
H       0.2504   0.8307   0.6384     H
O       0.2517   0.8745   0.2066     O
H       0.2532   0.2657    0.823     H
Ho     0.25336  0.72003  0.76377    Ho
H       0.2534   0.4267   0.7083     H
N       0.2557   0.2069   0.7079     N
C        0.256    0.975   0.3764     C
O       0.2565   0.2884   0.6152     O
H       0.2597   0.9163   0.1058     H
C       0.2603   0.0856   0.6096     C
C       0.2605   0.5851   0.6688     C
N       0.2639    0.736    0.891     N
N       0.2664   0.8512   0.7606     N
O       0.2681    0.617   0.7808     O
C       0.2723   0.1126   0.4182     C
C       0.2733   0.2416   0.7829     C
H       0.2745   0.7744    0.156     H
H       0.2746   0.0077   0.1331     H
C       0.2752   0.8015   0.5493     C
O       0.2778   0.7972   0.7853     O
C       0.2779   0.7945   0.6055     C
C       0.2785   0.8592   0.0378     C
C       0.2798   0.0295   0.6348     C
H       0.2802   0.4958   0.6486     H
C       0.2829   0.3603   0.5505     C
C       0.2903   0.0521   0.3822     C
C       0.2955   0.5698   0.8568     C
O       0.2957   0.9609   0.2218     O
C       0.2967   0.8795   0.0729     C
H       0.2986    0.091   0.5764     H
N       0.3018   0.2978   0.5625     N
C       0.3041   0.1634   0.4652     C
C       0.3052   0.9049   0.6777     C
C       0.3069   0.7599   0.4436     C
C       0.3077   0.7505    0.504     C
N        0.308   0.7803   0.3295     N
O       0.3083   0.7924   0.2755     O
C       0.3091   0.7814   0.9536     C
H         0.31   0.5755   0.6434     H
N       0.3163    0.573    0.796     N
C       0.3182   0.8498   0.7023     C
H        0.319   0.4133    0.494     H
C       0.3196   0.1128   0.4307     C
N       0.3214   0.7338   0.6125     N
N       0.3222   0.9393   0.3259     N
H       0.3267   0.5176   0.9173     H
C        0.329   0.1722   0.6668     C
C       0.3297   0.8065    0.989     C
H       0.3298    0.998     0.62     H
C       0.3303   0.6993   0.8853     C
O       0.3308   0.7256   0.6615     O
C       0.3309   0.3704      0.5     C
H       0.3332   0.2447   0.8517     H
O       0.3396   0.8824   0.2991     O
H       0.3401   0.1615   0.4728     H
H       0.3412   0.9037   0.6366     H
C       0.3429   0.5207   0.8737     C
H       0.3481   0.1482    0.627     H
C       0.3483   0.2099   0.7429     C
C       0.3518    0.689    0.512     C
C       0.3535   0.7197    0.915     C
C       0.3568   0.6828   0.5657     C
C       0.3584   0.0127   0.3312     C
Ho     0.36089  0.84689  0.20156    Ho
H       0.3618   0.6576   0.8594     H
H       0.3632   0.8108   0.6788     H
H       0.3637   0.6809   0.2051     H
N       0.3641   0.8503   0.0633     N
C       0.3651   0.7294   0.3301     C
C        0.366   0.2485   0.5192     C
C       0.3664   0.7172   0.3856     C
H       0.3668   0.0755   0.4145     H
C       0.3747   0.1733   0.6852     C
O       0.3752   0.6553   0.7452     O
C       0.3752   0.9556   0.3028     C
H       0.3769   0.2059   0.5259     H
H       0.3777   0.6522   0.4801     H
C       0.3803   0.2345   0.8173     C
O       0.3805   0.8709   0.0995     O
H        0.383   0.4071   0.9191     H
C       0.3834   0.5293   0.7506     C
H       0.3862   0.6412   0.5707     H
H       0.3895   0.9949   0.1784     H
H       0.3947    0.025    0.315     H
H       0.3977   0.5326   0.7073     H
C       0.3996   0.3186   0.4547     C
C       0.3997   0.2147   0.7558     C
O       0.3998   0.7539   0.1372     O
H       0.4008   0.6921     0.91     H
C       0.4031   0.7757   0.9784     C
H       0.4058    0.701   0.2912     H
H       0.4071   0.6802   0.3851     H
C       0.4114   0.4776   0.8289     C
H       0.4122   0.0561   0.0984     H
C       0.4154    0.663   0.1816     C
C       0.4163   0.2566   0.4658     C
H       0.4174   0.2504   0.8712     H
H       0.4185   0.7295   0.7494     H
C       0.4187   0.7992   0.0155     C
H       0.4227   0.9282    0.268     H
C       0.4253   0.9743   0.1354     C
H       0.4262   0.1481   0.6577     H
C       0.4296   0.2395   0.8289     C
C       0.4308   0.4817    0.764     C
H       0.4318    0.107   0.0305     H
N       0.4339   0.6571   0.6977     N
C       0.4343   0.3889   0.8912     C
H       0.4372    0.799    0.316     H
C       0.4391   0.0105   0.0875     C
H         0.44   0.4052   0.4473     H
H       0.4408   0.5822   0.2195     H
H       0.4411   0.7389   0.9457     H
N       0.4453   0.6934   0.1394     N
C       0.4474   0.7019   0.7092     C
O       0.4509   0.8755   0.1643     O
C       0.4526   0.3305      0.4     C
H       0.4569   0.1661   0.9503     H
O       0.4604    0.764   0.2086     O
C       0.4611   0.6051   0.1904     C
C       0.4616   0.4207   0.8438     C
H       0.4619   0.2206   0.4369     H
H       0.4622   0.5873   0.6358     H
N       0.4638     0.91   0.1192     N
H       0.4649   0.3076   0.9269     H
C       0.4654   0.2034   0.7083     C
H       0.4676   0.7796   0.0076     H
C       0.4689   0.3767   0.4076     C
C       0.4697   0.0848   0.9883     C
C       0.4734   0.6183   0.6419     C
H       0.4773   0.4504   0.7307     H
H       0.4788   0.1907    0.666     H
H       0.4816   0.2651   0.3341     H
C       0.4831   0.3308   0.8966     C
C       0.4838   0.7904   0.2818     C
C       0.4841   0.1204   0.9404     C
C       0.4921   0.9806   0.0234     C
C       0.4935   0.2949   0.3416     C
N       0.4938   0.2288   0.7799     N
N       0.5062   0.7712   0.2201     N
C       0.5065   0.7051   0.6584     C
C       0.5079   0.0194   0.9766     C
C       0.5159   0.8796   0.0596     C
C       0.5162   0.2096   0.7182     C
C       0.5169   0.6692   0.1034     C
H       0.5184   0.7349   0.6659     H
H       0.5212   0.8093    0.334     H
H       0.5227   0.5496   0.2693     H
C       0.5266   0.3817   0.3581     C
C       0.5303   0.9152   0.0117     C
C       0.5311   0.6233   0.5924     C
H       0.5324   0.2204   0.9924     H
C       0.5346   0.7966   0.2917     C
H       0.5351   0.6924   0.0731     H
N       0.5362     0.09   0.8808     N
H       0.5378   0.4127   0.3642     H
H       0.5381   0.7794   0.5631     H
C       0.5384   0.5793   0.1562     C
C       0.5389   0.3949   0.8096     C
O       0.5396    0.236   0.7914     O
H       0.5431   0.8339   0.0497     H
C       0.5474   0.6695      0.6     C
O       0.5491   0.1245   0.8357     O
C       0.5526   0.2981   0.2908     C
N       0.5547   0.3066   0.8606     N
H       0.5589   0.2611   0.0543     H
H       0.5592   0.4178   0.7805     H
H         0.56   0.5948   0.5527     H
C       0.5609   0.9895   0.9125     C
H       0.5628    0.201    0.684     H
C       0.5657   0.6111   0.1088     C
N       0.5661   0.3429   0.3023     N
H       0.5682    0.893   0.9695     H
C       0.5692   0.5183    0.236     C
C       0.5704   0.7605   0.1711     C
H       0.5738   0.8519   0.3423     H
C       0.5747   0.0257   0.8646     C
H       0.5773   0.0718    0.732     H
C       0.5813   0.2008   0.9845     C
H       0.5815   0.2705   0.2506     H
H       0.5826   0.7496   0.1288     H
C       0.5837   0.7434   0.5342     C
C       0.5846    0.337   0.8184     C
H       0.5878   0.9439   0.9016     H
C       0.5886   0.5224   0.1711     C
H       0.5929   0.3198   0.6149     H
H       0.5942    0.299   0.7088     H
C       0.5969   0.2243   0.0216     C
H       0.5992   0.3079     0.09     H
O       0.6002   0.2461   0.8628     O
C       0.6003   0.7853   0.2442     C
C       0.6004   0.6814   0.5453     C
H       0.6023   0.4674   0.2927     H
H       0.6053    0.975    0.685     H
H       0.6105   0.0051   0.8216     H
H       0.6138   0.3588   0.4293     H
C       0.6166   0.4707   0.2494     C
H        0.617   0.5929   0.0809     H
O       0.6195   0.1291   0.9005     O
C       0.6197   0.7655   0.1827     C
H       0.6223   0.3478   0.5199     H
H       0.6231   0.7941   0.4741     H
C       0.6248   0.0444   0.6972     C
O       0.6248   0.3447   0.2548     O
C       0.6253   0.8267   0.3148     C
H       0.6332   0.9245   0.5855     H
C       0.6336   0.2828   0.6144     C
C        0.634   0.7515   0.4808     C
C       0.6349   0.2706   0.6699     C
N       0.6359   0.1497   0.9367     N
H       0.6363   0.3191   0.7949     H
H       0.6368   0.1892   0.3212     H
H       0.6382   0.3424   0.1406     H
Ho     0.63911  0.15311  0.79844    Ho
C       0.6416   0.9873   0.6688     C
C       0.6432   0.3172   0.4343     C
C       0.6465   0.2803    0.085     C
C       0.6482    0.311    0.488     C
C       0.6517   0.7901   0.2571     C
H       0.6519   0.8518    0.373     H
C       0.6571   0.4793   0.1263     C
H       0.6588   0.0963   0.3634     H
H       0.6599   0.8385   0.5272     H
O       0.6604   0.1176   0.7009     O
H       0.6668   0.7553   0.1483     H
C       0.6691   0.6296      0.5     C
O       0.6692   0.2744   0.3385     O
C       0.6697   0.3007   0.1147     C
H       0.6702    0.002     0.38     H
C       0.6703   0.1935    0.011     C
C        0.671   0.8278   0.3332     C
H       0.6733   0.4824   0.0827     H
N       0.6778   0.0607   0.6741     N
N       0.6786   0.2662   0.3875     N
C       0.6804   0.8872   0.5693     C
H        0.681   0.5867    0.506     H
C       0.6818   0.1502   0.2977     C
N       0.6837    0.427    0.204     N
H         0.69   0.4245   0.3566     H
C       0.6909   0.2186   0.0464     C
O       0.6917   0.2076   0.7245     O
N        0.692   0.2197   0.6705     N
C       0.6923   0.2495    0.496     C
C       0.6931   0.2401   0.5564     C
C       0.6948   0.0951   0.3223     C
C       0.6959   0.8366   0.5348     C
N       0.6982   0.7022   0.4375     N
H       0.7014    0.909   0.4236     H
C       0.7033   0.1205   0.9271     C
O       0.7043   0.0391   0.7782     O
C       0.7045   0.4302   0.1432     C
C       0.7097   0.9479   0.6178     C
C       0.7171   0.6397   0.4495     C
H       0.7198   0.5042   0.3514     H
C       0.7202   0.9705   0.3652     C
C       0.7215   0.1408   0.9622     C
C       0.7221   0.2055   0.3945     C
O       0.7222   0.2028   0.2147     O
C       0.7248   0.1985   0.4507     C
H       0.7254   0.9923   0.8669     H
H       0.7255   0.2256    0.844     H
C       0.7267   0.7584   0.2171     C
C       0.7277   0.8874   0.5818     C
O       0.7319    0.383   0.2192     O
N       0.7336   0.1488   0.2394     N
N       0.7361    0.264    0.109     N
C       0.7395   0.4149   0.3312     C
C       0.7397   0.9144   0.3904     C
H       0.7403   0.0837   0.8942     H
O       0.7435   0.7116   0.3848     O
C        0.744    0.025   0.6236     C
N       0.7443   0.7931   0.2921     N
H       0.7466   0.5733   0.2917     H
Ho     0.74664  0.27997  0.23623    Ho
H       0.7468   0.7343    0.177     H
O       0.7483   0.1255   0.7934     O
H       0.7496   0.1693   0.3616     H
C       0.7497   0.1783   0.6162     C
H       0.7504   0.1564   0.4573     H
C       0.7515   0.1876   0.5599     C
H        0.752   0.3988   0.1111     H
C       0.7569   0.4623   0.3268     C
C        0.758   0.1799   0.0441     C
C       0.7594   0.0375   0.2885     C
O       0.7609   0.2848    0.135     O
N       0.7612   0.7839   0.5111     N
C       0.7632   0.9676   0.5954     C
H       0.7642   0.6045   0.4215     H
H       0.7685   0.6557   0.2874     H
C       0.7687   0.2074   0.8033     C
N       0.7697   0.0016   0.7754     N
C       0.7702   0.9819    0.829     C
H       0.7709   0.1183   0.9532     H
C       0.7734   0.7602   0.2328     C
O       0.7748   0.3101   0.3044     O
C        0.777   0.9782   0.3173     C
H       0.7782   0.0397   0.6071     H
O       0.7782    0.735   0.4735     O
C       0.7798   0.2037   0.0759     C
N       0.7878   0.1539   0.7693     N
H       0.7891   0.1371   0.0208     H
H       0.7897   0.1421   0.6173     H
O       0.7911   0.7934    0.308     O
C       0.7926   0.5646    0.285     C
N       0.7927   0.3554   0.2994     N
H       0.7931    0.158   0.5222     H
C       0.7936   0.8299   0.5609     C
C       0.7965   0.0929   0.2033     C
H       0.7988   0.2719   0.8053     H
C       0.8061    0.613   0.2815     C
N       0.8066   0.8695   0.3717     N
C       0.8088   0.7806   0.5286     C
C        0.809   0.0372   0.2273     C
C       0.8112    0.236   0.7796     C
H       0.8115   0.9409   0.5612     H
H       0.8197   0.6227   0.5023     H
O       0.8217   0.8177   0.3967     O
O       0.8243     0.18   0.2512     O
H       0.8246   0.7393   0.2036     H
H       0.8257   0.1771    0.074     H
H       0.8272   0.9968   0.6842     H
H       0.8284    0.827   0.5708     H
C       0.8297   0.4491    0.286     C
C       0.8299   0.9841   0.7212     C
H       0.8314   0.0924   0.1619     H
H       0.8336   0.9363   0.8673     H
C       0.8343   0.9475   0.8287     C
C       0.8455   0.5015   0.2788     C
Ho     0.84706  0.71697  0.35933    Ho
C       0.8472    0.129   0.7103     C
C       0.8475   0.9308   0.2966     C
H       0.8522   0.9979   0.2017     H
H       0.8526    0.326   0.7491     H
H       0.8535   0.7415   0.5167     H
H       0.8552   0.2085   0.3253     H
H       0.8593   0.0917   0.6868     H
C       0.8625   0.3402   0.2609     C
C       0.8626    0.877   0.3229     C
O       0.8677   0.2597   0.1709     O
H       0.8695   0.3576   0.1275     H
C       0.8712   0.5942   0.4801     C
N       0.8718    0.603   0.2698     N
C       0.8727   0.2129   0.7178     C
O       0.8781   0.6143   0.3826     O
H       0.8796   0.5702   0.5578     H
O       0.8826   0.6531   0.2678     O
C       0.8836   0.3862   0.2513     C
H       0.8855   0.8103   0.2218     H
H       0.8867   0.9352   0.2634     H
C       0.8899   0.1562   0.6839     C
N       0.8902   0.1577   0.2439     N
C       0.8929   0.3223   0.0949     C
N       0.8974   0.2649   0.1105     N
C       0.8975   0.1767   0.2893     C
H       0.8985   0.2969   0.2398     H
C       0.8989   0.9463   0.7168     C
C       0.9004   0.3001    0.714     C
C       0.9025   0.9276   0.7721     C
C       0.9069   0.5618   0.5127     C
N       0.9108   0.5849   0.4155     N
H       0.9122   0.8441   0.3075     H
C       0.9129   0.4931   0.2651     C
H       0.9151   0.3758   0.9233     H
H       0.9168   0.7932   0.4283     H
H       0.9187   0.3684   0.0225     H
C       0.9199   0.2413   0.6901     C
C       0.9216   0.3287   0.0334     C
C       0.9262   0.5431   0.2607     C
H       0.9272   0.8119   0.1171     H
C       0.9281   0.7732   0.1915     C
C       0.9283   0.2158   0.0657     C
H       0.9291   0.1769   0.0773     H
H       0.9299   0.5175   0.6087     H
H       0.9317   0.1374   0.6424     H
H       0.9328   0.3756   0.2221     H
H       0.9332   0.3644   0.7082     H
O         0.94   0.6874   0.3855     O
H       0.9404    0.938   0.8556     H
H       0.9426   0.9334    0.677     H
O       0.9432   0.7222   0.2741     O
H       0.9439   0.1043   0.1582     H
C       0.9479   0.3237   0.6888     C
C       0.9495    0.116   0.1907     C
H       0.9514   0.4507   0.2584     H
C        0.952   0.7739   0.1301     C
C       0.9547   0.3371   0.8938     C
C       0.9568   0.2747   0.9842     C
C       0.9594   0.2204   0.0023     C
H         0.96   0.3736   0.8162     H
N       0.9629   0.7212    0.212     N
C       0.9635    0.769   0.3914     C
C       0.9649   0.1509   0.2843     C
H       0.9698   0.1637   0.3168     H
C       0.9723   0.8956   0.7712     C
H       0.9727   0.5355   0.2516     H
C         0.98    0.518   0.4827     C
C       0.9806   0.3354   0.8311     C
C       0.9814    0.489   0.5854     C
C        0.982   0.9097    0.817     C
H       0.9831   0.1839   0.9708     H
C       0.9842    0.543   0.3842     C
N       0.9854   0.7099    0.363     N
C       0.9874   0.2799   0.9155     C
C       0.9889   0.2086   0.6353     C
H       0.9889   0.4632   0.6609     H
H       0.9967   0.8319   0.3845     H
