data_I
_chemical_name_common  '/home/zhangsd/repos/MofS-CGCNN/ML/data/SSD/clean_cifs/BOCTOE_clean'
_cell_length_a  8.41360
_cell_length_b  9.24740
_cell_length_c 12.80740
_cell_angle_alpha 90.00000
_cell_angle_beta  105.96900
_cell_angle_gamma 90.00000
_space_group_name_H-M_alt      'P 1'


loop_
_space_group_symop_operation_xyz
  'x, y, z' 

loop_
_atom_site_label
_atom_site_fract_x
_atom_site_fract_y
_atom_site_fract_z
_atom_site_type_symbol
N          0.0      0.0      0.0     N
N          0.0      0.0      0.5     N
N          0.0      0.5      0.0     N
N          0.0      0.5      0.5     N
N      0.04194  0.62059  0.01788     N
N      0.04194  0.87941  0.51788     N
N      0.10713  0.55291  0.47102     N
N      0.10713  0.94709  0.97102     N
N       0.2123  0.69185  0.83564     N
N       0.2123  0.80815  0.33564     N
Mn     0.25696  0.74836  0.01037    Mn
Mn     0.25696  0.75164  0.51037    Mn
N      0.26914  0.69827  0.76201     N
N      0.26914  0.80173  0.26201     N
N      0.32612  0.70113  0.68829     N
N      0.32612  0.79887  0.18829     N
N      0.42867  0.55836  0.05509     N
N      0.42867  0.94164  0.55509     N
N      0.48179  0.62542  0.50632     N
N      0.48179  0.87458  0.00632     N
N          0.5      0.0      0.0     N
N          0.5      0.0      0.5     N
N          0.5      0.5      0.0     N
N          0.5      0.5      0.5     N
N      0.51821  0.12542  0.99368     N
N      0.51821  0.37458  0.49368     N
N      0.57133  0.05836  0.44491     N
N      0.57133  0.44164  0.94491     N
N      0.67388  0.20113  0.81171     N
N      0.67388  0.29887  0.31171     N
N      0.73086  0.19827  0.73799     N
N      0.73086  0.30173  0.23799     N
Mn     0.74304  0.24836  0.48963    Mn
Mn     0.74304  0.25164  0.98963    Mn
N       0.7877  0.19185  0.66436     N
N       0.7877  0.30815  0.16436     N
N      0.89287  0.05291  0.02898     N
N      0.89287  0.44709  0.52898     N
N      0.95806  0.12059  0.48212     N
N      0.95806  0.37941  0.98212     N
