data_I
_chemical_name_common  '/home/zhangsd/repos/MofS-CGCNN/ML/data/SSD/clean_cifs/BOCTOE02_clean'
_cell_length_a  8.43770
_cell_length_b  9.30150
_cell_length_c 12.84800
_cell_angle_alpha 90.00000
_cell_angle_beta  105.56600
_cell_angle_gamma 90.00000
_space_group_name_H-M_alt      'P 1'


loop_
_space_group_symop_operation_xyz
  'x, y, z' 

loop_
_atom_site_label
_atom_site_fract_x
_atom_site_fract_y
_atom_site_fract_z
_atom_site_type_symbol
N          0.0      0.0      0.0     N
N          0.0      0.0      0.5     N
N          0.0      0.5      0.0     N
N          0.0      0.5      0.5     N
N      0.04234  0.61953  0.01655     N
N      0.04234  0.88047  0.51655     N
N      0.10512  0.55468  0.47111     N
N      0.10512  0.94532  0.97111     N
N      0.21297  0.69487  0.83538     N
N      0.21297  0.80513  0.33538     N
Mn     0.25629  0.74864   0.0099    Mn
Mn     0.25629  0.75136   0.5099    Mn
N      0.26717  0.70128  0.76128     N
N      0.26717  0.79872  0.26128     N
N      0.32199  0.70327   0.6872     N
N      0.32199  0.79673   0.1872     N
N       0.4277  0.55994  0.05307     N
N       0.4277  0.94006  0.55307     N
N      0.47992  0.62399  0.50714     N
N      0.47992  0.87601  0.00714     N
N          0.5      0.0      0.0     N
N          0.5      0.0      0.5     N
N          0.5      0.5      0.0     N
N          0.5      0.5      0.5     N
N      0.52008  0.12399  0.99286     N
N      0.52008  0.37601  0.49286     N
N       0.5723  0.05994  0.44693     N
N       0.5723  0.44006  0.94693     N
N      0.67801  0.20327   0.8128     N
N      0.67801  0.29673   0.3128     N
N      0.73283  0.20128  0.73872     N
N      0.73283  0.29872  0.23872     N
Mn     0.74371  0.24864   0.4901    Mn
Mn     0.74371  0.25136   0.9901    Mn
N      0.78703  0.19487  0.66462     N
N      0.78703  0.30513  0.16462     N
N      0.89488  0.05468  0.02889     N
N      0.89488  0.44532  0.52889     N
N      0.95766  0.11953  0.48345     N
N      0.95766  0.38047  0.98345     N
