data_I
_chemical_name_common  '/home/zhangsd/repos/MofS-CGCNN/ML/data/SSD/clean_cifs/BONWAD_clean'
_cell_length_a  9.02900
_cell_length_b 10.93400
_cell_length_c 13.14600
_cell_angle_alpha 90.03100
_cell_angle_beta  90.00000
_cell_angle_gamma 90.00000
_space_group_name_H-M_alt      'P 1'


loop_
_space_group_symop_operation_xyz
  'x, y, z' 

loop_
_atom_site_label
_atom_site_fract_x
_atom_site_fract_y
_atom_site_fract_z
_atom_site_type_symbol
Zn     0.01306  0.76547  0.57147    Zn
O       0.0455  0.98723  0.27463     O
C       0.0645   0.5529  0.69648     C
C       0.0653   0.9454  0.74277     C
C       0.0969  0.42327  0.27598     C
H       0.1022   0.0151   0.8884     H
O      0.10636   0.8611   0.6861     O
H       0.1072   0.4127   0.2023     H
O      0.12155  0.46626  0.74596     O
O       0.1224  0.33828  0.52853     O
O      0.12574  0.61186  0.62741     O
H       0.1406   0.7831   0.8732     H
O      0.14171  0.88934  0.05314     O
H       0.1495   0.5628   0.3759     H
O      0.15236  0.31729  0.32845     O
C        0.158    0.968  0.83787     C
O       0.1873  0.74164  0.27343     O
C       0.1921   0.5313  0.31257     C
Zn     0.19417  0.89448  0.19694    Zn
C       0.1987   0.6353  0.23555     C
O       0.2127  0.61343  0.14479     O
C       0.2146   0.8475  0.88325     C
C       0.2491  0.35922  0.49663     C
C       0.2509  0.85922  0.99663     C
C       0.2854   0.3475  0.38325     C
O       0.2873  0.11343  0.64479     O
C       0.3013   0.1353  0.73555     C
Zn     0.30583  0.39448  0.69694    Zn
C       0.3079   0.0313  0.81257     C
O       0.3127  0.24164  0.77343     O
C        0.342    0.468  0.33787     C
O      0.34764  0.81729  0.82845     O
H       0.3505   0.0628   0.8759     H
O      0.35829  0.38934  0.55314     O
H       0.3594   0.2831   0.3732     H
O      0.37426  0.11186  0.12741     O
O       0.3776  0.83828  0.02853     O
O      0.37845  0.96626  0.24596     O
H       0.3928   0.9127   0.7023     H
O      0.39364   0.3611   0.1861     O
H       0.3978   0.5151   0.3884     H
C       0.4031  0.92327  0.77598     C
C       0.4347   0.4454  0.24277     C
C       0.4355   0.0529  0.19648     C
O       0.4545  0.48723  0.77463     O
Zn     0.48694  0.26547  0.07147    Zn
Zn     0.51306  0.73453  0.92853    Zn
O       0.5455  0.51277  0.22537     O
C       0.5645   0.9471  0.80352     C
C       0.5653   0.5546  0.75723     C
C       0.5969  0.07673  0.22402     C
H       0.6022   0.4849   0.6116     H
O      0.60636   0.6389   0.8139     O
H       0.6072   0.0873   0.2977     H
O      0.62155  0.03374  0.75404     O
O       0.6224  0.16172  0.97147     O
O      0.62574  0.88814  0.87259     O
H       0.6406   0.7169   0.6268     H
O      0.64171  0.61066  0.44686     O
H       0.6495   0.9372   0.1241     H
O      0.65236  0.18271  0.17155     O
C        0.658    0.532  0.66213     C
O       0.6873  0.75836  0.22657     O
C       0.6921   0.9687  0.18743     C
Zn     0.69417  0.60552  0.30306    Zn
C       0.6987   0.8647  0.26445     C
O       0.7127  0.88657  0.35521     O
C       0.7146   0.6525  0.61675     C
C       0.7491  0.14078  0.00337     C
C       0.7509  0.64078  0.50337     C
C       0.7854   0.1525  0.11675     C
O       0.7873  0.38657  0.85521     O
C       0.8013   0.3647  0.76445     C
Zn     0.80583  0.10552  0.80306    Zn
C       0.8079   0.4687  0.68743     C
O       0.8127  0.25836  0.72657     O
C        0.842    0.032  0.16213     C
O      0.84764  0.68271  0.67155     O
H       0.8505   0.4372   0.6241     H
O      0.85829  0.11066  0.94686     O
H       0.8594   0.2169   0.1268     H
O      0.87426  0.38814  0.37259     O
O       0.8776  0.66172  0.47147     O
O      0.87845  0.53374  0.25404     O
H       0.8928   0.5873   0.7977     H
O      0.89364   0.1389   0.3139     O
H       0.8978   0.9849   0.1116     H
C       0.9031  0.57673  0.72402     C
C       0.9347   0.0546  0.25723     C
C       0.9355   0.4471  0.30352     C
O       0.9545  0.01277  0.72537     O
Zn     0.98694  0.23453  0.42853    Zn
