data_I
_chemical_name_common  '/home/zhangsd/repos/MofS-CGCNN/ML/data/SSD/clean_cifs/BUSNAF_clean'
_cell_length_a 10.12600
_cell_length_b 15.98920
_cell_length_c 15.98920
_cell_angle_alpha 64.33210
_cell_angle_beta  77.81310
_cell_angle_gamma 102.18700
_space_group_name_H-M_alt      'P 1'


loop_
_space_group_symop_operation_xyz
  'x, y, z' 

loop_
_atom_site_label
_atom_site_fract_x
_atom_site_fract_y
_atom_site_fract_z
_atom_site_type_symbol
Co         0.0      0.5      0.5    Co
H       0.0034   0.6538   0.0375     H
H       0.0114    0.226   0.1775     H
H       0.0219   0.3961   0.3709     H
C       0.0281   0.5635    0.658     C
H       0.0334   0.9393   0.3977     H
H       0.0409   0.0375   0.3087     H
N       0.0428   0.4972   0.6316     N
C       0.0618    0.837   0.6311     C
H       0.0677   0.6245   0.7412     H
H       0.0731   0.9537   0.2909     H
N       0.0738   0.8808   0.5348     N
C       0.0739   0.2313   0.2869     C
C       0.0819   0.5768   0.7253     C
C       0.0824   0.9863   0.3286     C
C       0.0874   0.2556   0.1909     C
H       0.0941    0.663   0.9393     H
C       0.0961   0.6851   0.9863     C
H       0.1085   0.7338   0.4034     H
C       0.1114   0.4381   0.6775     C
H       0.1194   0.7554   0.9537     H
H       0.1207   0.3891   0.6624     H
C       0.1574   0.5182   0.7687     C
N        0.158  0.44298  0.47948     N
N       0.1667  0.35091  0.50831     N
C       0.1682   0.4465   0.7444     C
H       0.1801   0.7152   0.1199     H
N      0.18421  0.85922  0.64909     N
H       0.1889   0.1775   0.5965     H
N       0.1908   0.6306   0.4139     N
H       0.1911   0.2588   0.3657     H
C       0.1928   0.2747   0.3021     C
N        0.193   0.5844   0.8808     N
C       0.1945   0.7222   0.3891     C
C       0.2087   0.6578   0.0316     C
C       0.2111   0.3225   0.1156     C
H       0.2146   0.4035    0.774     H
C       0.2159   0.9347   0.4918     C
H       0.2169   0.3376   0.0515     H
C       0.2248   0.5319    0.837     C
C       0.2332   0.6816   0.1007     C
C       0.2403   0.0316   0.3106     C
H       0.2684   0.0515   0.6109     H
C       0.2783   0.1909   0.5535     C
C       0.2812   0.5735   0.9347     C
N      0.28498  0.92246  0.55702     N
C       0.2923   0.5082   0.4265     C
C       0.2932   0.6088   0.0045     C
C       0.2977   0.0045   0.3867     C
H          0.3   0.1199   0.1649     H
C       0.3071   0.3689   0.4681     C
C       0.3139    0.342   0.2215     C
C       0.3156   0.6133   0.3912     C
C       0.3215   0.7997    0.343     C
H       0.3226   0.8628   0.3284     H
N      0.32499  0.49169  0.85922     N
N       0.3256   0.3684   0.1288     N
C       0.3267   0.1156   0.5619     C
C       0.3339   0.1007   0.2177     C
C       0.3355    0.657   0.1427     C
H        0.349   0.6716   0.1912     H
H       0.3496   0.3087   0.6538     H
C       0.3608   0.2869   0.4818     C
N      0.36252  0.52052  0.92246     N
H        0.364   0.2909   0.7554     H
H       0.3742    0.767   0.6039     H
H       0.3747   0.8628   0.7338     H
N       0.3914   0.4652   0.4156     N
H       0.3928   0.3709    0.233     H
N       0.3953   0.5861   0.0445     N
C        0.411   0.3286   0.6851     C
C       0.4164   0.6109   0.1113     C
H       0.4311   0.3977    0.663     H
N       0.4398   0.0445   0.3694     N
H       0.4432   0.6343   0.6245     H
C       0.4484   0.7823   0.3184     C
C       0.4491   0.6894   0.3422     C
N       0.4544   0.1288   0.5028     N
H       0.4598   0.8088   0.8628     H
C       0.4646   0.7785   0.5635     C
H       0.4649   0.1649   0.7152     H
C       0.4723   0.8887   0.7222     C
C       0.4782   0.1427   0.2003     C
H       0.4881   0.5966   0.1372     H
C       0.4949   0.3021   0.4232     C
Co         0.5      0.5     -0.0    Co
Co         0.5      1.0      0.5    Co
C       0.5051   0.6979   0.5768     C
H       0.5119   0.4034   0.8628     H
C       0.5218   0.8573   0.7997     C
C       0.5277   0.1113   0.2778     C
H       0.5351   0.8351   0.2848     H
C       0.5354   0.2215   0.4365     C
H       0.5402   0.1912   0.1372     H
N       0.5456   0.8712   0.4972     N
C       0.5509   0.3106   0.6578     C
C       0.5516   0.2177   0.6816     C
H       0.5568   0.3657   0.3755     H
N       0.5602   0.9555   0.6306     N
H       0.5689   0.6023    0.337     H
C       0.5836   0.3891   0.8887     C
C        0.589   0.6714   0.3149     C
N       0.6047   0.4139   0.9555     N
H       0.6072   0.6291    0.767     H
N       0.6086   0.5348   0.5844     N
H       0.6253   0.1372   0.2662     H
H       0.6258    0.233   0.3961     H
H        0.636   0.7091   0.2446     H
N      0.63748  0.47948  0.07754     N
C       0.6392   0.7131   0.5182     C
H       0.6504   0.6913   0.3462     H
H        0.651   0.3284   0.8088     H
C       0.6645    0.343   0.8573     C
C       0.6661   0.8993   0.7823     C
C       0.6733   0.8844   0.4381     C
N       0.6744   0.6316   0.8712     N
N      0.67501  0.50831  0.14078     N
H       0.6774   0.1372   0.6716     H
C       0.6785   0.2003    0.657     C
C       0.6844   0.3867   0.6088     C
C       0.6861    0.658   0.7785     C
C       0.6929   0.6311   0.5319     C
H          0.7   0.8801   0.8351     H
C       0.7023   0.9955   0.6133     C
C       0.7068   0.3912   0.9955     C
C       0.7077   0.4918   0.5735     C
N      0.71502  0.07754  0.44298     N
C       0.7188   0.4265   0.0653     C
C       0.7217   0.8091   0.4465     C
H       0.7316   0.9485   0.3891     H
C       0.7597   0.9684   0.6894     C
C       0.7668   0.3184   0.8993     C
C       0.7752   0.4681    0.163     C
H       0.7831   0.6624   0.9485     H
C       0.7841   0.0653   0.5082     C
H       0.7854   0.5965    0.226     H
C       0.7889   0.6775   0.8844     C
C       0.7913   0.3422   0.9684     C
C       0.8055   0.2778   0.6109     C
N        0.807   0.4156   0.1192     N
C       0.8072   0.7253   0.6979     C
H       0.8089   0.7412   0.6343     H
N       0.8092   0.3694   0.5861     N
H       0.8111   0.8225   0.4035     H
N      0.81579  0.14078  0.35091     N
H       0.8199   0.2848   0.8801     H
C       0.8318   0.5535   0.2556     C
N       0.8333  0.64909  0.49169     N
N        0.842  0.55702  0.52052     N
C       0.8426   0.4818   0.2313     C
H       0.8793   0.6109   0.3376     H
H       0.8806   0.2446   0.0463     H
C       0.8886   0.5619   0.3225     C
H       0.8915   0.2662   0.5966     H
C       0.9039   0.3149   0.0137     C
H       0.9059    0.337   0.0607     H
C       0.9126   0.7444   0.8091     C
C       0.9176   0.0137   0.6714     C
C       0.9181   0.4232   0.2747     C
C       0.9261   0.7687   0.7131     C
N       0.9262   0.1192   0.4652     N
H       0.9269   0.0463   0.7091     H
H       0.9323   0.3755   0.2588     H
C       0.9382    0.163   0.3689     C
N       0.9572   0.5028   0.3684     N
H       0.9591   0.9625   0.6913     H
H       0.9666   0.0607   0.6023     H
C       0.9719   0.4365    0.342     C
H       0.9781   0.6039   0.6291     H
H       0.9886    0.774   0.8225     H
H       0.9966   0.3462   0.9625     H
