data_I
_chemical_name_common  '/home/zhangsd/repos/MofS-CGCNN/ML/data/SSD/clean_cifs/CAKXUJ_clean'
_cell_length_a  7.95900
_cell_length_b  9.66400
_cell_length_c 15.84400
_cell_angle_alpha 90.00000
_cell_angle_beta  90.00000
_cell_angle_gamma 96.48900
_space_group_name_H-M_alt      'P 1'


loop_
_space_group_symop_operation_xyz
  'x, y, z' 

loop_
_atom_site_label
_atom_site_fract_x
_atom_site_fract_y
_atom_site_fract_z
_atom_site_type_symbol
H       0.0314  0.31504  0.61209     H
O       0.0499  0.29287  0.42919     O
C       0.0584   0.4229  0.41857     C
Tb     0.07706  0.86668  0.67293    Tb
C        0.085   0.5264  0.63222     C
C       0.0903   0.9904  0.48474     C
C       0.1033   0.3856  0.64137     C
H      0.11737  0.84707  0.24853     H
O       0.1198   0.3126  0.26121     O
O       0.1255  0.02308  0.40965     O
O       0.1482  0.11009  0.68929     O
N       0.1653   0.0491  0.23339     N
O       0.1727   0.5114  0.44318     O
N       0.1869   0.6243  0.67181     N
O       0.1875   0.9431  0.53632     O
C       0.1916   0.9177  0.22056     C
C       0.2296   0.3527  0.69439     C
C        0.245   0.2959  0.21622     C
C        0.255   0.2041  0.71622     C
C       0.2704   0.1473  0.19439     C
C       0.3084   0.5823  0.72056     C
O       0.3125   0.5569  0.03632     O
N       0.3131   0.8757  0.17181     N
O       0.3273   0.9886  0.94318     O
N       0.3347   0.4509  0.73339     N
O       0.3518  0.38991  0.18929     O
O       0.3745  0.47692  0.90965     O
O       0.3802   0.1874  0.76121     O
H      0.38263  0.65293  0.74853     H
C       0.3967   0.1144  0.14137     C
C       0.4097   0.5096  0.98474     C
C        0.415   0.9736  0.13222     C
Tb     0.42294  0.63332  0.17293    Tb
C       0.4416   0.0771  0.91857     C
O       0.4501  0.20713  0.92919     O
H       0.4686  0.18496  0.11209     H
H       0.5314  0.81504  0.88791     H
O       0.5499  0.79287  0.07081     O
C       0.5584   0.9229  0.08143     C
Tb     0.57706  0.36668  0.82707    Tb
C        0.585   0.0264  0.86778     C
C       0.5903   0.4904  0.01526     C
C       0.6033   0.8856  0.85863     C
H      0.61737  0.34707  0.25147     H
O       0.6198   0.8126  0.23879     O
O       0.6255  0.52308  0.09035     O
O       0.6482  0.61009  0.81071     O
N       0.6653   0.5491  0.26661     N
O       0.6727   0.0114  0.05682     O
N       0.6869   0.1243  0.82819     N
O       0.6875   0.4431  0.96368     O
C       0.6916   0.4177  0.27944     C
C       0.7296   0.8527  0.80561     C
C        0.745   0.7959  0.28378     C
C        0.755   0.7041  0.78378     C
C       0.7704   0.6473  0.30561     C
C       0.8084   0.0823  0.77944     C
O       0.8125   0.0569  0.46368     O
N       0.8131   0.3757  0.32819     N
O       0.8273   0.4886  0.55682     O
N       0.8347   0.9509  0.76661     N
O       0.8518  0.88991  0.31071     O
O       0.8745  0.97692  0.59035     O
O       0.8802   0.6874  0.73879     O
H      0.88263  0.15293  0.75147     H
C       0.8967   0.6144  0.35863     C
C       0.9097   0.0096  0.51526     C
C        0.915   0.4736  0.36778     C
Tb     0.92294  0.13332  0.32707    Tb
C       0.9416   0.5771  0.58143     C
O       0.9501  0.70713  0.57081     O
H       0.9686  0.68496  0.38791     H
