data_I
_chemical_name_common  '/home/zhangsd/repos/MofS-CGCNN/ML/data/SSD/clean_cifs/CAKXIX_clean'
_cell_length_a  7.98100
_cell_length_b  9.72300
_cell_length_c 15.90900
_cell_angle_alpha 90.00000
_cell_angle_beta  90.00000
_cell_angle_gamma 96.29000
_space_group_name_H-M_alt      'P 1'


loop_
_space_group_symop_operation_xyz
  'x, y, z' 

loop_
_atom_site_label
_atom_site_fract_x
_atom_site_fract_y
_atom_site_fract_z
_atom_site_type_symbol
H       0.0314  0.31504  0.61209     H
O       0.0496    0.295  0.42882     O
C       0.0568   0.4243   0.4185     C
Eu      0.0787  0.86554  0.67323    Eu
C       0.0859   0.5251   0.6317     C
C       0.0899   0.9903   0.4841     C
C       0.1039   0.3851   0.6408     C
H      0.11737  0.84707  0.24853     H
O       0.1192   0.3133  0.26034     O
O        0.125   0.0236  0.41019     O
O       0.1484   0.1108  0.68944     O
N       0.1642   0.0508  0.23226     N
O       0.1718   0.5128  0.44291     O
O       0.1877   0.9432  0.53575     O
N       0.1882   0.6221  0.67081     N
C       0.1897   0.9195   0.2191     C
C       0.2308   0.3518   0.6937     C
C       0.2438    0.296   0.2156     C
C       0.2562    0.204   0.7156     C
C       0.2692   0.1482   0.1937     C
C       0.3103   0.5805   0.7191     C
N       0.3118   0.8779  0.17081     N
O       0.3123   0.5568  0.03575     O
O       0.3282   0.9872  0.94291     O
N       0.3358   0.4492  0.73226     N
O       0.3516   0.3892  0.18944     O
O        0.375   0.4764  0.91019     O
O       0.3808   0.1867  0.76034     O
H      0.38263  0.65293  0.74853     H
C       0.3961   0.1149   0.1408     C
C       0.4101   0.5097   0.9841     C
C       0.4141   0.9749   0.1317     C
Eu      0.4213  0.63446  0.17323    Eu
C       0.4432   0.0757   0.9185     C
O       0.4504    0.205  0.92882     O
H       0.4686  0.18496  0.11209     H
H       0.5314  0.81504  0.88791     H
O       0.5496    0.795  0.07118     O
C       0.5568   0.9243   0.0815     C
Eu      0.5787  0.36554  0.82677    Eu
C       0.5859   0.0251   0.8683     C
C       0.5899   0.4903   0.0159     C
C       0.6039   0.8851   0.8592     C
H      0.61737  0.34707  0.25147     H
O       0.6192   0.8133  0.23966     O
O        0.625   0.5236  0.08981     O
O       0.6484   0.6108  0.81056     O
N       0.6642   0.5508  0.26774     N
O       0.6718   0.0128  0.05709     O
O       0.6877   0.4432  0.96425     O
N       0.6882   0.1221  0.82919     N
C       0.6897   0.4195   0.2809     C
C       0.7308   0.8518   0.8063     C
C       0.7438    0.796   0.2844     C
C       0.7562    0.704   0.7844     C
C       0.7692   0.6482   0.3063     C
C       0.8103   0.0805   0.7809     C
N       0.8118   0.3779  0.32919     N
O       0.8123   0.0568  0.46425     O
O       0.8282   0.4872  0.55709     O
N       0.8358   0.9492  0.76774     N
O       0.8516   0.8892  0.31056     O
O        0.875   0.9764  0.58981     O
O       0.8808   0.6867  0.73966     O
H      0.88263  0.15293  0.75147     H
C       0.8961   0.6149   0.3592     C
C       0.9101   0.0097   0.5159     C
C       0.9141   0.4749   0.3683     C
Eu      0.9213  0.13446  0.32677    Eu
C       0.9432   0.5757   0.5815     C
O       0.9504    0.705  0.57118     O
H       0.9686  0.68496  0.38791     H
