data_I
_chemical_name_common  '/home/zhangsd/repos/MofS-CGCNN/ML/data/SSD/clean_cifs/CEJZAU_clean'
_cell_length_a 16.16520
_cell_length_b 16.16520
_cell_length_c 29.49640
_cell_angle_alpha 74.31600
_cell_angle_beta  74.31600
_cell_angle_gamma 63.78510
_space_group_name_H-M_alt      'P 1'


loop_
_space_group_symop_operation_xyz
  'x, y, z' 

loop_
_atom_site_label
_atom_site_fract_x
_atom_site_fract_y
_atom_site_fract_z
_atom_site_type_symbol
Co         0.0      0.0      0.0    Co
Co         0.0      0.0      0.5    Co
C      0.00473  0.35089  0.36461     C
O      0.00775  0.20543  0.97242     O
C      0.01791  0.91103  0.10311     C
H       0.0198   0.7174   0.1134     H
H       0.0203   0.4703   0.3311     H
C      0.03222   0.8623  0.18965     C
H       0.0326   0.1178   0.8027     H
Co     0.03762  0.81996   0.5809    Co
N      0.04412   0.2576  0.37445     N
H       0.0454   0.2718   0.4742     H
H       0.0503   0.6347   0.1876     H
C      0.05154   0.4054  0.33714     C
H       0.0524   0.7242   0.9543     H
O      0.05429  0.06979  0.38403     O
H       0.0543   0.8205   0.2572     H
O       0.0553  0.10744  0.47857     O
H       0.0583   0.6193   0.6229     H
O      0.06044  0.91036  0.06019     O
H       0.0639   0.8543   0.6745     H
O      0.06979  0.05429  0.88403     O
C      0.07491  0.86911  0.14198     C
C      0.08179  0.68357  0.11755     C
C      0.08354  0.82698  0.22541     C
H       0.0861   0.3111   0.9537     H
C      0.08793  0.14193   0.9728     C
C      0.08897  0.98209  0.39689     C
O      0.08964  0.93956  0.43981     O
O      0.09326  0.90012  0.96134     O
H       0.0974   0.3912   0.4558     H
C      0.09955  0.63395  0.16231     C
O      0.09988  0.90674  0.53866     O
H       0.1009   0.6627   0.8865     H
O      0.10744   0.0553  0.97857     O
C      0.10835  0.79341  0.67375     C
C      0.10923  0.25815  0.46622     C
O      0.10988  0.70924  0.54572     O
H       0.1144    0.481    0.238     H
C       0.1164  0.69562  0.94347     C
H       0.1178   0.0326   0.3027     H
H       0.1243   0.5483   0.5435     H
Co     0.12525  0.78939    0.017    Co
N       0.1256  0.75738  0.63527     N
C      0.13089  0.92509  0.35802     C
C      0.13327  0.21861  0.35567     C
H       0.1375   0.7765   0.7382     H
C       0.1377  0.96778  0.31035     C
C      0.14019  0.32961  0.45544     C
C      0.14193  0.08793   0.4728     C
C      0.14474   0.3637  0.31864     C
C      0.14495  0.65853  0.90276     C
H       0.1457   0.9361   0.8255     H
C      0.14759  0.26771  0.95401     C
N      0.14943  0.68539  0.07975     N
C      0.15208  0.74628  0.71258     C
H       0.1535   0.1623   0.8609     H
H       0.1597   0.7981   0.4001     H
C      0.16116  0.54192  0.51339     C
C      0.16191  0.82835  0.36837     C
H       0.1623   0.1535   0.3609     H
H       0.1647   0.4165   0.5129     H
C      0.16647  0.17279  0.96523     C
C      0.16743  0.47803  0.24624     C
C      0.16893  0.69617  0.50772     C
C      0.17165  0.83809  0.13163     C
C      0.17279  0.16647  0.46523     C
C      0.17302  0.91646  0.27459     C
H       0.1732   0.6812   0.8045     H
N      0.17484  0.69348  0.96879     N
C      0.17915  0.80087  0.21419     C
H       0.1795   0.9457   0.2428     H
Co     0.18004  0.96238   0.9191    Co
C      0.18463  0.46331  0.49495     C
C      0.18583  0.26807  0.32897     C
C        0.191   0.5831  0.16941     C
C      0.19151  0.61149  0.48781     C
C      0.19254    0.671  0.63601     C
C      0.19592  0.77652  0.33232     C
C       0.1973  0.42096  0.28835     C
C      0.19913  0.82085  0.28581     C
H       0.2019   0.8403   0.0999     H
O      0.20543  0.00775  0.47242     O
H        0.206    0.362   0.9356     H
C      0.20659  0.89165  0.82625     C
H       0.2095   0.6441   0.6089     H
Co     0.21061  0.87475    0.483    Co
O      0.21077  0.74817    0.485     O
C      0.21612  0.53046  0.21652     C
H       0.2166   0.7116   0.3396     H
C      0.21692   0.6553  0.71447     C
C      0.21861  0.13327  0.85567     C
C      0.21888  0.29828  0.94332     C
C      0.22348  0.80408  0.16768     C
H       0.2235   0.8625   0.7618     H
C      0.22906  0.62888  0.80071     C
O       0.2334   0.7666     0.25     O
C      0.23387  0.30895  0.44424     C
H       0.2367   0.2493   0.8179     H
C      0.23745  0.63263  0.08619     C
C      0.23781  0.45371   0.4499     C
C      0.23805  0.61901  0.67391     C
C      0.23934  0.61474  0.88566     C
N      0.24262   0.8744  0.86473     N
C      0.24583  0.60009  0.44254     C
H       0.2493   0.2367   0.3179     H
O      0.25183  0.78923    0.015     O
C      0.25372  0.84792  0.78742     C
N       0.2576  0.04412  0.87445     N
C      0.25815  0.10923  0.96622     C
C      0.26117  0.58165  0.12976     C
C      0.26473  0.60053  0.75652     C
C      0.26598   0.6476  0.95336     C
H       0.2676   0.6458   0.4249     H
C      0.26771  0.14759  0.45401     C
C      0.26783  0.52287  0.42341     C
C      0.26807  0.18583  0.82897     C
O       0.2712  0.37654  0.42847     O
H       0.2718   0.0454   0.9742     H
C      0.27511  0.58071  0.83935     C
C      0.27513  0.41743  0.30113     C
H       0.2758   0.9476   0.5457     H
H       0.2826   0.9802   0.3866     H
H       0.2834   0.5588    0.672     H
H       0.2853   0.6301   0.0599     H
H       0.2884   0.7834   0.1604     H
O      0.29076  0.89012  0.95428     O
C      0.29313  0.52825  0.23028     C
H       0.2964   0.3784   0.3288     H
C      0.29828  0.21888  0.44332     C
C       0.3005  0.60704  0.91319     C
H       0.3027   0.5173   0.3928     H
C      0.30383  0.83107  0.99228     C
C      0.30438   0.8836  0.55653     C
N      0.30652  0.82516  0.53121     N
H       0.3085   0.6429   0.9708     H
C      0.30895  0.23387  0.94424     C
H       0.3111   0.0861   0.4537     H
N      0.31461  0.85057  0.42025     N
C      0.31643  0.91821  0.38245     C
H       0.3188   0.8268   0.6955     H
C      0.32096  0.47296  0.27201     C
H       0.3237   0.5465   0.1326     H
H       0.3255   0.5643   0.2111     H
C        0.329  0.80746  0.86399     C
C      0.32961  0.14019  0.95544     C
H       0.3373   0.8991   0.6135     H
C      0.34147  0.85505  0.59724     C
C       0.3447  0.78308  0.78553     C
C      0.34695  0.52049   0.7517     C
C      0.35089  0.00473  0.86461     C
C       0.3524  0.73402  0.54664     C
H       0.3542   0.7324   0.0751     H
H       0.3559   0.7905   0.8911     H
H       0.3571   0.6915   0.5292     H
C      0.35766  0.50162  0.83368     C
H        0.362    0.206   0.4356     H
C       0.3637  0.14474  0.81864     C
H       0.3647   0.5745   0.9045     H
H       0.3653   0.9497   0.3124     H
C      0.36605  0.90045  0.33769     C
C      0.36737  0.76255  0.41381     C
H       0.3699   0.7147   0.4401     H
C      0.37112  0.77094  0.69929     C
H       0.3715   0.4997   0.7225     H
O      0.37654   0.2712  0.92847     O
H       0.3784   0.2964   0.8288     H
H       0.3807   0.9417   0.8771     H
C      0.38099  0.76195  0.82609     C
C      0.38526  0.76066  0.61434     C
C      0.38851  0.80849  0.01219     C
H       0.3897   0.4687   0.8591     H
H       0.3912   0.0974   0.9558     H
C      0.39165  0.47243  0.79024     C
C      0.39296   0.6995  0.58681     C
O       0.3954  0.47574  0.28594     O
C      0.39947  0.73527  0.74348     C
C      0.39991  0.75417  0.05746     C
C       0.4054  0.05154  0.83714     C
H       0.4165   0.1647   0.0129     H
C       0.4169    0.809  0.33059     C
C      0.41743  0.27513  0.80113     C
C      0.41835  0.73883  0.37024     C
C      0.41929  0.72489  0.66065     C
C      0.42096   0.1973  0.78835     C
H       0.4255   0.6353   0.5955     H
H       0.4357   0.6745   0.2889     H
H       0.4412   0.7166    0.828     H
H       0.4517   0.8757   0.9565     H
H       0.4535   0.6763   0.3674     H
C      0.45371  0.23781   0.9499     C
C      0.45808  0.83884  0.98661     C
C      0.46331  0.18463  0.99495     C
H       0.4687   0.3897   0.3591     H
C      0.46954  0.78388  0.28348     C
H       0.4703   0.0203   0.8311     H
C      0.47175  0.70687  0.26972     C
C      0.47243  0.39165  0.29024     C
C      0.47296  0.32096  0.77201     C
O      0.47574   0.3954  0.78594     O
C      0.47713  0.73217  0.07659     C
C      0.47803  0.16743  0.74624     C
C      0.47951  0.65305   0.7483     C
H        0.481   0.1144    0.738     H
H       0.4827   0.6973   0.1072     H
C      0.49838  0.64234  0.66632     C
H       0.4997   0.3715   0.2225     H
H       0.5003   0.6285   0.7775     H
C      0.50162  0.35766  0.33368     C
H       0.5173   0.3027   0.8928     H
H        0.519   0.8856    0.262     H
C      0.52049  0.34695   0.2517     C
C      0.52197  0.83257  0.25376     C
C      0.52287  0.26783  0.92341     C
O      0.52426   0.6046  0.21406     O
C      0.52704  0.67904  0.22799     C
C      0.52757  0.60835  0.70976     C
C      0.52825  0.29313  0.73028     C
H       0.5297   0.9797   0.1689     H
C      0.53046  0.21612  0.71652     C
H       0.5313   0.6103   0.6409     H
C      0.53669  0.81537  0.00505     C
C      0.54192  0.16116  0.01339     C
C      0.54629  0.76219   0.0501     C
H       0.5465   0.3237   0.6326     H
H       0.5483   0.1243   0.0435     H
H       0.5588   0.2834    0.172     H
H       0.5643   0.3255   0.7111     H
H       0.5745   0.3647   0.4045     H
C      0.57904   0.8027  0.21165     C
C      0.58071  0.27511  0.33935     C
C      0.58165  0.26117  0.62976     C
C      0.58257  0.72487  0.19887     C
C       0.5831    0.191  0.66941     C
H       0.5835   0.8353   0.9871     H
C       0.5946  0.94846  0.16286     C
C      0.60009  0.24583  0.94254     C
C      0.60053  0.26473  0.25652     C
O       0.6046  0.52426  0.71406     O
C      0.60704   0.3005  0.41319     C
C      0.60835  0.52757  0.20976     C
H       0.6088   0.9026   0.0442     H
H       0.6103   0.5313   0.1409     H
C      0.61149  0.19151  0.98781     C
C      0.61474  0.23934  0.38566     C
C      0.61901  0.23805  0.17391     C
H       0.6193   0.0583   0.1229     H
H       0.6216   0.7036   0.1712     H
O      0.62346   0.7288  0.07153     O
H       0.6285   0.5003   0.2775     H
C      0.62888  0.22906  0.30071     C
H       0.6301   0.2853   0.5599     H
C      0.63263  0.23745  0.58619     C
C      0.63395  0.09955  0.66231     C
H       0.6347   0.0503   0.6876     H
H       0.6353   0.4255   0.0955     H
C       0.6363  0.85526  0.18136     C
H        0.638    0.794   0.5644     H
C      0.64234  0.49838  0.16632     C
H       0.6429   0.3085   0.4708     H
H       0.6441   0.2095   0.1089     H
H       0.6458   0.2676   0.9249     H
C       0.6476  0.26598  0.45336     C
C      0.64911  0.99527  0.13539     C
C      0.65305  0.47951   0.2483     C
C       0.6553  0.21692  0.21447     C
C      0.65853  0.14495  0.40276     C
H       0.6627   0.1009   0.3865     H
C      0.67039  0.85981  0.04456     C
C        0.671  0.19254  0.13601     C
H       0.6745   0.4357   0.7889     H
H       0.6763   0.4535   0.8674     H
C      0.67904  0.52704  0.72799     C
H       0.6812   0.1732   0.3045     H
C      0.68357  0.08179  0.61755     C
N      0.68539  0.14943  0.57975     N
H       0.6889   0.9139   0.5463     H
C      0.69105  0.76613  0.05576     C
H       0.6915   0.3571   0.0292     H
N      0.69348  0.17484  0.46879     N
C      0.69562   0.1164  0.44347     C
C      0.69617  0.16893  0.00772     C
H       0.6973   0.4827   0.6072     H
C       0.6995  0.39296  0.08681     C
C      0.70172  0.78112  0.55668     C
H       0.7036   0.6216   0.6712     H
C      0.70687  0.47175  0.76972     C
O      0.70924  0.10988  0.04572     O
H       0.7116   0.2166   0.8396     H
H       0.7147   0.3699   0.9401     H
H       0.7166   0.4412    0.328     H
H       0.7174   0.0198   0.6134     H
H       0.7242   0.0524   0.4543     H
C      0.72487  0.58257  0.69887     C
C      0.72489  0.41929  0.16065     C
H       0.7282   0.9546   0.0258     H
O       0.7288  0.62346  0.57153     O
C      0.73193  0.81417  0.17103     C
C      0.73217  0.47713  0.57659     C
C      0.73229  0.85241  0.54599     C
H       0.7324   0.3542   0.5751     H
C      0.73402   0.3524  0.04664     C
C      0.73527  0.39947  0.24348     C
C      0.73883  0.41835  0.87024     C
C      0.74185  0.89077  0.03378     C
N       0.7424  0.95588  0.12555     N
C      0.74628  0.15208  0.21258     C
O      0.74817  0.21077    0.985     O
H       0.7507   0.7633   0.6821     H
C      0.75417  0.39991  0.55746     C
N      0.75738   0.1256  0.13527     N
C      0.76066  0.38526  0.11434     C
C      0.76195  0.38099  0.32609     C
C      0.76219  0.54629   0.5501     C
C      0.76255  0.36737  0.91381     C
H       0.7633   0.7507   0.1821     H
C      0.76613  0.69105  0.55576     C
O       0.7666   0.2334     0.75     O
C      0.77094  0.37112  0.19929     C
H       0.7765   0.1375   0.2382     H
C      0.77652  0.19592  0.83232     C
C      0.78112  0.70172  0.05668     C
C      0.78139  0.86673  0.14433     C
C      0.78308   0.3447  0.28553     C
H       0.7834   0.2884   0.6604     H
C      0.78388  0.46954  0.78348     C
O      0.78923  0.25183    0.515     O
Co     0.78939  0.12525    0.517    Co
H       0.7905   0.3559   0.3911     H
C      0.79341  0.10835  0.17375     C
H        0.794    0.638   0.0644     H
O      0.79457  0.99225  0.52758     O
H       0.7981   0.1597   0.9001     H
C      0.80087  0.17915  0.71419     C
C       0.8027  0.57904  0.71165     C
C      0.80408  0.22348  0.66768     C
C      0.80746    0.329  0.36399     C
C      0.80849  0.38851  0.51219     C
C        0.809   0.4169  0.83059     C
C      0.81417  0.73193  0.67103     C
C      0.81537  0.53669  0.50505     C
Co     0.81996  0.03762   0.0809    Co
H       0.8205   0.0543   0.7572     H
C      0.82085  0.19913  0.78581     C
N      0.82516  0.30652  0.03121     N
H       0.8268   0.3188   0.1955     H
C      0.82698  0.08354  0.72541     C
C      0.82721  0.83353  0.53477     C
C      0.82835  0.16191  0.86837     C
C      0.83107  0.30383  0.49228     C
C      0.83257  0.52197  0.75376     C
C      0.83353  0.82721  0.03477     C
H       0.8353   0.5835   0.4871     H
H       0.8377   0.8465   0.6391     H
C      0.83809  0.17165  0.63163     C
C      0.83884  0.45808  0.48661     C
H       0.8403   0.2019   0.5999     H
H       0.8465   0.8377   0.1391     H
C      0.84792  0.25372  0.28742     C
N      0.85057  0.31461  0.92025     N
C      0.85241  0.73229  0.04599     C
H       0.8543   0.0639   0.1745     H
C      0.85505  0.34147  0.09724     C
C      0.85526   0.6363  0.68136     C
C      0.85807  0.91207   0.5272     C
C      0.85981  0.67039  0.54456     C
C       0.8623  0.03222  0.68965     C
H       0.8625   0.2235   0.2618     H
C      0.86673  0.78139  0.64433     C
C      0.86911  0.07491  0.64198     C
N       0.8744  0.24262  0.36473     N
Co     0.87475  0.21061    0.983    Co
H       0.8757   0.4517   0.4565     H
H       0.8822   0.9674   0.6973     H
C       0.8836  0.30438  0.05653     C
H       0.8856    0.519    0.762     H
O      0.89012  0.29076  0.45428     O
C      0.89077  0.74185  0.53378     C
C      0.89165  0.20659  0.32625     C
O      0.89256   0.9447  0.02143     O
H       0.8991   0.3373   0.1135     H
O      0.90012  0.09326  0.46134     O
C      0.90045  0.36605  0.83769     C
H       0.9026   0.6088   0.5442     H
O      0.90674  0.09988  0.03866     O
O      0.91036  0.06044  0.56019     O
C      0.91103  0.01791  0.60311     C
C      0.91207  0.85807   0.0272     C
H       0.9139   0.6889   0.0463     H
C      0.91646  0.17302  0.77459     C
C      0.91821  0.31643  0.88245     C
C      0.92509  0.13089  0.85802     C
O      0.93021  0.94571  0.11597     O
H       0.9361   0.1457   0.3255     H
O      0.93956  0.08964  0.93981     O
H       0.9417   0.3807   0.3771     H
O       0.9447  0.89256  0.52143     O
H       0.9457   0.1795   0.7428     H
O      0.94571  0.93021  0.61597     O
H       0.9476   0.2758   0.0457     H
C      0.94846   0.5946  0.66286     C
H       0.9497   0.3653   0.8124     H
H       0.9546   0.7282   0.5258     H
N      0.95588   0.7424  0.62555     N
Co     0.96238  0.18004   0.4191    Co
H       0.9674   0.8822   0.1973     H
C      0.96778   0.1377  0.81035     C
H       0.9797   0.5297   0.6689     H
H       0.9802   0.2826   0.8866     H
C      0.98209  0.08897  0.89689     C
O      0.99225  0.79457  0.02758     O
C      0.99527  0.64911  0.63539     C
