data_I
_chemical_name_common  '/home/zhangsd/repos/MofS-CGCNN/ML/data/SSD/clean_cifs/CETHEQ_clean'
_cell_length_a 10.86080
_cell_length_b 14.83220
_cell_length_c 14.83220
_cell_angle_alpha 65.75520
_cell_angle_beta  75.87240
_cell_angle_gamma 104.12800
_space_group_name_H-M_alt      'P 1'


loop_
_space_group_symop_operation_xyz
  'x, y, z' 

loop_
_atom_site_label
_atom_site_fract_x
_atom_site_fract_y
_atom_site_fract_z
_atom_site_type_symbol
H        0.003   0.1433   0.5719     H
H        0.003   0.4281   0.8567     H
H       0.0181    0.242   0.5932     H
H       0.0181   0.4068    0.758     H
C       0.0188   0.2196   0.5396     C
C       0.0188   0.4604   0.7804     C
H       0.0194    0.381   0.2643     H
H       0.0194   0.7357    0.619     H
Cu     0.03061  0.47887   0.4066    Cu
Cu     0.03061   0.5934  0.52113    Cu
H       0.1025   0.3114    0.243     H
H       0.1025    0.757   0.6886     H
C       0.1083   0.3841   0.2245     C
C       0.1083   0.7755   0.6159     C
H       0.1084    0.262   0.4788     H
H       0.1084   0.5212    0.738     H
H       0.1317   0.4265   0.1472     H
H       0.1317   0.8528   0.5735     H
O        0.162   0.6125   0.3875     O
H       0.1904   0.6686   0.3314     H
N       0.1915   0.4705   0.3223     N
N       0.1915   0.6777   0.5295     N
C       0.2189   0.4365   0.2532     C
C       0.2189   0.7468   0.5635     C
H       0.2789   0.1472   0.4263     H
H       0.2789   0.5737   0.8528     H
H       0.2837   0.2643   0.3547     H
H       0.2837   0.6453   0.7357     H
N        0.319   0.5139   0.3261     N
N        0.319   0.6739   0.4861     N
Cu     0.32991   0.5945   0.4055    Cu
C       0.3328   0.2245   0.3914     C
C       0.3328   0.6086   0.7755     C
H       0.3455    0.243   0.4456     H
H       0.3455   0.5544    0.757     H
N       0.3524   0.4526   0.2132     N
N       0.3524   0.7868   0.5474     N
O       0.3831      0.0   0.5144     O
O       0.3831   0.4856     -0.0     O
C       0.4125    0.502   0.2611     C
C       0.4125   0.7389    0.498     C
Cu     0.43721   0.4066  0.11453    Cu
Cu     0.43721  0.88547   0.5934    Cu
C       0.4721   0.2532   0.3103     C
C       0.4721   0.6897   0.7468     C
N       0.5138   0.3223   0.2072     N
N       0.5138   0.7928   0.6777     N
H       0.5218      0.0   0.6686     H
H       0.5218   0.3314     -0.0     H
O       0.5495   0.3875      0.0     O
O       0.5495      1.0   0.6125     O
Cu     0.55174  0.11453  0.47887    Cu
Cu     0.55174  0.52113  0.88547    Cu
C       0.5584   0.5396   0.2408     C
C       0.5584   0.7592   0.4604     C
N       0.5656   0.2132   0.3342     N
N       0.5656   0.6658   0.7868     N
H       0.5749   0.5719   0.2848     H
H       0.5749   0.7152   0.4281     H
H       0.5872   0.4788   0.2592     H
H       0.5872   0.7408   0.5212     H
H       0.6113   0.5932   0.1648     H
H       0.6113   0.8352   0.4068     H
H       0.6384   0.3547    0.381     H
H       0.6384    0.619   0.6453     H
N       0.6451   0.3261     0.16     N
N       0.6451     0.84   0.6739     N
C       0.6736   0.2611   0.2369     C
C       0.6736   0.7631   0.7389     C
H       0.7052   0.4263   0.4265     H
H       0.7052   0.5735   0.5737     H
N        0.721   0.2072   0.4705     N
N        0.721   0.5295   0.7928     N
C       0.7242   0.3914   0.3841     C
C       0.7242   0.6159   0.6086     C
Cu     0.73541   0.4055     -0.0    Cu
Cu     0.73541      1.0   0.5945    Cu
H       0.7761   0.1648    0.242     H
H       0.7761    0.758   0.8352     H
C       0.7824   0.3103   0.4365     C
C       0.7824   0.5635   0.6897     C
H       0.7911   0.4456   0.3114     H
H       0.7911   0.6886   0.5544     H
C       0.7992   0.2408   0.2196     C
C       0.7992   0.7804   0.7592     C
N       0.8051     0.16   0.5139     N
N       0.8051   0.4861     0.84     N
H       0.8464   0.2592    0.262     H
H       0.8464    0.738   0.7408     H
H       0.8597   0.2848   0.1433     H
H       0.8597   0.8567   0.7152     H
O       0.8975   0.5144   0.4856     O
N       0.8998   0.3342   0.4526     N
N       0.8998   0.5474   0.6658     N
C       0.9105   0.2369    0.502     C
C       0.9105    0.498   0.7631     C
