data_I
_chemical_name_common  '/home/zhangsd/repos/MofS-CGCNN/ML/data/SSD/clean_cifs/CIYZUG_clean'
_cell_length_a 17.31400
_cell_length_b  5.36280
_cell_length_c 23.92700
_cell_angle_alpha 90.00000
_cell_angle_beta  133.57700
_cell_angle_gamma 90.00000
_space_group_name_H-M_alt      'P 1'


loop_
_space_group_symop_operation_xyz
  'x, y, z' 

loop_
_atom_site_label
_atom_site_fract_x
_atom_site_fract_y
_atom_site_fract_z
_atom_site_type_symbol
Cu         0.0  0.19569     0.25    Cu
Br         0.0  0.30329     0.75    Br
Br         0.0  0.69671     0.25    Br
Cu         0.0  0.80431     0.75    Cu
H       0.0371   0.4616   0.3799     H
H       0.0371   0.5384   0.8799     H
C       0.0529   0.0357   0.0405     C
C       0.0529   0.9643   0.5405     C
H       0.0727    0.298   0.5737     H
H       0.0727    0.702   0.0737     H
H       0.0738   0.0686   0.6833     H
H       0.0738   0.9314   0.1833     H
O       0.0847   0.2533   0.0566     O
O       0.0847   0.7467   0.5566     O
C       0.0958   0.3557   0.4082     C
C       0.0958   0.6443   0.9082     C
N       0.1031   0.1544   0.5886     N
N       0.1031   0.8456   0.0886     N
N       0.1053    0.196     0.37     N
N       0.1053    0.804     0.87     N
N       0.1278   0.1964   0.2594     N
N       0.1278   0.8036   0.7594     N
C       0.1299    0.043    0.216     C
C       0.1299    0.957    0.716     C
H       0.1598   0.4833   0.5118     H
H       0.1598   0.5167   0.0118     H
C       0.1689   0.3695   0.4874     C
C       0.1689   0.6305   0.9874     C
C       0.1908    0.044    0.413     C
C       0.1908    0.956    0.913     C
H       0.1984   0.0687   0.8875     H
H       0.1984   0.9313   0.3875     H
C       0.2086   0.1286    0.666     C
C       0.2086   0.8714    0.166     C
H       0.2092   0.4606   0.3371     H
H       0.2092   0.5394   0.8371     H
C       0.2095    0.353   0.3068     C
C       0.2095    0.647   0.8068     C
C       0.2113   0.0428   0.2175     C
C       0.2113   0.9572   0.7175     C
H       0.2338   0.2921   0.6898     H
H       0.2338   0.7079   0.1898     H
C       0.2565   0.2117   0.5303     C
C       0.2565   0.7883   0.0303     C
H       0.2573   0.0652   0.6622     H
H       0.2573   0.9348   0.1622     H
C       0.2681   0.0457   0.4929     C
C       0.2681   0.9543   0.9929     C
C       0.2946   0.3615   0.3126     C
C       0.2946   0.6385   0.8126     C
C        0.295   0.2062   0.2671     C
C        0.295   0.7938   0.7671     C
H       0.3067   0.2183   0.5839     H
H       0.3067   0.7817   0.0839     H
H       0.3414   0.2825   0.0093     H
H       0.3414   0.7175   0.5093     H
H       0.3508    0.471   0.3468     H
H       0.3508    0.529   0.8468     H
H       0.3512   0.2112   0.2697     H
H       0.3512   0.7888   0.7697     H
C       0.3638   0.1235   0.0358     C
C       0.3638   0.8765   0.5358     C
O       0.3923   0.2014   0.9347     O
O       0.3923   0.7986   0.4347     O
H       0.3927   0.1536   0.0872     H
H       0.3927   0.8464   0.5872     H
N       0.4462     0.02   0.0418     N
N       0.4462     0.98   0.5418     N
C        0.453   0.0647   0.9914     C
C        0.453   0.9353   0.4914     C
H       0.4931   0.0757   0.5803     H
H       0.4931   0.9243   0.0803     H
H       0.5069   0.0757   0.9197     H
H       0.5069   0.9243   0.4197     H
C        0.547   0.0647   0.5086     C
C        0.547   0.9353   0.0086     C
N       0.5538     0.02   0.4582     N
N       0.5538     0.98   0.9582     N
H       0.6073   0.1536   0.4128     H
H       0.6073   0.8464   0.9128     H
O       0.6077   0.2014   0.5653     O
O       0.6077   0.7986   0.0653     O
C       0.6362   0.1235   0.4642     C
C       0.6362   0.8765   0.9642     C
H       0.6488   0.2112   0.2303     H
H       0.6488   0.7888   0.7303     H
H       0.6492    0.471   0.1532     H
H       0.6492    0.529   0.6532     H
H       0.6586   0.2825   0.4907     H
H       0.6586   0.7175   0.9907     H
H       0.6933   0.2183   0.9161     H
H       0.6933   0.7817   0.4161     H
C        0.705   0.2062   0.2329     C
C        0.705   0.7938   0.7329     C
C       0.7054   0.3615   0.1874     C
C       0.7054   0.6385   0.6874     C
C       0.7319   0.0457   0.0071     C
C       0.7319   0.9543   0.5071     C
H       0.7427   0.0652   0.8378     H
H       0.7427   0.9348   0.3378     H
C       0.7435   0.2117   0.9697     C
C       0.7435   0.7883   0.4697     C
H       0.7662   0.2921   0.8102     H
H       0.7662   0.7079   0.3102     H
C       0.7887   0.0428   0.2825     C
C       0.7887   0.9572   0.7825     C
C       0.7905    0.353   0.1932     C
C       0.7905    0.647   0.6932     C
H       0.7908   0.4606   0.1629     H
H       0.7908   0.5394   0.6629     H
C       0.7914   0.1286    0.834     C
C       0.7914   0.8714    0.334     C
H       0.8016   0.0687   0.6125     H
H       0.8016   0.9313   0.1125     H
C       0.8092    0.044    0.087     C
C       0.8092    0.956    0.587     C
C       0.8311   0.3695   0.0126     C
C       0.8311   0.6305   0.5126     C
H       0.8402   0.4833   0.9882     H
H       0.8402   0.5167   0.4882     H
C       0.8701    0.043    0.284     C
C       0.8701    0.957    0.784     C
N       0.8722   0.1964   0.2406     N
N       0.8722   0.8036   0.7406     N
N       0.8947    0.196     0.13     N
N       0.8947    0.804     0.63     N
N       0.8969   0.1544   0.9114     N
N       0.8969   0.8456   0.4114     N
C       0.9042   0.3557   0.0918     C
C       0.9042   0.6443   0.5918     C
O       0.9153   0.2533   0.4434     O
O       0.9153   0.7467   0.9434     O
H       0.9262   0.0686   0.8167     H
H       0.9262   0.9314   0.3167     H
H       0.9273    0.298   0.9263     H
H       0.9273    0.702   0.4263     H
C       0.9471   0.0357   0.4595     C
C       0.9471   0.9643   0.9595     C
H       0.9629   0.4616   0.1201     H
H       0.9629   0.5384   0.6201     H
