data_I
_chemical_name_common  '/home/zhangsd/repos/MofS-CGCNN/ML/data/SSD/clean_cifs/COJHIT_clean'
_cell_length_a 13.25290
_cell_length_b 13.25300
_cell_length_c 13.99500
_cell_angle_alpha 90.00000
_cell_angle_beta  90.00000
_cell_angle_gamma 90.00000
_space_group_name_H-M_alt      'P 1'


loop_
_space_group_symop_operation_xyz
  'x, y, z' 

loop_
_atom_site_label
_atom_site_fract_x
_atom_site_fract_y
_atom_site_fract_z
_atom_site_type_symbol
C          0.0   0.2798     0.25     C
C          0.0    0.288     0.75     C
C          0.0     0.38     0.25     C
C          0.0   0.3932     0.75     C
C          0.0   0.6068     0.25     C
C          0.0     0.62     0.75     C
C          0.0    0.712     0.25     C
C          0.0   0.7202     0.75     C
N       0.0227   0.1213   0.7069     N
N       0.0227   0.8787   0.2931     N
N       0.0239   0.1229   0.2913     N
N       0.0239   0.8771   0.7087     N
C       0.0281   0.4463   0.3232     C
C       0.0281   0.5537   0.6768     C
C       0.0293   0.2229   0.6748     C
C       0.0293   0.7771   0.3252     C
Co     0.02942  0.00258   0.6273    Co
Co     0.02942  0.99742   0.3727    Co
C       0.0308   0.4497   0.6699     C
C       0.0308   0.5503   0.3301     C
C       0.0424   0.2147   0.3135     C
C       0.0424   0.7853   0.6865     C
H       0.0498    0.413   0.3797     H
H       0.0498    0.587   0.6203     H
H       0.0526   0.4174   0.6129     H
H       0.0526   0.5826   0.3871     H
H       0.0808   0.2349   0.3675     H
H       0.0808   0.7651   0.6325     H
N       0.0947   0.0193   0.9536     N
N       0.0947   0.9807   0.0464     N
N       0.1521   0.0052   0.4498     N
N       0.1521   0.9948   0.5502     N
C       0.1859   0.0248   0.9225     C
C       0.1859   0.9752   0.0775     C
C       0.2484    0.002   0.4259     C
C       0.2484    0.998   0.5741     C
C       0.2546      0.0      0.0     C
H       0.2706   0.0023   0.3614     H
H       0.2706   0.9977   0.6386     H
C       0.3121      0.0      0.5     C
C       0.3663      0.0      0.0     C
H       0.3866   0.0047   0.8569     H
H       0.3866   0.9953   0.1431     H
C       0.4223   0.0028   0.9157     C
C       0.4223   0.9972   0.0843     C
C       0.4241      0.0      0.5     C
H       0.4411   0.0048   0.6466     H
H       0.4411   0.9952   0.3534     H
C       0.4762   0.0029   0.5874     C
C       0.4762   0.9971   0.4126     C
C       0.5238   0.0029   0.9126     C
C       0.5238   0.9971   0.0874     C
H       0.5589   0.0048   0.8534     H
H       0.5589   0.9952   0.1466     H
C       0.5759      0.0      0.0     C
C       0.5777   0.0028   0.5843     C
C       0.5777   0.9972   0.4157     C
H       0.6134   0.0047   0.6431     H
H       0.6134   0.9953   0.3569     H
C       0.6337      0.0      0.5     C
C       0.6879      0.0      0.0     C
H       0.7294   0.0023   0.1386     H
H       0.7294   0.9977   0.8614     H
C       0.7454      0.0      0.5     C
C       0.7516    0.002   0.0741     C
C       0.7516    0.998   0.9259     C
C       0.8141   0.0248   0.5775     C
C       0.8141   0.9752   0.4225     C
N       0.8479   0.0052   0.0502     N
N       0.8479   0.9948   0.9498     N
N       0.9053   0.0193   0.5464     N
N       0.9053   0.9807   0.4536     N
H       0.9192   0.2349   0.1325     H
H       0.9192   0.7651   0.8675     H
H       0.9474   0.4174   0.8871     H
H       0.9474   0.5826   0.1129     H
H       0.9502    0.413   0.1203     H
H       0.9502    0.587   0.8797     H
C       0.9576   0.2147   0.1865     C
C       0.9576   0.7853   0.8135     C
C       0.9692   0.4497   0.8301     C
C       0.9692   0.5503   0.1699     C
Co     0.97058  0.00258   0.8727    Co
Co     0.97058  0.99742   0.1273    Co
C       0.9707   0.2229   0.8252     C
C       0.9707   0.7771   0.1748     C
C       0.9719   0.4463   0.1768     C
C       0.9719   0.5537   0.8232     C
N       0.9761   0.1229   0.2087     N
N       0.9761   0.8771   0.7913     N
N       0.9773   0.1213   0.7931     N
N       0.9773   0.8787   0.2069     N
