data_I
_chemical_name_common  '/home/zhangsd/repos/MofS-CGCNN/ML/data/SSD/clean_cifs/COKFAK_clean'
_cell_length_a  8.77960
_cell_length_b 14.85700
_cell_length_c 21.62100
_cell_angle_alpha 72.21200
_cell_angle_beta  81.68600
_cell_angle_gamma 83.57200
_space_group_name_H-M_alt      'P 1'


loop_
_space_group_symop_operation_xyz
  'x, y, z' 

loop_
_atom_site_label
_atom_site_fract_x
_atom_site_fract_y
_atom_site_fract_z
_atom_site_type_symbol
Co         0.0      0.0      0.0    Co
Co         0.0      0.0      0.5    Co
H       0.0029   0.6519   0.7023     H
H       0.0031    0.178   0.3656     H
C       0.0037   0.1363   0.7135     C
C       0.0047   0.2942   0.6256     C
H       0.0104   0.5544   0.8284     H
H       0.0222   0.4169   0.5562     H
H       0.0236   0.7738   0.0307     H
H       0.0283   0.5816   0.6598     H
C       0.0353   0.9397   0.3719     C
C       0.0381   0.1996   0.3968     C
C       0.0426   0.3697   0.3285     C
N        0.044   0.0083   0.5935     N
H       0.0448   0.1089   0.7551     H
N        0.045   0.0725   0.6729     N
C       0.0619   0.7854   0.0652     C
N       0.0636   0.2898   0.3875     N
C        0.067   0.2309   0.6796     C
C       0.0673    0.377   0.5921     C
C       0.0675   0.4146   0.8419     C
N       0.0681   0.1442   0.4549     N
N       0.0774   0.8703   0.0688     N
H       0.0826    0.721   0.3878     H
C       0.0927    0.511   0.8234     C
C       0.0935   0.6149    0.131     C
N       0.1075   0.7178   0.1168     N
H       0.1078   0.8557   0.2778     H
C       0.1122   0.2933   0.4434     C
C       0.1156   0.2043   0.4848     C
H        0.124   0.5973    0.091     H
H       0.1357   0.9142   0.3778     H
H       0.1385   0.3471   0.4517     H
C       0.1398   0.8559   0.1262     C
H       0.1451   0.1864   0.5268     H
C       0.1572   0.7621   0.1563     C
H       0.1605   0.5312   0.3222     H
H       0.1643   0.5805   0.1621     H
H       0.1658   0.9034   0.1418     H
H       0.1808   0.2874   0.8455     H
C       0.1847   0.0226   0.6665     C
C       0.1848   0.9839   0.6189     C
C       0.1934    0.352   0.8338     C
C       0.1939   0.4118    0.296     C
H       0.1956   0.7331   0.1961     H
C       0.1977   0.2566    0.698     C
C       0.2017   0.4049   0.6104     C
H       0.2094   0.8004    0.515     H
N       0.2207   0.0596   0.9823     N
N        0.229   0.9394   0.4822     N
C       0.2314   0.4971   0.3001     C
C       0.2349    0.543   0.7983     C
H       0.2381   0.4941   0.4827     H
H       0.2428   0.2154   0.7335     H
H       0.2471   0.6077   0.7865     H
C       0.2614   0.3403   0.6656     C
H       0.2654    0.017   0.6912     H
H       0.2659   0.9463   0.6048     H
H       0.2686   0.0671   0.0668     H
C       0.2726    0.849   0.4923     C
C       0.2738   0.4929   0.5738     C
H       0.2765   0.0871   0.8824     H
H       0.2786   0.3047     0.26     H
C       0.2819   0.5269   0.5052     C
C       0.3004   0.0786   0.0223     C
C       0.3015   0.3628   0.2628     C
C       0.3056   0.0899   0.9214     C
C       0.3379   0.3852   0.8085     C
H       0.3382   0.5235   0.6513     H
C       0.3422   0.5443    0.606     C
H       0.3469   0.3552   0.6803     H
C       0.3473   0.9864   0.4469     C
H       0.3482   0.8698   0.9958     H
H       0.3516   0.0518   0.4317     H
C       0.3534   0.6077   0.4712     C
H       0.3563   0.6294   0.4259     H
H       0.3625   0.7573   0.9067     H
C       0.3633   0.4808   0.7898     C
C       0.3729   0.5336   0.2719     C
H       0.3875   0.5975   0.9164     H
H        0.395   0.5918    0.275     H
H       0.3983   0.2569   0.5172     H
C         0.41   0.7151   0.9411     C
C       0.4144   0.6241   0.5716     C
N       0.4161   0.8346   0.4668     N
H       0.4205   0.3418   0.8038     H
C        0.422    0.658   0.5033     C
C        0.425    0.618   0.9474     C
N       0.4345   0.1167   0.9924     N
C        0.436   0.1238   0.9275     C
H       0.4384   0.0697    0.587     H
C       0.4417   0.3973    0.234     C
C       0.4504   0.8526   0.9771     C
H       0.4577   0.4583   0.9154     H
H       0.4595   0.6568   0.5938     H
H       0.4604   0.8864   0.9307     H
C       0.4642   0.7469   0.9854     C
C       0.4653   0.9179   0.4369     C
H         0.47   0.2544     0.58     H
H       0.4748   0.3006   0.9256     H
C       0.4821    0.483   0.2388     C
C       0.4834   0.4154   0.9545     C
H       0.4868   0.8524   0.1061     H
H       0.4897   0.6367    0.789     H
C       0.4925   0.5515    0.997     C
C       0.4948   0.2542   0.5349     C
C       0.4955   0.3198   0.9605     C
C       0.5045   0.6802   0.0395     C
C       0.5052   0.7458   0.4651     C
C       0.5075   0.4485    0.003     C
H       0.5103   0.3633    0.211     H
H       0.5132   0.1476   0.8939     H
C       0.5166   0.5846   0.0455     C
C       0.5179    0.517   0.7612     C
H       0.5252   0.6994   0.0744     H
H         0.53   0.7456     0.42     H
C       0.5347   0.0821   0.5631     C
C       0.5358   0.2531   0.0146     C
H       0.5396   0.1136   0.0693     H
H       0.5405   0.3432   0.4062     H
H       0.5423   0.5417   0.0846     H
C       0.5496   0.1474   0.0229     C
C       0.5583   0.6027    0.766     C
H       0.5616   0.9303    0.413     H
C        0.564   0.8762   0.0725     C
N       0.5655   0.8833   0.0076     N
C        0.575    0.382   0.0526     C
C        0.578    0.342   0.4967     C
H       0.5795   0.6582   0.1962     H
N       0.5839   0.1654   0.5332     N
C       0.5856   0.3759   0.4284     C
C         0.59   0.2849   0.0589     C
H       0.6017   0.7431   0.4828     H
H        0.605   0.4082    0.725     H
H       0.6125   0.4025   0.0836     H
C       0.6271   0.4664   0.7281     C
C       0.6367   0.5192   0.2102     C
H       0.6375   0.2427   0.0933     H
H       0.6437   0.3706   0.5741     H
C       0.6466   0.3923   0.5288     C
H       0.6484   0.9482   0.5683     H
H       0.6518   0.1302   0.0042     H
C       0.6527   0.0136   0.5531     C
H       0.6531   0.6448   0.3197     H
C       0.6578   0.4557    0.394     C
H       0.6618   0.4765   0.3487     H
C       0.6621   0.6148   0.1915     C
C       0.6944   0.9101   0.0786     C
C       0.6985   0.6372   0.7372     C
C       0.6996   0.9214   0.9777     C
C       0.7181   0.4731   0.4948     C
H       0.7214   0.6953     0.74     H
H       0.7235   0.9129   0.1176     H
C       0.7262   0.5071   0.4262     C
C       0.7274    0.151   0.5077     C
H       0.7314   0.9329   0.9332     H
H       0.7341   0.0537   0.3952     H
H       0.7346    0.983   0.3088     H
C       0.7386   0.6597   0.3344     C
H       0.7529   0.3923   0.2135     H
H       0.7572   0.7846   0.2665     H
H       0.7619   0.5059   0.5173     H
C       0.7651    0.457   0.2017     C
C       0.7686   0.5029   0.6999     C
N        0.771   0.0606   0.5178     N
N       0.7793   0.9404   0.0177     N
H       0.7906   0.1996    0.485     H
C       0.7983   0.5951   0.3896     C
C       0.8023   0.7434    0.302     C
H       0.8044   0.2669   0.8039     H
C       0.8061   0.5882    0.704     C
C       0.8066    0.648   0.1662     C
C       0.8152   0.0161   0.3811     C
C       0.8153   0.9774   0.3335     C
H       0.8192   0.7126   0.1545     H
H       0.8342   0.0966   0.8582     H
H       0.8357   0.4195   0.8379     H
H       0.8395   0.4688   0.6778     H
C       0.8428   0.2379   0.8437     C
H       0.8549   0.8136   0.4732     H
C       0.8602   0.1441   0.8738     C
H       0.8615   0.6529   0.5483     H
H       0.8643   0.0858   0.6222     H
H        0.876   0.4027    0.909     H
C       0.8844   0.7957   0.5152     C
C       0.8878   0.7067   0.5566     C
H       0.8922   0.1443   0.7222     H
N       0.8925   0.2822   0.8832     N
C       0.9065   0.3851    0.869     C
C       0.9073    0.489   0.1766     C
H       0.9174    0.279   0.6122     H
N       0.9226   0.1297   0.9312     N
N       0.9319   0.8558   0.5451     N
C       0.9325   0.5854   0.1581     C
C       0.9327    0.623   0.4079     C
C        0.933   0.7691   0.3204     C
N       0.9364   0.7102   0.6125     N
C       0.9381   0.2146   0.9348     C
N        0.955   0.9275   0.3271     N
H       0.9552   0.8911   0.2449     H
N        0.956   0.9917   0.4065     N
C       0.9574   0.6303   0.6715     C
C       0.9619   0.8004   0.6032     C
C       0.9647   0.0603   0.6281     C
H       0.9717   0.4184   0.3402     H
H       0.9764   0.2262   0.9693     H
H       0.9778   0.5831   0.4438     H
H       0.9896   0.4456   0.1716     H
C       0.9953   0.7058   0.3744     C
C       0.9963   0.8637   0.2865     C
H       0.9969    0.822   0.6344     H
H       0.9971   0.3481   0.2977     H
