data_I
_chemical_name_common  '/home/zhangsd/repos/MofS-CGCNN/ML/data/SSD/clean_cifs/COZMUA_clean'
_cell_length_a 15.50940
_cell_length_b 17.82510
_cell_length_c 24.22100
_cell_angle_alpha 90.00000
_cell_angle_beta  90.00000
_cell_angle_gamma 90.00000
_space_group_name_H-M_alt      'P 1'


loop_
_space_group_symop_operation_xyz
  'x, y, z' 

loop_
_atom_site_label
_atom_site_fract_x
_atom_site_fract_y
_atom_site_fract_z
_atom_site_type_symbol
C          0.0      0.0  0.25368     C
C          0.0      0.0  0.74632     C
O          0.0      0.5  0.05802     O
O          0.0      0.5  0.94198     O
C       0.0142   0.1779  0.16454     C
C       0.0142   0.1779  0.83546     C
H       0.0174   0.1165   0.3207     H
H       0.0174   0.1165   0.6793     H
C       0.0222  0.93501  0.21384     C
C       0.0222  0.93501  0.78616     C
O       0.0277  0.71431  0.08497     O
O       0.0277  0.71431  0.91503     O
C       0.0326   0.1237  0.20393     C
C       0.0326   0.1237  0.79607     C
H       0.0518    0.218   0.1596     H
H       0.0518    0.218   0.8404     H
C       0.0597  0.82707  0.13232     C
C       0.0597  0.82707  0.86768     C
C       0.0651  0.08551  0.32574     C
C       0.0651  0.08551  0.67426     C
C       0.0735  0.02182   0.2935     C
C       0.0735  0.02182   0.7065     C
O       0.0772  0.63869      0.0     O
C       0.0783   0.7682  0.08937     C
C       0.0783   0.7682  0.91063     C
H       0.0834   0.1273   0.2241     H
H       0.0834   0.1273   0.7759     H
C       0.0962   0.9387  0.18114     C
C       0.0962   0.9387  0.81886     C
Co     0.10668  0.52507      0.0    Co
C       0.1142   0.8861    0.142     C
C       0.1142   0.8861    0.858     C
H        0.118   0.1481   0.3847     H
H        0.118   0.1481   0.6153     H
C       0.1249    0.104  0.36467     C
C       0.1249    0.104  0.63533     C
H       0.1343   0.9784   0.1862     H
H       0.1343   0.9784   0.8138     H
O      0.14429  0.77842  0.06042     O
O      0.14429  0.77842  0.93958     O
C       0.1449    0.976  0.30452     C
C       0.1449    0.976  0.69548     C
H       0.1535   0.9329   0.2836     H
H       0.1535   0.9329   0.7164     H
H       0.1646   0.8903   0.1214     H
H       0.1646   0.8903   0.8786     H
O       0.1885  0.53362  0.06595     O
O       0.1885  0.53362  0.93405     O
C       0.1937   0.0602  0.37503     C
C       0.1937   0.0602  0.62497     C
Co     0.19555  0.70863      0.0    Co
C       0.2032   0.9938  0.34627     C
C       0.2032   0.9938  0.65373     C
C       0.2436   0.5818  0.08002     C
C       0.2436   0.5818  0.91998     C
H       0.2482   0.9612   0.3547     H
H       0.2482   0.9612   0.6453     H
O      0.24825  0.14609    0.439     O
O      0.24825  0.14609    0.561     O
O      0.25175  0.64609    0.061     O
O      0.25175  0.64609    0.939     O
H       0.2518   0.4612   0.1453     H
H       0.2518   0.4612   0.8547     H
C       0.2564   0.0818  0.41998     C
C       0.2564   0.0818  0.58002     C
C       0.2968   0.4938  0.15373     C
C       0.2968   0.4938  0.84627     C
Co     0.30445  0.20863      0.5    Co
C       0.3063   0.5602  0.12497     C
C       0.3063   0.5602  0.87503     C
O       0.3115  0.03362  0.43405     O
O       0.3115  0.03362  0.56595     O
H       0.3354   0.3903   0.3786     H
H       0.3354   0.3903   0.6214     H
H       0.3465   0.4329   0.2164     H
H       0.3465   0.4329   0.7836     H
C       0.3551    0.476  0.19548     C
C       0.3551    0.476  0.80452     C
O      0.35571  0.27842  0.43958     O
O      0.35571  0.27842  0.56042     O
H       0.3657   0.4784   0.3138     H
H       0.3657   0.4784   0.6862     H
C       0.3751    0.604  0.13533     C
C       0.3751    0.604  0.86467     C
H        0.382   0.6481   0.1153     H
H        0.382   0.6481   0.8847     H
C       0.3858   0.3861    0.358     C
C       0.3858   0.3861    0.642     C
Co     0.39332  0.02507      0.5    Co
C       0.4038   0.4387  0.31886     C
C       0.4038   0.4387  0.68114     C
H       0.4166   0.6273   0.2759     H
H       0.4166   0.6273   0.7241     H
C       0.4217   0.2682  0.41063     C
C       0.4217   0.2682  0.58937     C
O       0.4228  0.13869      0.5     O
C       0.4265  0.52182   0.2065     C
C       0.4265  0.52182   0.7935     C
C       0.4349  0.58551  0.17426     C
C       0.4349  0.58551  0.82574     C
C       0.4403  0.32707  0.36768     C
C       0.4403  0.32707  0.63232     C
H       0.4482    0.718   0.3404     H
H       0.4482    0.718   0.6596     H
C       0.4674   0.6237  0.29607     C
C       0.4674   0.6237  0.70393     C
O       0.4723  0.21431  0.41503     O
O       0.4723  0.21431  0.58497     O
C       0.4778  0.43501  0.28616     C
C       0.4778  0.43501  0.71384     C
H       0.4826   0.6165   0.1793     H
H       0.4826   0.6165   0.8207     H
C       0.4858   0.6779  0.33546     C
C       0.4858   0.6779  0.66454     C
O          0.5      0.0  0.44198     O
O          0.5      0.0  0.55802     O
C          0.5      0.5  0.24632     C
C          0.5      0.5  0.75368     C
C       0.5142   0.3221  0.33546     C
C       0.5142   0.3221  0.66454     C
H       0.5174   0.3835   0.1793     H
H       0.5174   0.3835   0.8207     H
C       0.5222  0.56499  0.28616     C
C       0.5222  0.56499  0.71384     C
O       0.5277  0.78569  0.41503     O
O       0.5277  0.78569  0.58497     O
C       0.5326   0.3763  0.29607     C
C       0.5326   0.3763  0.70393     C
H       0.5518    0.282   0.3404     H
H       0.5518    0.282   0.6596     H
C       0.5597  0.67293  0.36768     C
C       0.5597  0.67293  0.63232     C
C       0.5651  0.41449  0.17426     C
C       0.5651  0.41449  0.82574     C
C       0.5735  0.47818   0.2065     C
C       0.5735  0.47818   0.7935     C
O       0.5772  0.86131      0.5     O
C       0.5783   0.7318  0.41063     C
C       0.5783   0.7318  0.58937     C
H       0.5834   0.3727   0.2759     H
H       0.5834   0.3727   0.7241     H
C       0.5962   0.5613  0.31886     C
C       0.5962   0.5613  0.68114     C
Co     0.60668  0.97493      0.5    Co
C       0.6142   0.6139    0.358     C
C       0.6142   0.6139    0.642     C
H        0.618   0.3519   0.1153     H
H        0.618   0.3519   0.8847     H
C       0.6249    0.396  0.13533     C
C       0.6249    0.396  0.86467     C
H       0.6343   0.5216   0.3138     H
H       0.6343   0.5216   0.6862     H
O      0.64429  0.72158  0.43958     O
O      0.64429  0.72158  0.56042     O
C       0.6449    0.524  0.19548     C
C       0.6449    0.524  0.80452     C
H       0.6535   0.5671   0.2164     H
H       0.6535   0.5671   0.7836     H
H       0.6646   0.6097   0.3786     H
H       0.6646   0.6097   0.6214     H
O       0.6885  0.96638  0.43405     O
O       0.6885  0.96638  0.56595     O
C       0.6937   0.4398  0.12497     C
C       0.6937   0.4398  0.87503     C
Co     0.69555  0.79137      0.5    Co
C       0.7032   0.5062  0.15373     C
C       0.7032   0.5062  0.84627     C
C       0.7436   0.9182  0.41998     C
C       0.7436   0.9182  0.58002     C
H       0.7482   0.5388   0.1453     H
H       0.7482   0.5388   0.8547     H
O      0.74825  0.35391    0.061     O
O      0.74825  0.35391    0.939     O
O      0.75175  0.85391    0.439     O
O      0.75175  0.85391    0.561     O
H       0.7518   0.0388   0.3547     H
H       0.7518   0.0388   0.6453     H
C       0.7564   0.4182  0.08002     C
C       0.7564   0.4182  0.91998     C
C       0.7968   0.0062  0.34627     C
C       0.7968   0.0062  0.65373     C
Co     0.80445  0.29137      1.0    Co
C       0.8063   0.9398  0.37503     C
C       0.8063   0.9398  0.62497     C
O       0.8115  0.46638  0.06595     O
O       0.8115  0.46638  0.93405     O
H       0.8354   0.1097   0.1214     H
H       0.8354   0.1097   0.8786     H
H       0.8465   0.0671   0.2836     H
H       0.8465   0.0671   0.7164     H
C       0.8551    0.024  0.30452     C
C       0.8551    0.024  0.69548     C
O      0.85571  0.22158  0.06042     O
O      0.85571  0.22158  0.93958     O
H       0.8657   0.0216   0.1862     H
H       0.8657   0.0216   0.8138     H
C       0.8751    0.896  0.36467     C
C       0.8751    0.896  0.63533     C
H        0.882   0.8519   0.3847     H
H        0.882   0.8519   0.6153     H
C       0.8858   0.1139    0.142     C
C       0.8858   0.1139    0.858     C
Co     0.89332  0.47493      1.0    Co
C       0.9038   0.0613  0.18114     C
C       0.9038   0.0613  0.81886     C
H       0.9166   0.8727   0.2241     H
H       0.9166   0.8727   0.7759     H
C       0.9217   0.2318  0.08937     C
C       0.9217   0.2318  0.91063     C
O       0.9228  0.36131      0.0     O
C       0.9265  0.97818   0.2935     C
C       0.9265  0.97818   0.7065     C
C       0.9349  0.91449  0.32574     C
C       0.9349  0.91449  0.67426     C
C       0.9403  0.17293  0.13232     C
C       0.9403  0.17293  0.86768     C
H       0.9482    0.782   0.1596     H
H       0.9482    0.782   0.8404     H
C       0.9674   0.8763  0.20393     C
C       0.9674   0.8763  0.79607     C
O       0.9723  0.28569  0.08497     O
O       0.9723  0.28569  0.91503     O
C       0.9778  0.06499  0.21384     C
C       0.9778  0.06499  0.78616     C
H       0.9826   0.8835   0.3207     H
H       0.9826   0.8835   0.6793     H
C       0.9858   0.8221  0.16454     C
C       0.9858   0.8221  0.83546     C
