data_I
_chemical_name_common  '/home/zhangsd/repos/MofS-CGCNN/ML/data/SSD/clean_cifs/CUFDUD_clean'
_cell_length_a 29.14530
_cell_length_b 29.14530
_cell_length_c 16.99100
_cell_angle_alpha 90.00000
_cell_angle_beta  90.00000
_cell_angle_gamma 120.00000
_space_group_name_H-M_alt      'P 1'


loop_
_space_group_symop_operation_xyz
  'x, y, z' 

loop_
_atom_site_label
_atom_site_fract_x
_atom_site_fract_y
_atom_site_fract_z
_atom_site_type_symbol
C      0.00717   0.4475  0.85697     C
C      0.00717  0.55968  0.35697     C
C      0.00724  0.05119  0.69763     C
C      0.00724  0.95604  0.19763     C
H      0.01197  0.08513  0.69793     H
H      0.01197  0.92683  0.19793     H
O      0.02474  0.13707  0.20003     O
O      0.02474  0.88766  0.70003     O
O      0.02498  0.25066   0.1588     O
O      0.02498  0.77432   0.6588     O
C      0.04396  0.05119  0.19763     C
C      0.04396  0.99276  0.69763     C
C      0.05091  0.00706  0.19733     C
C      0.05091  0.04384  0.69733     C
C      0.06159  0.45831  0.87417     C
C      0.06159  0.60329  0.37417     C
C      0.06338  0.27174   0.2075     C
C      0.06338  0.79164   0.7075     C
O      0.06546  0.24677  0.26605     O
O      0.06546  0.81869  0.76605     O
H      0.07317  0.08513  0.19793     H
H      0.07317  0.98803  0.69793     H
H       0.0749   0.3372   0.0913     H
H       0.0749   0.7377   0.5913     H
O      0.08267  0.44099  0.82547     O
O      0.08267  0.64169  0.32547     O
O      0.08656  0.48536  0.93272     O
O      0.08656  0.60121  0.43272     O
C      0.10483   0.3529    0.123     C
C      0.10483  0.75193    0.623     C
C      0.10563  0.01503  0.20333     C
C      0.10563  0.09059  0.70333     C
C      0.10699  0.32616   0.1903     C
C      0.10699  0.78083   0.6903     C
O      0.10977  0.39978  0.97708     O
O      0.10977  0.70999  0.47708     O
O      0.11234  0.13707  0.70003     O
O      0.11234  0.97526  0.20003     O
O      0.14402  0.06087   0.2139     O
O      0.14402  0.08314   0.7139     O
C      0.14486  0.42626   0.0261     C
C      0.14486   0.7186   0.5261     C
C      0.14635  0.40208   0.1031     C
C      0.14635  0.74427   0.6031     C
C      0.15119  0.35125    0.239     C
C      0.15119  0.79994    0.739     C
H       0.1527   0.3348    0.285     H
H       0.1527   0.8179    0.785     H
In     0.15707  0.46902  0.88651    In
In     0.15707  0.68805  0.38651    In
O      0.17202  0.40825  0.84111     O
O      0.17202  0.76377  0.34111     O
O      0.18123  0.47306   0.0104     O
O      0.18123  0.70817   0.5104     O
O      0.18131  0.24677  0.76605     O
O      0.18131  0.93454  0.26605     O
H       0.1821   0.3348    0.785     H
H       0.1821   0.8473    0.285     H
O      0.18412  0.46659  0.74841     O
O      0.18412  0.71753  0.24841     O
C      0.18693  0.42763   0.7718     C
C      0.18693   0.7593   0.2718     C
C      0.19061  0.42614    0.151     C
C      0.19061  0.76447    0.651     C
C      0.19323  0.40107   0.2189     C
C      0.19323  0.79216   0.7189     C
O      0.19361   0.0415  0.34373     O
O      0.19361   0.1521  0.84373     O
O      0.19626  0.55433   0.8667     O
O      0.19626  0.64193   0.3667     O
In     0.19765  0.02138  0.21985    In
In     0.19765  0.17626  0.71985    In
C      0.20006  0.35125    0.739     C
C      0.20006  0.84881    0.239     C
O      0.20008  0.05086  0.08174     O
O      0.20008  0.14921  0.58174     O
H      0.20737  0.09283  0.47103     H
H      0.20737  0.11453  0.97103     H
C      0.20784  0.40107   0.7189     C
C      0.20784  0.80677   0.2189     C
C      0.20836  0.27174   0.7075     C
C      0.20836  0.93662   0.2075     C
H       0.2188   0.4593   0.1377     H
H       0.2188   0.7595   0.6377     H
C      0.21917  0.32616   0.6903     C
C      0.21917  0.89301   0.1903     C
O      0.22568  0.25066   0.6588     O
O      0.22568  0.97502   0.1588     O
C      0.23553  0.42614    0.651     C
C      0.23553  0.80939    0.151     C
O      0.23623  0.40825  0.34111     O
O      0.23623  0.82798  0.84111     O
C      0.23904  0.09263  0.10513     C
C      0.23904   0.1464  0.60513     C
C      0.24041  0.05193  0.35943     C
C      0.24041  0.18847  0.85943     C
H       0.2405   0.4593   0.6377     H
H       0.2405   0.7812   0.1377     H
C      0.24053   0.0978  0.48433     C
C      0.24053  0.14272  0.98433     C
C       0.2407  0.42763   0.2718     C
C       0.2407  0.81307   0.7718     C
C      0.24274  0.56104     0.87     C
C      0.24274   0.6817     0.37     C
C      0.24807   0.3529    0.623     C
C      0.24807  0.89517    0.123     C
H       0.2482   0.5935   0.3646     H
H       0.2482   0.6547   0.8646     H
O      0.25019  0.52265  0.88057     O
O      0.25019  0.72754  0.38057     O
C      0.25573  0.40208   0.6031     C
C      0.25573  0.85365   0.1031     C
O      0.25842   0.0971  0.17444     O
O      0.25842  0.16131  0.67444     O
H       0.2623   0.3372   0.5913     H
H       0.2623   0.9251   0.0913     H
C      0.26459   0.0776  0.43643     C
C      0.26459  0.18698  0.93643     C
C       0.2656  0.12549  0.55223     C
C       0.2656   0.1401  0.05223     C
O      0.26689  0.04332  0.31041     O
O      0.26689  0.22356  0.81041     O
O      0.27246  0.52265  0.38057     O
O      0.27246  0.74981  0.88057     O
C       0.2814  0.42626   0.5261     C
C       0.2814  0.85514   0.0261     C
C      0.28214  0.62271   0.3643     C
C      0.28214  0.65943   0.8643     C
O      0.28247  0.46659  0.24841     O
O      0.28247  0.81588  0.74841     O
C      0.28949  0.61576    0.864     C
C      0.28949  0.67373    0.364     C
O      0.29001  0.39978  0.47708     O
O      0.29001  0.89023  0.97708     O
O      0.29183  0.47306   0.5104     O
O      0.29183  0.81877   0.0104     O
In     0.31195  0.46902  0.38651    In
In     0.31195  0.84293  0.88651    In
C      0.31377  0.08526  0.45633     C
C      0.31377   0.2285  0.95633     C
C      0.31542  0.13327  0.57233     C
C      0.31542  0.18214  0.07233     C
C       0.3183  0.56104     0.37     C
C       0.3183  0.75726     0.87     C
C      0.32627  0.61576    0.364     C
C      0.32627  0.71051    0.864     C
H      0.32947  0.07103  0.42463     H
H      0.32947  0.25843  0.92463     H
H      0.33187  0.15123  0.61833     H
H      0.33187  0.18063  0.11833     H
C      0.34051  0.11416  0.52363     C
C      0.34051  0.22634  0.02363     C
C      0.34057  0.62271   0.8643     C
C      0.34057  0.71786   0.3643     C
H       0.3453   0.5935   0.8646     H
H       0.3453   0.7518   0.3646     H
O      0.35807  0.55433   0.3667     O
O      0.35807  0.80374   0.8667     O
O      0.35831  0.44099  0.32547     O
O      0.35831  0.91733  0.82547     O
C      0.37729  0.65943   0.3643     C
C      0.37729  0.71786   0.8643     C
C      0.38424  0.67373    0.864     C
C      0.38424  0.71051    0.364     C
C      0.39493  0.12497  0.54083     C
C      0.39493  0.26995  0.04083     C
C      0.39671  0.45831  0.37417     C
C      0.39671  0.93841  0.87417     C
O      0.39879  0.48536  0.43272     O
O      0.39879  0.91344  0.93272     O
H       0.4065   0.6547   0.3646     H
H       0.4065   0.7518   0.8646     H
H      0.40823  0.00387  0.75797     H
H      0.40823  0.40437  0.25797     H
O      0.41601  0.10765  0.49213     O
O      0.41601  0.30835  0.99213     O
O       0.4199  0.15202  0.59938     O
O       0.4199  0.26787  0.09938     O
C      0.43816  0.01957  0.78967     C
C      0.43816   0.4186  0.28967     C
C      0.43896   0.6817     0.87     C
C      0.43896  0.75726     0.37     C
C      0.44032   0.4475  0.35697     C
C      0.44032  0.99283  0.85697     C
O       0.4431  0.06645  0.64375     O
O       0.4431  0.37666  0.14375     O
O      0.44567  0.64193   0.8667     O
O      0.44567  0.80374   0.3667     O
O      0.47735  0.72754  0.88057     O
O      0.47735  0.74981  0.38057     O
C      0.47819  0.09293  0.69277     C
C      0.47819  0.38527  0.19277     C
C      0.47968  0.06875  0.76977     C
C      0.47968  0.41094  0.26977     C
C      0.48452  0.01792  0.90567     C
C      0.48452  0.46661  0.40567     C
H      0.48603  0.00147  0.95167     H
H      0.48603  0.48457  0.45167     H
In      0.4904  0.13569  0.55318    In
In      0.4904  0.35472  0.05318    In
O      0.50535  0.07492  0.50778     O
O      0.50535  0.43044  0.00778     O
O      0.51456  0.13973  0.67707     O
O      0.51456  0.37484  0.17707     O
O      0.51464  0.60121  0.93272     O
O      0.51464  0.91344  0.43272     O
H      0.51543  0.00147  0.45167     H
H      0.51543  0.51397  0.95167     H
O      0.51745  0.13326  0.41508     O
O      0.51745   0.3842  0.91508     O
C      0.52026   0.0943  0.43847     C
C      0.52026  0.42597  0.93847     C
C      0.52394  0.09281  0.81767     C
C      0.52394  0.43114  0.31767     C
C      0.52656  0.06774  0.88557     C
C      0.52656  0.45883  0.38557     C
O      0.52694  0.70817   0.0104     O
O      0.52694  0.81877   0.5104     O
O      0.52959    0.221  0.53337     O
O      0.52959   0.3086  0.03337     O
In     0.53098  0.68805  0.88651    In
In     0.53098  0.84293  0.38651    In
C      0.53339  0.01792  0.40567     C
C      0.53339  0.51548  0.90567     C
O      0.53341  0.71753  0.74841     O
O      0.53341  0.81588  0.24841     O
H       0.5407   0.7595   0.1377     H
H       0.5407   0.7812   0.6377     H
C      0.54117  0.06774  0.38557     C
C      0.54117  0.47344  0.88557     C
C      0.54169  0.60329  0.87417     C
C      0.54169  0.93841  0.37417     C
H      0.55213  0.12597  0.80437     H
H      0.55213  0.42617  0.30437     H
C       0.5525  0.55968  0.85697     C
C       0.5525  0.99283  0.35697     C
O      0.55901  0.64169  0.82547     O
O      0.55901  0.91733  0.32547     O
C      0.56886  0.09281  0.31767     C
C      0.56886  0.47606  0.81767     C
O      0.56956  0.07492  0.00778     O
O      0.56956  0.49465  0.50778     O
C      0.57237   0.7593   0.7718     C
C      0.57237  0.81307   0.2718     C
C      0.57374   0.7186   0.0261     C
C      0.57374  0.85514   0.5261     C
H      0.57383  0.12597  0.30437     H
H      0.57383  0.44787  0.80437     H
C      0.57386  0.76447    0.151     C
C      0.57386  0.80939    0.651     C
C      0.57403   0.0943  0.93847     C
C      0.57403  0.47974  0.43847     C
C      0.57607  0.22771  0.53667     C
C      0.57607  0.34837  0.03667     C
C       0.5814  0.01957  0.28967     C
C       0.5814  0.56184  0.78967     C
H      0.58153  0.26017  0.03127     H
H      0.58153  0.32137  0.53127     H
O      0.58352  0.18932  0.54724     O
O      0.58352  0.39421  0.04724     O
C      0.58906  0.06875  0.26977     C
C      0.58906  0.52032  0.76977     C
O      0.59175  0.76377  0.84111     O
O      0.59175  0.82798  0.34111     O
H      0.59563  0.00387  0.25797     H
H      0.59563  0.59177  0.75797     H
C      0.59792  0.74427   0.1031     C
C      0.59792  0.85365   0.6031     C
C      0.59893  0.79216   0.2189     C
C      0.59893  0.80677   0.7189     C
O      0.60022  0.70999  0.97708     O
O      0.60022  0.89023  0.47708     O
O      0.60579  0.18932  0.04724     O
O      0.60579  0.41648  0.54724     O
C      0.61473  0.09293  0.19277     C
C      0.61473  0.52181  0.69277     C
C      0.61547  0.28938  0.03097     C
C      0.61547   0.3261  0.53097     C
O       0.6158  0.13326  0.91508     O
O       0.6158  0.48255  0.41508     O
C      0.62282  0.28243  0.53067     C
C      0.62282   0.3404  0.03067     C
O      0.62334  0.06645  0.14375     O
O      0.62334   0.5569  0.64375     O
O      0.62516  0.13973  0.17707     O
O      0.62516  0.48544  0.67707     O
In     0.64528  0.13569  0.05318    In
In     0.64528   0.5096  0.55318    In
C       0.6471  0.75193    0.123     C
C       0.6471  0.89517    0.623     C
C      0.64875  0.79994    0.239     C
C      0.64875  0.84881    0.739     C
C      0.65163  0.22771  0.03667     C
C      0.65163  0.42393  0.53667     C
C       0.6596  0.28243  0.03067     C
C       0.6596  0.37718  0.53067     C
H       0.6628   0.7377   0.0913     H
H       0.6628   0.9251   0.5913     H
H       0.6652   0.8179    0.285     H
H       0.6652   0.8473    0.785     H
C      0.67384  0.78083   0.1903     C
C      0.67384  0.89301   0.6903     C
C       0.6739  0.28938  0.53097     C
C       0.6739  0.38453  0.03097     C
H      0.67863  0.26017  0.53127     H
H      0.67863  0.41847  0.03127     H
O       0.6914    0.221  0.03337     O
O       0.6914  0.47041  0.53337     O
O      0.69165  0.10765  0.99213     O
O      0.69165  0.58399  0.49213     O
C      0.71062   0.3261  0.03097     C
C      0.71062  0.38453  0.53097     C
C      0.71757   0.3404  0.53067     C
C      0.71757  0.37718  0.03067     C
C      0.72826  0.79164   0.2075     C
C      0.72826  0.93662   0.7075     C
C      0.73005  0.12497  0.04083     C
C      0.73005  0.60507  0.54083     C
O      0.73213  0.15202  0.09938     O
O      0.73213   0.5801  0.59938     O
H      0.73983  0.32137  0.03127     H
H      0.73983  0.41847  0.53127     H
H      0.74157  0.07103  0.92463     H
H      0.74157  0.67053  0.42463     H
O      0.74934  0.77432   0.1588     O
O      0.74934  0.97502   0.6588     O
O      0.75323  0.81869  0.26605     O
O      0.75323  0.93454  0.76605     O
C       0.7715  0.08526  0.95633     C
C       0.7715  0.68623  0.45633     C
C      0.77229  0.34837  0.53667     C
C      0.77229  0.42393  0.03667     C
C      0.77366  0.11416  0.02363     C
C      0.77366  0.65949  0.52363     C
O      0.77644  0.04332  0.81041     O
O      0.77644  0.73311  0.31041     O
O        0.779   0.3086  0.53337     O
O        0.779  0.47041  0.03337     O
O      0.81068  0.39421  0.54724     O
O      0.81068  0.41648  0.04724     O
C      0.81153  0.05193  0.85943     C
C      0.81153  0.75959  0.35943     C
C      0.81302   0.0776  0.93643     C
C      0.81302  0.73541  0.43643     C
C      0.81786  0.13327  0.07233     C
C      0.81786  0.68458  0.57233     C
H      0.81937  0.15123  0.11833     H
H      0.81937  0.66813  0.61833     H
In     0.82374  0.02138  0.71985    In
In     0.82374  0.80235  0.21985    In
O      0.83869   0.0971  0.67444     O
O      0.83869  0.74158  0.17444     O
O       0.8479   0.0415  0.84373     O
O       0.8479  0.80639  0.34373     O
O      0.84798  0.26787  0.59938     O
O      0.84798   0.5801  0.09938     O
H      0.84877  0.18063  0.61833     H
H      0.84877  0.66813  0.11833     H
O      0.85079  0.05086  0.58174     O
O      0.85079  0.79992  0.08174     O
C       0.8536  0.09263  0.60513     C
C       0.8536  0.76096  0.10513     C
C      0.85728   0.0978  0.98433     C
C      0.85728  0.75947  0.48433     C
C       0.8599  0.12549  0.05223     C
C       0.8599   0.7344  0.55223     C
O      0.86027  0.37484  0.67707     O
O      0.86027  0.48544  0.17707     O
O      0.86293  0.88766  0.20003     O
O      0.86293  0.97526  0.70003     O
In     0.86431  0.35472  0.55318    In
In     0.86431   0.5096  0.05318    In
C      0.86673  0.18214  0.57233     C
C      0.86673  0.68458  0.07233     C
O      0.86674   0.3842  0.41508     O
O      0.86674  0.48255  0.91508     O
H      0.87403  0.42617  0.80437     H
H      0.87403  0.44787  0.30437     H
C      0.87451   0.1401  0.55223     C
C      0.87451   0.7344  0.05223     C
C      0.87503  0.26995  0.54083     C
C      0.87503  0.60507  0.04083     C
H      0.88547  0.09283  0.97103     H
H      0.88547  0.79263  0.47103     H
C      0.88584  0.22634  0.52363     C
C      0.88584  0.65949  0.02363     C
O      0.89235  0.30835  0.49213     O
O      0.89235  0.58399  0.99213     O
C       0.9022  0.14272  0.48433     C
C       0.9022  0.75947  0.98433     C
O       0.9029  0.16131  0.17444     O
O       0.9029  0.74158  0.67444     O
C       0.9057  0.42597  0.43847     C
C       0.9057  0.47974  0.93847     C
C      0.90707  0.38527  0.69277     C
C      0.90707  0.52181  0.19277     C
H      0.90717  0.11453  0.47103     H
H      0.90717  0.79263  0.97103     H
C      0.90719  0.43114  0.81767     C
C      0.90719  0.47606  0.31767     C
C      0.90737   0.1464  0.10513     C
C      0.90737  0.76096  0.60513     C
C      0.90941  0.01503  0.70333     C
C      0.90941  0.89437  0.20333     C
C      0.91474   0.2285  0.45633     C
C      0.91474  0.68623  0.95633     C
H      0.91487  0.92683  0.69793     H
H      0.91487  0.98803  0.19793     H
O      0.91686  0.06087   0.7139     O
O      0.91686  0.85598   0.2139     O
C       0.9224  0.18698  0.43643     C
C       0.9224  0.73541  0.93643     C
O      0.92508  0.43044  0.50778     O
O      0.92508  0.49465  0.00778     O
H      0.92897  0.25843  0.42463     H
H      0.92897  0.67053  0.92463     H
C      0.93125  0.41094  0.76977     C
C      0.93125  0.52032  0.26977     C
C      0.93226  0.45883  0.88557     C
C      0.93226  0.47344  0.38557     C
O      0.93355  0.37666  0.64375     O
O      0.93355   0.5569  0.14375     O
O      0.93913  0.08314   0.2139     O
O      0.93913  0.85598   0.7139     O
C      0.94807  0.18847  0.35943     C
C      0.94807  0.75959  0.85943     C
C      0.94881  0.95604  0.69763     C
C      0.94881  0.99276  0.19763     C
O      0.94914  0.14921  0.08174     O
O      0.94914  0.79992  0.58174     O
C      0.95616  0.00706  0.69733     C
C      0.95616  0.94909  0.19733     C
O      0.95668  0.22356  0.31041     O
O      0.95668  0.73311  0.81041     O
O       0.9585   0.1521  0.34373     O
O       0.9585  0.80639  0.84373     O
In     0.97862  0.17626  0.21985    In
In     0.97862  0.80235  0.71985    In
C      0.98043   0.4186  0.78967     C
C      0.98043  0.56184  0.28967     C
C      0.98208  0.46661  0.90567     C
C      0.98208  0.51548  0.40567     C
C      0.98497  0.09059  0.20333     C
C      0.98497  0.89437  0.70333     C
C      0.99294  0.04384  0.19733     C
C      0.99294  0.94909  0.69733     C
H      0.99613  0.40437  0.75797     H
H      0.99613  0.59177  0.25797     H
H      0.99853  0.48457  0.95167     H
H      0.99853  0.51397  0.45167     H
