data_I
_chemical_name_common  '/home/zhangsd/repos/MofS-CGCNN/ML/data/SSD/clean_cifs/CUFFAL_clean'
_cell_length_a 29.15500
_cell_length_b 29.15500
_cell_length_c 17.36700
_cell_angle_alpha 90.00000
_cell_angle_beta  90.00000
_cell_angle_gamma 120.00000
_space_group_name_H-M_alt      'P 1'


loop_
_space_group_symop_operation_xyz
  'x, y, z' 

loop_
_atom_site_label
_atom_site_fract_x
_atom_site_fract_y
_atom_site_fract_z
_atom_site_type_symbol
H      0.00177  0.48183  0.54943     H
H      0.00177  0.51993  0.04943     H
C      0.00793  0.05137  0.29367     C
C      0.00793  0.95657  0.79367     C
C      0.01237  0.43803  0.71643     C
C      0.01237  0.57433  0.21643     C
C      0.01577  0.48203  0.59763     C
C      0.01577  0.53373  0.09763     C
C      0.01843  0.10717  0.29287     C
C      0.01843  0.91127  0.79287     C
In     0.02686   0.2006  0.28118    In
In     0.02686  0.82627  0.78118    In
C      0.04343  0.05137  0.79367     C
C      0.04343  0.99207  0.29367     C
O      0.04903  0.19937  0.16027     O
O      0.04903  0.84967  0.66027     O
O      0.05133  0.27277  0.19417     O
O      0.05133  0.77857  0.69417     O
C      0.05203  0.00867  0.79447     C
C      0.05203  0.04337  0.29447     C
O      0.05613  0.19907  0.41777     O
O      0.05613  0.85707  0.91777     O
C      0.06033  0.24667  0.14477     C
C      0.06033  0.81367  0.64477     C
O      0.06057  0.44523  0.86083     O
O      0.06057  0.61533  0.36083     O
C      0.06187  0.47993  0.73673     C
C      0.06187  0.58193  0.23673     C
O      0.06483  0.14507  0.28627     O
O      0.06483  0.91977  0.78627     O
C      0.06487  0.52453  0.62003     C
C      0.06487  0.54033  0.12003     C
O      0.07297  0.50633  0.99863     O
O      0.07297  0.56663  0.49863     O
H      0.07973  0.33777  0.08177     H
H      0.07973  0.74197  0.58177     H
O      0.08023  0.14507  0.78627     O
O      0.08023  0.93517  0.28627     O
C      0.08473  0.27147  0.07007     C
C      0.08473  0.81327  0.57007     C
H      0.08633  0.01427  0.79547     H
H      0.08633  0.07207  0.29547     H
C      0.08667  0.48033  0.81143     C
C      0.08667  0.60633  0.31143     C
C      0.08697  0.52433  0.68583     C
C      0.08697  0.56263  0.18583     C
C      0.08873  0.10717  0.79287     C
C      0.08873  0.98157  0.29287     C
C      0.09233  0.32097  0.04977     C
C      0.09233  0.77137  0.54977     C
C      0.09337  0.52183  0.06333     C
C      0.09337  0.57153  0.56333     C
C      0.09513  0.23997  0.39667     C
C      0.09513  0.85517  0.89667     C
O      0.10003  0.26037  0.33197     O
O      0.10003  0.83967  0.83197     O
H      0.10073  0.21397  0.03287     H
H      0.10073  0.88677  0.53287     H
C      0.10403  0.24637  0.01917     C
C      0.10403  0.85767  0.51917     C
O      0.11157  0.42163  0.01113     O
O      0.11157  0.68993  0.51113     O
H      0.11323  0.21397  0.53287     H
H      0.11323  0.89927  0.03287     H
C      0.11873  0.34567  0.98207     C
C      0.11873  0.77307  0.48207     C
H      0.11937  0.55343  0.69953     H
H      0.11937  0.56593  0.19953     H
C      0.12633  0.26847  0.95337     C
C      0.12633  0.85787  0.45337     C
C      0.12637  0.39823  0.96193     C
C      0.12637  0.72813  0.46193     C
In     0.13274  0.49293  0.94784    In
In     0.13274   0.6398  0.44784    In
C      0.13293  0.31757  0.93097     C
C      0.13293  0.81537  0.43097     C
O      0.13397  0.51633  0.82693     O
O      0.13397  0.61763  0.32693     O
O      0.13427  0.52373  0.08443     O
O      0.13427  0.61053  0.58443     O
O      0.13553  0.02117  0.29437     O
O      0.13553  0.11437  0.79437     O
C      0.14213  0.26847  0.45337     C
C      0.14213  0.87367  0.95337     C
C      0.14233  0.24637  0.51917     C
C      0.14233  0.89597  0.01917     C
O      0.14293  0.19907  0.91777     O
O      0.14293  0.94387  0.41777     O
C      0.14483  0.23997  0.89667     C
C      0.14483  0.90487  0.39667     C
H      0.14673  0.33157  0.88277     H
H      0.14673  0.81517  0.38277     H
O      0.14827  0.42143  0.89873     O
O      0.14827  0.72683  0.39873     O
O      0.15033  0.19937  0.66027     O
O      0.15033  0.95097  0.16027     O
O      0.16033  0.26037  0.83197     O
O      0.16033  0.89997  0.33197     O
In     0.17373   0.2006  0.78118    In
In     0.17373  0.97314  0.28118    In
C      0.18463  0.31757  0.43097     C
C      0.18463  0.86707  0.93097     C
H      0.18483  0.33157  0.38277     H
H      0.18483  0.85327  0.88277     H
C      0.18633  0.24667  0.64477     C
C      0.18633  0.93967  0.14477     C
C      0.18673  0.27147  0.57007     C
C      0.18673  0.91527  0.07007     C
O      0.18827  0.58643  0.95293     O
O      0.18827  0.60183  0.45293     O
O      0.21897  0.53113  0.96103     O
O      0.21897  0.68783  0.46103     O
O      0.22143  0.27277  0.69417     O
O      0.22143  0.94867  0.19417     O
C      0.22617  0.57793  0.95953     C
C      0.22617  0.64823  0.45953     C
C      0.22693  0.34567  0.48207     C
C      0.22693  0.88127  0.98207     C
C      0.22863  0.32097  0.54977     C
C      0.22863  0.90767  0.04977     C
O      0.24503  0.02327  0.34447     O
O      0.24503  0.22177  0.84447     O
O      0.24523  0.06017  0.23207     O
O      0.24523  0.18507  0.73207     O
H      0.25803  0.33777  0.58177     H
H      0.25803  0.92027  0.08177     H
H      0.26127  0.58033  0.46213     H
H      0.26127  0.68093  0.96213     H
C      0.26843  0.06147  0.29527     C
C      0.26843  0.20697  0.79527     C
C      0.27187  0.39823  0.46193     C
C      0.27187  0.87363  0.96193     C
O      0.27317  0.42143  0.39873     O
O      0.27317  0.85173  0.89873     O
C      0.28197  0.62323  0.96033     C
C      0.28197  0.65873  0.46033     C
C      0.28997  0.61463  0.46113     C
C      0.28997  0.67533  0.96113     C
O      0.31007  0.42163  0.51113     O
O      0.31007  0.88843  0.01113     O
O      0.31217  0.53113  0.46103     O
O      0.31217  0.78103  0.96103     O
H      0.31907  0.58033  0.96213     H
H      0.31907  0.73873  0.46213     H
C        0.321   0.1064   0.3154     C
C        0.321   0.2146   0.8154     C
C      0.32467  0.61463  0.96113     C
C      0.32467  0.71003  0.46113     C
H       0.3289   0.0753   0.4151     H
H       0.3289   0.2536   0.9151     H
H       0.3351   0.1485   0.2161     H
H       0.3351   0.1866   0.7161     H
C      0.34127  0.62323  0.46033     C
C      0.34127  0.71803  0.96033     C
C       0.3457   0.1047   0.3831     C
C       0.3457    0.241   0.8831     C
C       0.3491   0.1487   0.2643     C
C       0.3491   0.2004   0.7643     C
C      0.35177  0.57793  0.45953     C
C      0.35177  0.77383  0.95953     C
In      0.3602  0.49293  0.44784    In
In      0.3602  0.86726  0.94784    In
C      0.37677  0.65873  0.96033     C
C      0.37677  0.71803  0.46033     C
O      0.38237  0.51633  0.32693     O
O      0.38237  0.86603  0.82693     O
O      0.38467  0.44523  0.36083     O
O      0.38467  0.93943  0.86083     O
C      0.38537  0.67533  0.46113     C
C      0.38537  0.71003  0.96113     C
O      0.38947  0.52373  0.58443     O
O      0.38947  0.86573  0.08443     O
C      0.39367  0.48033  0.31143     C
C      0.39367  0.91333  0.81143     C
O       0.3939   0.1119   0.5275     O
O       0.3939    0.282   0.0275     O
C       0.3952   0.1466   0.4034     C
C       0.3952   0.2486   0.9034     C
O      0.39817  0.58643  0.45293     O
O      0.39817  0.81173  0.95293     O
C       0.3982   0.1912   0.2867     C
C       0.3982    0.207   0.7867     C
O       0.4063    0.173   0.6653     O
O       0.4063   0.2333   0.1653     O
H      0.41307  0.00443  0.74843     H
H      0.41307  0.40863  0.24843     H
O      0.41357  0.60183  0.95293     O
O      0.41357  0.81173  0.45293     O
C      0.41807  0.47993  0.23673     C
C      0.41807  0.93813  0.73673     C
H      0.41967  0.68093  0.46213     H
H      0.41967  0.73873  0.96213     H
C         0.42    0.147   0.4781     C
C         0.42    0.273   0.9781     C
C       0.4203    0.191   0.3525     C
C       0.4203   0.2293   0.8525     C
C      0.42207  0.64823  0.95953     C
C      0.42207  0.77383  0.45953     C
C      0.42567  0.43803  0.21643     C
C      0.42567  0.98763  0.71643     C
C       0.4267   0.1885     0.73     C
C       0.4267   0.2382     0.23     C
C      0.42847  0.52183  0.56333     C
C      0.42847  0.90663  0.06333     C
O      0.43337  0.50633  0.49863     O
O      0.43337  0.92703  0.99863     O
H      0.43407  0.55343  0.19953     H
H      0.43407  0.88063  0.69953     H
C      0.43737  0.52433  0.18583     C
C      0.43737  0.91303  0.68583     C
O       0.4449   0.0883   0.6778     O
O       0.4449   0.3566   0.1778     O
H      0.44657  0.56593  0.69953     H
H      0.44657  0.88063  0.19953     H
C      0.45207  0.01233  0.64873     C
C      0.45207  0.43973  0.14873     C
H       0.4527   0.2201   0.3662     H
H       0.4527   0.2326   0.8662     H
C      0.45967  0.52453  0.12003     C
C      0.45967  0.93513  0.62003     C
C       0.4597   0.0649   0.6286     C
C       0.4597   0.3948   0.1286     C
In     0.46607   0.1596  0.61451    In
In     0.46607  0.30647  0.11451    In
C      0.46627  0.48203  0.09763     C
C      0.46627  0.98423  0.59763     C
O       0.4673    0.183   0.4936     O
O       0.4673   0.2843   0.9936     O
O       0.4676   0.1904   0.7511     O
O       0.4676   0.2772   0.2511     O
O      0.46887  0.68783  0.96103     O
O      0.46887  0.78103  0.46103     O
C      0.47547  0.54033  0.62003     C
C      0.47547  0.93513  0.12003     C
C      0.47567  0.56263  0.68583     C
C      0.47567  0.91303  0.18583     C
O      0.47627  0.61053  0.08443     O
O      0.47627  0.86573  0.58443     O
C      0.47817  0.57153  0.06333     C
C      0.47817  0.90663  0.56333     C
H      0.48007  0.48183  0.04943     H
H      0.48007  0.99823  0.54943     H
O       0.4816   0.0881   0.5654     O
O       0.4816   0.3935   0.0654     O
O      0.48367  0.61763  0.82693     O
O      0.48367  0.86603  0.32693     O
O      0.49367  0.56663  0.99863     O
O      0.49367  0.92703  0.49863     O
In     0.50707   0.6398  0.94784    In
In     0.50707  0.86726  0.44784    In
C      0.51797  0.53373  0.59763     C
C      0.51797  0.98423  0.09763     C
H      0.51817  0.51993  0.54943     H
H      0.51817  0.99823  0.04943     H
C      0.51967  0.60633  0.81143     C
C      0.51967  0.91333  0.31143     C
C      0.52007  0.58193  0.73673     C
C      0.52007  0.93813  0.23673     C
O       0.5216   0.2531   0.6196     O
O       0.5216   0.2685   0.1196     O
O       0.5523   0.1978   0.6277     O
O       0.5523   0.3545   0.1277     O
O      0.55477  0.61533  0.86083     O
O      0.55477  0.93943  0.36083     O
C       0.5595   0.2446   0.6262     C
C       0.5595   0.3149   0.1262     C
C      0.56027  0.01233  0.14873     C
C      0.56027  0.54793  0.64873     C
C      0.56197  0.57433  0.71643     C
C      0.56197  0.98763  0.21643     C
O      0.57837  0.68993  0.01113     O
O      0.57837  0.88843  0.51113     O
O      0.57857  0.72683  0.89873     O
O      0.57857  0.85173  0.39873     O
H      0.59137  0.00443  0.24843     H
H      0.59137  0.58693  0.74843     H
H       0.5946    0.247   0.1288     H
H       0.5946   0.3476   0.6288     H
C      0.60177  0.72813  0.96193     C
C      0.60177  0.87363  0.46193     C
C       0.6052   0.0649   0.1286     C
C       0.6052   0.5403   0.6286     C
O       0.6065   0.0881   0.0654     O
O       0.6065   0.5184   0.5654     O
C       0.6153   0.2899    0.627     C
C       0.6153   0.3254    0.127     C
C       0.6233   0.2813   0.1278     C
C       0.6233    0.342   0.6278     C
O       0.6434   0.0883   0.1778     O
O       0.6434   0.5551   0.6778     O
O       0.6455   0.1978   0.1277     O
O       0.6455   0.4477   0.6277     O
H       0.6524    0.247   0.6288     H
H       0.6524   0.4054   0.1288     H
C      0.65433  0.77307  0.98207     C
C      0.65433  0.88127  0.48207     C
C        0.658   0.2813   0.6278     C
C        0.658   0.3767   0.1278     C
H      0.66223  0.74197  0.08177     H
H      0.66223  0.92027  0.58177     H
H      0.66843  0.81517  0.88277     H
H      0.66843  0.85327  0.38277     H
C       0.6746   0.2899    0.127     C
C       0.6746   0.3847    0.627     C
C      0.67903  0.77137  0.04977     C
C      0.67903  0.90767  0.54977     C
C      0.68243  0.81537  0.93097     C
C      0.68243  0.86707  0.43097     C
C       0.6851   0.2446   0.1262     C
C       0.6851   0.4405   0.6262     C
In     0.69353   0.1596  0.11451    In
In     0.69353  0.53393  0.61451    In
C       0.7101   0.3254    0.627     C
C       0.7101   0.3847    0.127     C
O       0.7157    0.183   0.9936     O
O       0.7157   0.5327   0.4936     O
O        0.718   0.1119   0.0275     O
O        0.718   0.6061   0.5275     O
C       0.7187    0.342   0.1278     C
C       0.7187   0.3767   0.6278     C
O       0.7228   0.1904   0.2511     O
O       0.7228   0.5324   0.7511     O
C        0.727    0.147   0.9781     C
C        0.727     0.58   0.4781     C
O      0.72723  0.77857  0.19417     O
O      0.72723  0.94867  0.69417     O
C      0.72853  0.81327  0.07007     C
C      0.72853  0.91527  0.57007     C
O       0.7315   0.2531   0.1196     O
O       0.7315   0.4784   0.6196     O
C      0.73153  0.85787  0.95337     C
C      0.73153  0.87367  0.45337     C
O      0.73963  0.83967  0.33197     O
O      0.73963  0.89997  0.83197     O
H       0.7464   0.0753   0.9151     H
H       0.7464   0.6711   0.4151     H
O       0.7469   0.2685   0.6196     O
O       0.7469   0.4784   0.1196     O
C       0.7514   0.1466   0.9034     C
C       0.7514   0.6048   0.4034     C
H        0.753   0.3476   0.1288     H
H        0.753   0.4054   0.6288     H
C      0.75333  0.81367  0.14477     C
C      0.75333  0.93967  0.64477     C
C      0.75363  0.85767  0.01917     C
C      0.75363  0.89597  0.51917     C
C       0.7554   0.3149   0.6262     C
C       0.7554   0.4405   0.1262     C
C        0.759   0.1047   0.8831     C
C        0.759   0.6543   0.3831     C
C      0.76003  0.85517  0.39667     C
C      0.76003  0.90487  0.89667     C
C       0.7618   0.1885     0.23     C
C       0.7618   0.5733     0.73     C
O       0.7667    0.173   0.1653     O
O       0.7667   0.5937   0.6653     O
H       0.7674   0.2201   0.8662     H
H       0.7674   0.5473   0.3662     H
C       0.7707    0.191   0.8525     C
C       0.7707   0.5797   0.3525     C
O      0.77823  0.02327  0.84447     O
O      0.77823  0.75497  0.34447     O
H       0.7799   0.2326   0.3662     H
H       0.7799   0.5473   0.8662     H
C       0.7854   0.1064   0.8154     C
C       0.7854    0.679   0.3154     C
H      0.78603  0.88677  0.03287     H
H      0.78603  0.89927  0.53287     H
C        0.793   0.1912   0.7867     C
C        0.793   0.6018   0.2867     C
C      0.79303  0.06147  0.79527     C
C      0.79303  0.73157  0.29527     C
In      0.7994  0.82627  0.28118    In
In      0.7994  0.97314  0.78118    In
C       0.7996   0.1487   0.7643     C
C       0.7996   0.6509   0.2643     C
O      0.80063  0.84967  0.16027     O
O      0.80063  0.95097  0.66027     O
O      0.80093  0.85707  0.41777     O
O      0.80093  0.94387  0.91777     O
O       0.8022   0.3545   0.6277     O
O       0.8022   0.4477   0.1277     O
C       0.8088    0.207   0.2867     C
C       0.8088   0.6018   0.7867     C
C        0.809   0.2293   0.3525     C
C        0.809   0.5797   0.8525     C
O       0.8096   0.2772   0.7511     O
O       0.8096   0.5324   0.2511     O
C       0.8115   0.2382     0.73     C
C       0.8115   0.5733     0.23     C
H       0.8134   0.1485   0.7161     H
H       0.8134   0.6649   0.2161     H
O      0.81493  0.06017  0.73207     O
O      0.81493  0.75477  0.23207     O
O        0.817   0.2843   0.4936     O
O        0.817   0.5327   0.9936     O
O        0.827   0.2333   0.6653     O
O        0.827   0.5937   0.1653     O
In      0.8404  0.30647  0.61451    In
In      0.8404  0.53393  0.11451    In
C       0.8513   0.2004   0.2643     C
C       0.8513   0.6509   0.7643     C
H       0.8515   0.1866   0.2161     H
H       0.8515   0.6649   0.7161     H
C        0.853    0.273   0.4781     C
C        0.853     0.58   0.9781     C
C       0.8534   0.2486   0.4034     C
C       0.8534   0.6048   0.9034     C
O      0.85493  0.91977  0.28627     O
O      0.85493  0.93517  0.78627     O
O      0.88563  0.02117  0.79437     O
O      0.88563  0.86447  0.29437     O
O       0.8881    0.282   0.5275     O
O       0.8881   0.6061   0.0275     O
C      0.89283  0.91127  0.29287     C
C      0.89283  0.98157  0.79287     C
C       0.8936   0.2146   0.3154     C
C       0.8936    0.679   0.8154     C
C       0.8953    0.241   0.3831     C
C       0.8953   0.6543   0.8831     C
O       0.9117   0.3566   0.6778     O
O       0.9117   0.5551   0.1778     O
O       0.9119   0.3935   0.5654     O
O       0.9119   0.5184   0.0654     O
H       0.9247   0.2536   0.4151     H
H       0.9247   0.6711   0.9151     H
H      0.92793  0.01427  0.29547     H
H      0.92793  0.91367  0.79547     H
C       0.9351   0.3948   0.6286     C
C       0.9351   0.5403   0.1286     C
C      0.93853  0.20697  0.29527     C
C      0.93853  0.73157  0.79527     C
O      0.93983  0.18507  0.23207     O
O      0.93983  0.75477  0.73207     O
C      0.94863  0.95657  0.29367     C
C      0.94863  0.99207  0.79367     C
C      0.95663  0.00867  0.29447     C
C      0.95663  0.94797  0.79447     C
O      0.97673  0.22177  0.34447     O
O      0.97673  0.75497  0.84447     O
O      0.97883  0.11437  0.29437     O
O      0.97883  0.86447  0.79437     O
H      0.98573  0.07207  0.79547     H
H      0.98573  0.91367  0.29547     H
C      0.98767  0.43973  0.64873     C
C      0.98767  0.54793  0.14873     C
C      0.99133  0.04337  0.79447     C
C      0.99133  0.94797  0.29447     C
H      0.99557  0.40863  0.74843     H
H      0.99557  0.58693  0.24843     H
