data_I
_chemical_name_common  '/home/zhangsd/repos/MofS-CGCNN/ML/data/SSD/clean_cifs/CUGVUX_clean'
_cell_length_a 10.77200
_cell_length_b 21.75240
_cell_length_c  9.85780
_cell_angle_alpha 90.00000
_cell_angle_beta  111.72800
_cell_angle_gamma 90.00000
_space_group_name_H-M_alt      'P 1'


loop_
_space_group_symop_operation_xyz
  'x, y, z' 

loop_
_atom_site_label
_atom_site_fract_x
_atom_site_fract_y
_atom_site_fract_z
_atom_site_type_symbol
C       0.0075  0.54189   0.1842     C
C       0.0075  0.95811   0.6842     C
H       0.0138   0.5025   0.6475     H
H       0.0138   0.9975   0.1475     H
C       0.0364  0.52704   0.3276     C
C       0.0364  0.97296   0.8276     C
Cu     0.03656  0.61005  0.93618    Cu
Cu     0.03656  0.88995  0.43618    Cu
H       0.0643   0.0227   0.3874     H
H       0.0643   0.4773   0.8874     H
N       0.0795   0.5832   0.1437     N
N       0.0795   0.9168   0.6437     N
C       0.1413  0.55643   0.4358     C
C       0.1413  0.94357   0.9358     C
O      0.15527  0.10078  0.62115     O
O      0.15527  0.39922  0.12115     O
H       0.1619   0.5469   0.5337     H
H       0.1619   0.9531   0.0337     H
C       0.1822  0.61053   0.2479     C
C       0.1822  0.88947   0.7479     C
O       0.1942  0.15644   0.4508     O
O       0.1942  0.34356   0.9508     O
O      0.20038  0.66548   0.6349     O
O      0.20038  0.83452   0.1349     O
O      0.21034  0.58348   0.9455     O
O      0.21034  0.91652   0.4455     O
C       0.2145  0.60015   0.3957     C
C       0.2145  0.89985   0.8957     C
C        0.227   0.1178   0.5478     C
C        0.227   0.3822   0.0478     C
H       0.2344   0.6379   0.2197     H
H       0.2344   0.8621   0.7197     H
H        0.294   0.2326    0.805     H
H        0.294   0.2674    0.305     H
C       0.3011  0.66427   0.6029     C
C       0.3011  0.83573   0.1029     C
H       0.3029   0.5172   0.8078     H
H       0.3029   0.9828   0.3078     H
H       0.3069   0.1916   0.1486     H
H       0.3069   0.3084   0.6486     H
C       0.3148  0.61602   0.9692     C
C       0.3148  0.88398   0.4692     C
O       0.3169  0.06032   0.1375     O
O       0.3169  0.43968   0.6375     O
N       0.3215  0.63408   0.4961     N
N       0.3215  0.86592   0.9961     N
O      0.33309  0.66845   0.0208     O
O      0.33309  0.83155   0.5208     O
H       0.3338     0.02   0.7181     H
H       0.3338     0.48   0.2181     H
H       0.3385   0.7484   0.3116     H
H       0.3385   0.7516   0.8116     H
C       0.3608  0.08726   0.5896     C
C       0.3608  0.41274   0.0896     C
C        0.371  0.23664   0.7841     C
C        0.371  0.26336   0.2841     C
C       0.3785  0.21836   0.1887     C
C       0.3785  0.28164   0.6887     C
C       0.3869  0.53508   0.8327     C
C       0.3869  0.96492   0.3327     C
C       0.3954   0.0364   0.6823     C
C       0.3954   0.4636   0.1823     C
C       0.4135  0.74901   0.7865     C
C       0.4135  0.75099   0.2865     C
C       0.4174  0.70486   0.6863     C
C       0.4174  0.79514   0.1863     C
C       0.4196  0.58639   0.9234     C
C       0.4196  0.91361   0.4234     C
H       0.4315   0.1458   0.4754     H
H       0.4315   0.3542   0.9754     H
C       0.4348  0.04314   0.1752     C
C       0.4348  0.45686   0.6752     C
C       0.4543  0.11195   0.5372     C
C       0.4543  0.38805   0.0372     C
N       0.4739  0.19894   0.8463     N
N       0.4739  0.30106   0.3463     N
O       0.4775  0.56627   0.3682     O
O       0.4775  0.93373   0.8682     O
C       0.4786  0.51021   0.7787     C
C       0.4786  0.98979   0.2787     C
N       0.4851  0.21216   0.1524     N
N       0.4851  0.28784   0.6524     N
Cu     0.49185  0.13412  0.99597    Cu
Cu     0.49185  0.36588  0.49597    Cu
Cu     0.50815  0.63412  0.50403    Cu
Cu     0.50815  0.86588  0.00403    Cu
N       0.5149  0.71216   0.3476     N
N       0.5149  0.78784   0.8476     N
C       0.5214  0.01021   0.7213     C
C       0.5214  0.48979   0.2213     C
O       0.5225  0.06627   0.1318     O
O       0.5225  0.43373   0.6318     O
N       0.5261  0.69894   0.6537     N
N       0.5261  0.80106   0.1537     N
C       0.5457  0.61195   0.9628     C
C       0.5457  0.88805   0.4628     C
C       0.5652  0.54314   0.3248     C
C       0.5652  0.95686   0.8248     C
H       0.5685   0.6458   0.0246     H
H       0.5685   0.8542   0.5246     H
C       0.5804  0.08639   0.5766     C
C       0.5804  0.41361   0.0766     C
C       0.5826  0.20486   0.8137     C
C       0.5826  0.29514   0.3137     C
C       0.5865  0.24901   0.7135     C
C       0.5865  0.25099   0.2135     C
C       0.6046   0.5364   0.8177     C
C       0.6046   0.9636   0.3177     C
C       0.6131  0.03508   0.6673     C
C       0.6131  0.46492   0.1673     C
C       0.6215  0.71836   0.3113     C
C       0.6215  0.78164   0.8113     C
C        0.629  0.73664   0.7159     C
C        0.629  0.76336   0.2159     C
C       0.6392  0.58726   0.9104     C
C       0.6392  0.91274   0.4104     C
H       0.6615   0.2484   0.1884     H
H       0.6615   0.2516   0.6884     H
H       0.6662     0.52   0.7819     H
H       0.6662     0.98   0.2819     H
O      0.66691  0.16845   0.4792     O
O      0.66691  0.33155   0.9792     O
N       0.6785  0.13408   0.0039     N
N       0.6785  0.36592   0.5039     N
O       0.6831  0.56032   0.3625     O
O       0.6831  0.93968   0.8625     O
C       0.6852  0.11602   0.5308     C
C       0.6852  0.38398   0.0308     C
H       0.6931   0.6916   0.3514     H
H       0.6931   0.8084   0.8514     H
H       0.6971   0.0172   0.6922     H
H       0.6971   0.4828   0.1922     H
C       0.6989  0.16427   0.8971     C
C       0.6989  0.33573   0.3971     C
H        0.706   0.7326    0.695     H
H        0.706   0.7674    0.195     H
H       0.7656   0.1379   0.2803     H
H       0.7656   0.3621   0.7803     H
C        0.773   0.6178   0.9522     C
C        0.773   0.8822   0.4522     C
C       0.7855  0.10015   0.1043     C
C       0.7855  0.39985   0.6043     C
O      0.78966  0.08348   0.5545     O
O      0.78966  0.41652   0.0545     O
O      0.79962  0.16548   0.8651     O
O      0.79962  0.33452   0.3651     O
O       0.8058  0.65644   0.0492     O
O       0.8058  0.84356   0.5492     O
C       0.8178  0.11053   0.2521     C
C       0.8178  0.38947   0.7521     C
H       0.8381   0.0469   0.9663     H
H       0.8381   0.4531   0.4663     H
O      0.84473  0.60078  0.87885     O
O      0.84473  0.89922  0.37885     O
C       0.8587  0.05643   0.0642     C
C       0.8587  0.44357   0.5642     C
N       0.9205   0.0832   0.3563     N
N       0.9205   0.4168   0.8563     N
H       0.9357   0.5227   0.1126     H
H       0.9357   0.9773   0.6126     H
Cu     0.96344  0.11005  0.56382    Cu
Cu     0.96344  0.38995  0.06382    Cu
C       0.9636  0.02704   0.1724     C
C       0.9636  0.47296   0.6724     C
H       0.9862   0.0025   0.8525     H
H       0.9862   0.4975   0.3525     H
C       0.9925  0.04189   0.3158     C
C       0.9925  0.45811   0.8158     C
