data_I
_chemical_name_common  '/home/zhangsd/repos/MofS-CGCNN/ML/data/SSD/clean_cifs/CUWNIT_clean'
_cell_length_a 28.83400
_cell_length_b 16.38100
_cell_length_c 23.19900
_cell_angle_alpha 90.00000
_cell_angle_beta  92.89300
_cell_angle_gamma 90.00000
_space_group_name_H-M_alt      'P 1'


loop_
_space_group_symop_operation_xyz
  'x, y, z' 

loop_
_atom_site_label
_atom_site_fract_x
_atom_site_fract_y
_atom_site_fract_z
_atom_site_type_symbol
O          0.0   0.0567     0.75     O
O          0.0   0.9433     0.25     O
C      0.00365   0.2943     0.51     C
C      0.00365   0.7057     0.01     C
C      0.00608    0.322   0.0456     C
C      0.00608    0.678   0.5456     C
H       0.0174   0.3481   0.4338     H
H       0.0174   0.6519   0.9338     H
H       0.0235   0.2341   0.9222     H
H       0.0235   0.7659   0.4222     H
C      0.03052   0.2548   0.9599     C
C      0.03052   0.7452   0.4599     C
C      0.03594   0.1024   0.7759     C
C      0.03594   0.8976   0.2759     C
H       0.0402   0.1874   0.7125     H
H       0.0402   0.8126   0.2125     H
H       0.0441    0.028   0.8462     H
H       0.0441    0.972   0.3462     H
O      0.04661   0.3023  0.53859     O
O      0.04661   0.6977  0.03859     O
H       0.0478   0.4567   0.5595     H
H       0.0478   0.5433   0.0595     H
C       0.0503   0.3115    0.071     C
C       0.0503   0.6885    0.571     C
C      0.05249   0.1714   0.7496     C
C      0.05249   0.8286   0.2496     C
C      0.05487   0.0765   0.8289     C
C      0.05487   0.9235   0.3289     C
H       0.0569   0.3298   0.1094     H
H       0.0569   0.6702   0.6094     H
C      0.07122   0.4418   0.5341     C
C      0.07122   0.5582   0.0341     C
C      0.07467   0.2457   0.9851     C
C      0.07467   0.7543   0.4851     C
C      0.07649   0.3617   0.5174     C
C      0.07649   0.6383   0.0174     C
C      0.08542    0.274   0.0406     C
C      0.08542    0.726   0.5406     C
C      0.08731   0.2175   0.7779     C
C      0.08731   0.7825   0.2779     C
C      0.08957   0.1223  0.85621     C
C      0.08957   0.8777  0.35621     C
H       0.0979   0.4441   0.0245     H
H       0.0979   0.5559   0.5245     H
H        0.098   0.2198   0.9642     H
H        0.098   0.7802   0.4642     H
H       0.0988   0.2651   0.7601     H
H       0.0988   0.7349   0.2601     H
C      0.10088   0.4994    0.013     C
C      0.10088   0.5006    0.513     C
H        0.103   0.1045   0.8923     H
H        0.103   0.8955   0.3923     H
C      0.10533   0.1941    0.832     C
C      0.10533   0.8059    0.332     C
C      0.11075   0.3387   0.4815     C
C      0.11075   0.6613   0.9815     C
H       0.1145    0.283   0.4714     H
H       0.1145    0.717   0.9714     H
C      0.13306   0.2662  0.06666     C
C      0.13306   0.7338  0.56666     C
C      0.13474   0.4792  0.47526     C
C      0.13474   0.5208  0.97526     C
C      0.13979   0.3983  0.46026     C
C      0.13979   0.6017  0.96026     C
O      0.14036   0.2859  0.11915     O
O      0.14036   0.7141  0.61915     O
C      0.14179   0.2463  0.86302     C
C      0.14179   0.7537  0.36302     C
O       0.1477  0.31634  0.84313     O
O       0.1477  0.68366  0.34313     O
H       0.1582   0.2922   0.5891     H
H       0.1582   0.7078   0.0891     H
H       0.1584   0.0398   0.5467     H
H       0.1584   0.9602   0.0467     H
O      0.16222  0.21572  0.90684     O
O      0.16222  0.78428  0.40684     O
H       0.1633   0.3831   0.4351     H
H       0.1633   0.6169   0.9351     H
C      0.16402   0.4554  0.94991     C
C      0.16402   0.5446  0.44991     C
O      0.16446   0.3865   0.9745     O
O      0.16446   0.6135   0.4745     O
O      0.16622  0.23888  0.03774     O
O      0.16622  0.76112  0.53774     O
H       0.1818   0.3302   0.6832     H
H       0.1818   0.6698   0.1832     H
H       0.1824   0.0855   0.0099     H
H       0.1824   0.9145   0.5099     H
C      0.18242    0.038   0.5202     C
C      0.18242    0.962   0.0202     C
C      0.18268   0.2637   0.6093     C
C      0.18268   0.7363   0.1093     C
O      0.18518  0.47403  0.90538     O
O      0.18518  0.52597  0.40538     O
O      0.18945   0.1834  0.52635     O
O      0.18945   0.8166  0.02635     O
C      0.19647   0.0361  0.99814     C
C      0.19647   0.9639  0.49814     C
C      0.19665   0.2859  0.66518     C
C      0.19665   0.7141  0.16518     C
Co     0.20194  0.28137  0.96484    Co
Co     0.20194  0.71863  0.46484    Co
C      0.20358   0.1088  0.50341     C
C      0.20358   0.8912  0.00341     C
C      0.20483   0.1992   0.5831     C
C      0.20483   0.8008   0.0831     C
Co     0.20489  0.39365  0.84334    Co
Co     0.20489  0.60635  0.34334    Co
Co     0.20884  0.25547  0.12981    Co
Co     0.20884  0.74453  0.62981    Co
H       0.2216    0.349    0.312     H
H       0.2216    0.651    0.812     H
H       0.2264   0.4664   0.5882     H
H       0.2264   0.5336   0.0882     H
O      0.22708   0.2779   0.2138     O
O      0.22708   0.7221   0.7138     O
O      0.22774   0.3321  0.77355     O
O      0.22774   0.6679  0.27355     O
C      0.23145   0.0378   0.9585     C
C      0.23145   0.9622   0.4585     C
O      0.23208  0.37213  0.10698     O
O      0.23208  0.62787  0.60698     O
C      0.23242   0.2436  0.69516     C
C      0.23242   0.7564  0.19516     C
C      0.23722   0.1088   0.4627     C
C      0.23722   0.8912   0.9627     C
H       0.2373   0.1421   0.0813     H
H       0.2373   0.8579   0.5813     H
C      0.24019   0.1564  0.61209     C
C      0.24019   0.8436  0.11209     C
O      0.24405  0.17701  0.97603     O
O      0.24405  0.82299  0.47603     O
O      0.24473  0.32399  0.90116     O
O      0.24473  0.67601  0.40116     O
H       0.2451   0.3881   0.4059     H
H       0.2451   0.6119   0.9059     H
C      0.24569   0.2678  0.75641     C
C      0.24569   0.7322  0.25641     C
C      0.24611   0.3204  0.33199     C
C      0.24611   0.6796  0.83199     C
C      0.24903    0.119  0.94037     C
C      0.24903    0.881  0.44037     C
C      0.24913   0.4653  0.55997     C
C      0.24913   0.5347  0.05997     C
H       0.2494   0.3415   0.5495     H
H       0.2494   0.6585   0.0495     H
H       0.2506   0.1585   0.4505     H
H       0.2506   0.8415   0.9505     H
C      0.25087   0.0347  0.44003     C
C      0.25087   0.9653  0.94003     C
C      0.25097    0.381  0.05963     C
C      0.25097    0.619  0.55963     C
C      0.25389   0.1796  0.66801     C
C      0.25389   0.8204  0.16801     C
C      0.25431   0.2322  0.24359     C
C      0.25431   0.7678  0.74359     C
H       0.2549   0.1119   0.5941     H
H       0.2549   0.8881   0.0941     H
O      0.25527  0.17601  0.09884     O
O      0.25527  0.82399  0.59884     O
O      0.25595  0.32299  0.02397     O
O      0.25595  0.67701  0.52397     O
C      0.25981   0.3436  0.38791     C
C      0.25981   0.6564  0.88791     C
H       0.2627   0.3579   0.9187     H
H       0.2627   0.6421   0.4187     H
C      0.26278   0.3912   0.5373     C
C      0.26278   0.6088   0.0373     C
C      0.26758   0.2564  0.30484     C
C      0.26758   0.7436  0.80484     C
O      0.26792  0.12787  0.89302     O
O      0.26792  0.87213  0.39302     O
C      0.26855   0.4622   0.0415     C
C      0.26855   0.5378   0.5415     C
O      0.27226   0.1679  0.22645     O
O      0.27226   0.8321  0.72645     O
O      0.27292   0.2221   0.7862     O
O      0.27292   0.7779   0.2862     O
H       0.2736   0.0336   0.4118     H
H       0.2736   0.9664   0.9118     H
H       0.2784    0.151    0.688     H
H       0.2784    0.849    0.188     H
Co     0.29116  0.24453  0.87019    Co
Co     0.29116  0.75547  0.37019    Co
Co     0.29511  0.10635  0.15666    Co
Co     0.29511  0.89365  0.65666    Co
C      0.29517   0.3008   0.4169     C
C      0.29517   0.6992   0.9169     C
C      0.29642   0.3912  0.49659     C
C      0.29642   0.6088  0.99659     C
Co     0.29806  0.21863  0.03516    Co
Co     0.29806  0.78137  0.53516    Co
C      0.30335   0.2141  0.33482     C
C      0.30335   0.7859  0.83482     C
C      0.30353   0.4639  0.00186     C
C      0.30353   0.5361  0.50186     C
O      0.31055   0.3166  0.47365     O
O      0.31055   0.6834  0.97365     O
O      0.31482  0.02597  0.09462     O
O      0.31482  0.97403  0.59462     O
C      0.31732   0.2363   0.3907     C
C      0.31732   0.7637   0.8907     C
C      0.31758    0.462   0.4798     C
C      0.31758    0.538   0.9798     C
H       0.3176   0.4145   0.9901     H
H       0.3176   0.5855   0.4901     H
H       0.3182   0.1698   0.3168     H
H       0.3182   0.8302   0.8168     H
O      0.33378  0.26112  0.96226     O
O      0.33378  0.73888  0.46226     O
O      0.33554   0.1135   0.0255     O
O      0.33554   0.8865   0.5255     O
C      0.33598   0.0446  0.05009     C
C      0.33598   0.9554  0.55009     C
H       0.3367   0.1169   0.5649     H
H       0.3367   0.8831   0.0649     H
O      0.33778  0.28428  0.09316     O
O      0.33778  0.71572  0.59316     O
H       0.3416   0.4602   0.4533     H
H       0.3416   0.5398   0.9533     H
H       0.3418   0.2078   0.4109     H
H       0.3418   0.7922   0.9109     H
O       0.3523  0.18366  0.15687     O
O       0.3523  0.81634  0.65687     O
C      0.35821   0.2537  0.13698     C
C      0.35821   0.7463  0.63698     C
O      0.35964   0.2141  0.88085     O
O      0.35964   0.7859  0.38085     O
C      0.36021   0.1017  0.53974     C
C      0.36021   0.8983  0.03974     C
C      0.36526   0.0208  0.52474     C
C      0.36526   0.9792  0.02474     C
C      0.36694   0.2338  0.93334     C
C      0.36694   0.7662  0.43334     C
H       0.3855    0.217   0.5286     H
H       0.3855    0.783   0.0286     H
C      0.38925   0.1613   0.5185     C
C      0.38925   0.8387   0.0185     C
C      0.39467   0.3059    0.168     C
C      0.39467   0.6941    0.668     C
H        0.397   0.3955   0.1077     H
H        0.397   0.6045   0.6077     H
C      0.39912   0.0006    0.987     C
C      0.39912   0.9994    0.487     C
H       0.4012   0.2349   0.2399     H
H       0.4012   0.7651   0.7399     H
H        0.402   0.2802   0.0358     H
H        0.402   0.7198   0.5358     H
H       0.4021   0.0559   0.9755     H
H       0.4021   0.9441   0.4755     H
C      0.41043   0.3777  0.14379     C
C      0.41043   0.6223  0.64379     C
C      0.41269   0.2825   0.2221     C
C      0.41269   0.7175   0.7221     C
C      0.41458    0.226   0.9594     C
C      0.41458    0.774   0.4594     C
C      0.42351   0.1383   0.4826     C
C      0.42351   0.8617   0.9826     C
C      0.42533   0.2543   0.0149     C
C      0.42533   0.7457   0.5149     C
C      0.42878   0.0582   0.4659     C
C      0.42878   0.9418   0.9659     C
H       0.4431   0.1702   0.8906     H
H       0.4431   0.8298   0.3906     H
C      0.44513   0.4235   0.1711     C
C      0.44513   0.5765   0.6711     C
C      0.44751   0.3286   0.2504     C
C      0.44751   0.6714   0.7504     C
C       0.4497   0.1885    0.929     C
C       0.4497   0.8115    0.429     C
H       0.4522   0.0433   0.4405     H
H       0.4522   0.9567   0.9405     H
O      0.45339   0.1977  0.46141     O
O      0.45339   0.8023  0.96141     O
H       0.4559    0.472   0.1538     H
H       0.4559    0.528   0.6538     H
H       0.4598   0.3126   0.2875     H
H       0.4598   0.6874   0.7875     H
C      0.46406   0.3976   0.2241     C
C      0.46406   0.6024   0.7241     C
C      0.46948   0.2452   0.0401     C
C      0.46948   0.7548   0.5401     C
H       0.4765   0.2659   0.0778     H
H       0.4765   0.7341   0.5778     H
H       0.4826   0.1519   0.5662     H
H       0.4826   0.8481   0.0662     H
C      0.49392    0.178   0.9544     C
C      0.49392    0.822   0.4544     C
C      0.49635   0.2057     0.49     C
C      0.49635   0.7943     0.99     C
O          0.5   0.4433     0.25     O
O          0.5   0.5567     0.75     O
C      0.50365   0.2057     0.01     C
C      0.50365   0.7943     0.51     C
C      0.50608    0.178   0.5456     C
C      0.50608    0.822   0.0456     C
H       0.5174   0.1519   0.9338     H
H       0.5174   0.8481   0.4338     H
H       0.5235   0.2659   0.4222     H
H       0.5235   0.7341   0.9222     H
C      0.53052   0.2452   0.4599     C
C      0.53052   0.7548   0.9599     C
C      0.53594   0.3976   0.2759     C
C      0.53594   0.6024   0.7759     C
H       0.5402   0.3126   0.2125     H
H       0.5402   0.6874   0.7125     H
H       0.5441    0.472   0.3462     H
H       0.5441    0.528   0.8462     H
O      0.54661   0.1977  0.03859     O
O      0.54661   0.8023  0.53859     O
H       0.5478   0.0433   0.0595     H
H       0.5478   0.9567   0.5595     H
C       0.5503   0.1885    0.571     C
C       0.5503   0.8115    0.071     C
C      0.55249   0.3286   0.2496     C
C      0.55249   0.6714   0.7496     C
C      0.55487   0.4235   0.3289     C
C      0.55487   0.5765   0.8289     C
H       0.5569   0.1702   0.6094     H
H       0.5569   0.8298   0.1094     H
C      0.57122   0.0582   0.0341     C
C      0.57122   0.9418   0.5341     C
C      0.57467   0.2543   0.4851     C
C      0.57467   0.7457   0.9851     C
C      0.57649   0.1383   0.0174     C
C      0.57649   0.8617   0.5174     C
C      0.58542    0.226   0.5406     C
C      0.58542    0.774   0.0406     C
C      0.58731   0.2825   0.2779     C
C      0.58731   0.7175   0.7779     C
C      0.58957   0.3777  0.35621     C
C      0.58957   0.6223  0.85621     C
H       0.5979   0.0559   0.5245     H
H       0.5979   0.9441   0.0245     H
H        0.598   0.2802   0.4642     H
H        0.598   0.7198   0.9642     H
H       0.5988   0.2349   0.2601     H
H       0.5988   0.7651   0.7601     H
C      0.60088   0.0006    0.513     C
C      0.60088   0.9994    0.013     C
H        0.603   0.3955   0.3923     H
H        0.603   0.6045   0.8923     H
C      0.60533   0.3059    0.332     C
C      0.60533   0.6941    0.832     C
C      0.61075   0.1613   0.9815     C
C      0.61075   0.8387   0.4815     C
H       0.6145    0.217   0.9714     H
H       0.6145    0.783   0.4714     H
C      0.63306   0.2338  0.56666     C
C      0.63306   0.7662  0.06666     C
C      0.63474   0.0208  0.97526     C
C      0.63474   0.9792  0.47526     C
C      0.63979   0.1017  0.96026     C
C      0.63979   0.8983  0.46026     C
O      0.64036   0.2141  0.61915     O
O      0.64036   0.7859  0.11915     O
C      0.64179   0.2537  0.36302     C
C      0.64179   0.7463  0.86302     C
O       0.6477  0.18366  0.34313     O
O       0.6477  0.81634  0.84313     O
H       0.6582   0.2078   0.0891     H
H       0.6582   0.7922   0.5891     H
H       0.6584   0.4602   0.0467     H
H       0.6584   0.5398   0.5467     H
O      0.66222  0.28428  0.40684     O
O      0.66222  0.71572  0.90684     O
H       0.6633   0.1169   0.9351     H
H       0.6633   0.8831   0.4351     H
C      0.66402   0.0446  0.44991     C
C      0.66402   0.9554  0.94991     C
O      0.66446   0.1135   0.4745     O
O      0.66446   0.8865   0.9745     O
O      0.66622  0.26112  0.53774     O
O      0.66622  0.73888  0.03774     O
H       0.6818   0.1698   0.1832     H
H       0.6818   0.8302   0.6832     H
H       0.6824   0.4145   0.5099     H
H       0.6824   0.5855   0.0099     H
C      0.68242    0.462   0.0202     C
C      0.68242    0.538   0.5202     C
C      0.68268   0.2363   0.1093     C
C      0.68268   0.7637   0.6093     C
O      0.68518  0.02597  0.40538     O
O      0.68518  0.97403  0.90538     O
O      0.68945   0.3166  0.02635     O
O      0.68945   0.6834  0.52635     O
C      0.69647   0.4639  0.49814     C
C      0.69647   0.5361  0.99814     C
C      0.69665   0.2141  0.16518     C
C      0.69665   0.7859  0.66518     C
Co     0.70194  0.21863  0.46484    Co
Co     0.70194  0.78137  0.96484    Co
C      0.70358   0.3912  0.00341     C
C      0.70358   0.6088  0.50341     C
C      0.70483   0.3008   0.0831     C
C      0.70483   0.6992   0.5831     C
Co     0.70489  0.10635  0.34334    Co
Co     0.70489  0.89365  0.84334    Co
Co     0.70884  0.24453  0.62981    Co
Co     0.70884  0.75547  0.12981    Co
H       0.7216    0.151    0.812     H
H       0.7216    0.849    0.312     H
H       0.7264   0.0336   0.0882     H
H       0.7264   0.9664   0.5882     H
O      0.72708   0.2221   0.7138     O
O      0.72708   0.7779   0.2138     O
O      0.72774   0.1679  0.27355     O
O      0.72774   0.8321  0.77355     O
C      0.73145   0.4622   0.4585     C
C      0.73145   0.5378   0.9585     C
O      0.73208  0.12787  0.60698     O
O      0.73208  0.87213  0.10698     O
C      0.73242   0.2564  0.19516     C
C      0.73242   0.7436  0.69516     C
C      0.73722   0.3912   0.9627     C
C      0.73722   0.6088   0.4627     C
H       0.7373   0.3579   0.5813     H
H       0.7373   0.6421   0.0813     H
C      0.74019   0.3436  0.11209     C
C      0.74019   0.6564  0.61209     C
O      0.74405  0.32299  0.47603     O
O      0.74405  0.67701  0.97603     O
O      0.74473  0.17601  0.40116     O
O      0.74473  0.82399  0.90116     O
H       0.7451   0.1119   0.9059     H
H       0.7451   0.8881   0.4059     H
C      0.74569   0.2322  0.25641     C
C      0.74569   0.7678  0.75641     C
C      0.74611   0.1796  0.83199     C
C      0.74611   0.8204  0.33199     C
C      0.74903    0.381  0.44037     C
C      0.74903    0.619  0.94037     C
C      0.74913   0.0347  0.05997     C
C      0.74913   0.9653  0.55997     C
H       0.7494   0.1585   0.0495     H
H       0.7494   0.8415   0.5495     H
H       0.7506   0.3415   0.9505     H
H       0.7506   0.6585   0.4505     H
C      0.75087   0.4653  0.94003     C
C      0.75087   0.5347  0.44003     C
C      0.75097    0.119  0.55963     C
C      0.75097    0.881  0.05963     C
C      0.75389   0.3204  0.16801     C
C      0.75389   0.6796  0.66801     C
C      0.75431   0.2678  0.74359     C
C      0.75431   0.7322  0.24359     C
H       0.7549   0.3881   0.0941     H
H       0.7549   0.6119   0.5941     H
O      0.75527  0.32399  0.59884     O
O      0.75527  0.67601  0.09884     O
O      0.75595  0.17701  0.52397     O
O      0.75595  0.82299  0.02397     O
C      0.75981   0.1564  0.88791     C
C      0.75981   0.8436  0.38791     C
H       0.7627   0.1421   0.4187     H
H       0.7627   0.8579   0.9187     H
C      0.76278   0.1088   0.0373     C
C      0.76278   0.8912   0.5373     C
C      0.76758   0.2436  0.80484     C
C      0.76758   0.7564  0.30484     C
O      0.76792  0.37213  0.39302     O
O      0.76792  0.62787  0.89302     O
C      0.76855   0.0378   0.5415     C
C      0.76855   0.9622   0.0415     C
O      0.77226   0.3321  0.72645     O
O      0.77226   0.6679  0.22645     O
O      0.77292   0.2779   0.2862     O
O      0.77292   0.7221   0.7862     O
H       0.7736   0.4664   0.9118     H
H       0.7736   0.5336   0.4118     H
H       0.7784    0.349    0.188     H
H       0.7784    0.651    0.688     H
Co     0.79116  0.25547  0.37019    Co
Co     0.79116  0.74453  0.87019    Co
Co     0.79511  0.39365  0.65666    Co
Co     0.79511  0.60635  0.15666    Co
C      0.79517   0.1992   0.9169     C
C      0.79517   0.8008   0.4169     C
C      0.79642   0.1088  0.99659     C
C      0.79642   0.8912  0.49659     C
Co     0.79806  0.28137  0.53516    Co
Co     0.79806  0.71863  0.03516    Co
C      0.80335   0.2859  0.83482     C
C      0.80335   0.7141  0.33482     C
C      0.80353   0.0361  0.50186     C
C      0.80353   0.9639  0.00186     C
O      0.81055   0.1834  0.97365     O
O      0.81055   0.8166  0.47365     O
O      0.81482  0.47403  0.59462     O
O      0.81482  0.52597  0.09462     O
C      0.81732   0.2637   0.8907     C
C      0.81732   0.7363   0.3907     C
C      0.81758    0.038   0.9798     C
C      0.81758    0.962   0.4798     C
H       0.8176   0.0855   0.4901     H
H       0.8176   0.9145   0.9901     H
H       0.8182   0.3302   0.8168     H
H       0.8182   0.6698   0.3168     H
O      0.83378  0.23888  0.46226     O
O      0.83378  0.76112  0.96226     O
O      0.83554   0.3865   0.5255     O
O      0.83554   0.6135   0.0255     O
C      0.83598   0.4554  0.55009     C
C      0.83598   0.5446  0.05009     C
H       0.8367   0.3831   0.0649     H
H       0.8367   0.6169   0.5649     H
O      0.83778  0.21572  0.59316     O
O      0.83778  0.78428  0.09316     O
H       0.8416   0.0398   0.9533     H
H       0.8416   0.9602   0.4533     H
H       0.8418   0.2922   0.9109     H
H       0.8418   0.7078   0.4109     H
O       0.8523  0.31634  0.65687     O
O       0.8523  0.68366  0.15687     O
C      0.85821   0.2463  0.63698     C
C      0.85821   0.7537  0.13698     C
O      0.85964   0.2859  0.38085     O
O      0.85964   0.7141  0.88085     O
C      0.86021   0.3983  0.03974     C
C      0.86021   0.6017  0.53974     C
C      0.86526   0.4792  0.02474     C
C      0.86526   0.5208  0.52474     C
C      0.86694   0.2662  0.43334     C
C      0.86694   0.7338  0.93334     C
H       0.8855    0.283   0.0286     H
H       0.8855    0.717   0.5286     H
C      0.88925   0.3387   0.0185     C
C      0.88925   0.6613   0.5185     C
C      0.89467   0.1941    0.668     C
C      0.89467   0.8059    0.168     C
H        0.897   0.1045   0.6077     H
H        0.897   0.8955   0.1077     H
C      0.89912   0.4994    0.487     C
C      0.89912   0.5006    0.987     C
H       0.9012   0.2651   0.7399     H
H       0.9012   0.7349   0.2399     H
H        0.902   0.2198   0.5358     H
H        0.902   0.7802   0.0358     H
H       0.9021   0.4441   0.4755     H
H       0.9021   0.5559   0.9755     H
C      0.91043   0.1223  0.64379     C
C      0.91043   0.8777  0.14379     C
C      0.91269   0.2175   0.7221     C
C      0.91269   0.7825   0.2221     C
C      0.91458    0.274   0.4594     C
C      0.91458    0.726   0.9594     C
C      0.92351   0.3617   0.9826     C
C      0.92351   0.6383   0.4826     C
C      0.92533   0.2457   0.5149     C
C      0.92533   0.7543   0.0149     C
C      0.92878   0.4418   0.9659     C
C      0.92878   0.5582   0.4659     C
H       0.9431   0.3298   0.3906     H
H       0.9431   0.6702   0.8906     H
C      0.94513   0.0765   0.6711     C
C      0.94513   0.9235   0.1711     C
C      0.94751   0.1714   0.7504     C
C      0.94751   0.8286   0.2504     C
C       0.9497   0.3115    0.429     C
C       0.9497   0.6885    0.929     C
H       0.9522   0.4567   0.9405     H
H       0.9522   0.5433   0.4405     H
O      0.95339   0.3023  0.96141     O
O      0.95339   0.6977  0.46141     O
H       0.9559    0.028   0.6538     H
H       0.9559    0.972   0.1538     H
H       0.9598   0.1874   0.7875     H
H       0.9598   0.8126   0.2875     H
C      0.96406   0.1024   0.7241     C
C      0.96406   0.8976   0.2241     C
C      0.96948   0.2548   0.5401     C
C      0.96948   0.7452   0.0401     C
H       0.9765   0.2341   0.5778     H
H       0.9765   0.7659   0.0778     H
H       0.9826   0.3481   0.0662     H
H       0.9826   0.6519   0.5662     H
C      0.99392    0.322   0.4544     C
C      0.99392    0.678   0.9544     C
C      0.99635   0.2943     0.99     C
C      0.99635   0.7057     0.49     C
