data_I
_chemical_name_common  '/home/zhangsd/repos/MofS-CGCNN/ML/data/SSD/clean_cifs/CUWNOZ_clean'
_cell_length_a 15.89830
_cell_length_b 26.42200
_cell_length_c 16.34180
_cell_angle_alpha 90.00000
_cell_angle_beta  116.88100
_cell_angle_gamma 90.00000
_space_group_name_H-M_alt      'P 1'


loop_
_space_group_symop_operation_xyz
  'x, y, z' 

loop_
_atom_site_label
_atom_site_fract_x
_atom_site_fract_y
_atom_site_fract_z
_atom_site_type_symbol
H       0.0036   0.1566   0.6593     H
H       0.0036   0.3434   0.1593     H
C       0.0186   0.1017   0.5817     C
C       0.0186   0.3983   0.0817     C
C        0.033    0.125    0.661     C
C        0.033    0.375    0.161     C
O       0.0373  0.62516   0.0039     O
O       0.0373  0.87484   0.5039     O
C       0.0407   0.0409   0.9872     C
C       0.0407   0.4591   0.4872     C
C       0.0451   0.5438   0.5134     C
C       0.0451   0.9562   0.0134     C
H       0.0469   0.0389   0.5253     H
H       0.0469   0.4611   0.0253     H
H        0.056    0.067    0.975     H
H        0.056    0.433    0.475     H
C       0.0596   0.0555   0.5813     C
C       0.0596   0.4445   0.0813     C
H        0.079   0.5741    0.521     H
H        0.079   0.9259    0.021     H
H       0.0817   0.7422   0.4364     H
H       0.0817   0.7578   0.9364     H
N       0.0877  0.50248   0.5015     N
N       0.0877  0.99752   0.0015     N
C       0.0902   0.1027   0.7439     C
C       0.0902   0.3973   0.2439     C
H       0.0988   0.1184   0.7994     H
H       0.0988   0.3816   0.2994     H
H       0.1005   0.6676   0.7367     H
H       0.1005   0.8324   0.2367     H
H       0.1162   0.6555   0.4546     H
H       0.1162   0.8445   0.9546     H
H       0.1192   0.1916   0.2108     H
H       0.1192   0.3084   0.7108     H
C       0.1202   0.0343   0.6657     C
C       0.1202   0.4657   0.1657     C
C       0.1231  0.60247   0.0603     C
C       0.1231  0.89753   0.5603     C
H       0.1235   0.6336   0.1754     H
H       0.1235   0.8664   0.6754     H
C       0.1341   0.7293   0.4298     C
C       0.1341   0.7707   0.9298     C
C       0.1356   0.0574   0.7466     C
C       0.1356   0.4426   0.2466     C
H       0.1467   0.5647   0.9652     H
H       0.1467   0.9353   0.4652     H
H       0.1483   0.1219   0.1421     H
H       0.1483   0.3781   0.6421     H
H       0.1514   0.0033   0.6673     H
H       0.1514   0.4967   0.1673     H
C       0.1546   0.6777   0.4403     C
C       0.1546   0.8223   0.9403     C
H       0.1568   0.6155   0.6586     H
H       0.1568   0.8845   0.1586     H
C       0.1581   0.6129   0.1537     C
C       0.1581   0.8871   0.6537     C
C       0.1589   0.6505   0.7693     C
C       0.1589   0.8495   0.2693     C
O       0.1716  0.68748   0.9068     O
O       0.1716  0.81252   0.4068     O
C       0.1717   0.5722   0.0288     C
C       0.1717   0.9278   0.5288     C
C       0.1811    0.178   0.2346     C
C       0.1811    0.322   0.7346     C
O       0.1838  0.03981   0.9034     O
O       0.1838  0.46019   0.4034     O
C       0.1903   0.7387   0.9098     C
C       0.1903   0.7613   0.4098     C
C       0.1929   0.6202   0.7229     C
C       0.1929   0.8798   0.2229     C
C       0.1989   0.1369   0.1938     C
C       0.1989   0.3631   0.6938     C
C       0.2016   0.0337   0.8374     C
C       0.2016   0.4663   0.3374     C
O       0.2024  0.57319   0.4556     O
O       0.2024  0.92681   0.9556     O
C       0.2085   0.6562   0.8619     C
C       0.2085   0.8438   0.3619     C
C       0.2297   0.6584   0.4302     C
C       0.2297   0.8416   0.9302     C
Co     0.23019  0.50347   0.5222    Co
Co     0.23019  0.99653   0.0222    Co
O       0.2351  0.24266   0.3487     O
O       0.2351  0.25734   0.8487     O
O       0.2426  0.06127   0.1015     O
O       0.2426  0.43873   0.6015     O
C       0.2446  0.59239   0.2145     C
C       0.2446  0.90761   0.7145     C
H       0.2532   0.1825   0.9501     H
H       0.2532   0.3175   0.4501     H
C       0.2536   0.1996   0.3102     C
C       0.2536   0.3004   0.8102     C
C        0.258   0.6027   0.4454     C
C        0.258   0.8973   0.9454     C
C       0.2584   0.5526   0.0908     C
C       0.2584   0.9474   0.5908     C
O       0.2588  0.54857   0.6394     O
O       0.2588  0.95143   0.1394     O
C       0.2646   0.7424    0.397     C
C       0.2646   0.7576    0.897     C
H       0.2698   0.5995   0.2782     H
H       0.2698   0.9005   0.7782     H
O       0.2711  0.00998   0.8384     O
O       0.2711  0.49002   0.3384     O
C       0.2809  0.59591   0.7696     C
C       0.2809  0.90409   0.2696     C
C       0.2845   0.6913   0.4095     C
C       0.2845   0.8087   0.9095     C
C       0.2892   0.1163   0.2262     C
C       0.2892   0.3837   0.7262     C
C         0.29    0.178   0.9182     C
C         0.29   0.2147   0.8582     C
C         0.29   0.2853   0.3582     C
C         0.29    0.322   0.4182     C
C       0.2935  0.56237   0.1836     C
C       0.2935  0.93763   0.6836     C
H       0.2938   0.5324   0.0693     H
H       0.2938   0.9676   0.5693     H
C       0.2945   0.6321   0.9107     C
C       0.2945   0.8679   0.4107     C
H       0.3014   0.7358   0.8797     H
H       0.3014   0.7642   0.3797     H
C       0.3092  0.07422   0.1762     C
C       0.3092  0.42578   0.6762     C
C       0.3158  0.56395   0.7165     C
C       0.3158  0.93605   0.2165     C
C       0.3289   0.6021   0.8634     C
C       0.3289   0.8979   0.3634     C
H        0.329   0.6362   0.9753     H
H        0.329   0.8638   0.4753     H
O       0.3352  0.59235   0.4464     O
O       0.3352  0.90765   0.9464     O
H       0.3373   0.6785   0.4037     H
H       0.3373   0.8215   0.9037     H
H       0.3376    0.231   0.7666     H
H       0.3376    0.269   0.2666     H
C        0.339   0.2065   0.8098     C
C        0.339   0.2935   0.3098     C
C       0.3424   0.1802   0.3467     C
C       0.3424   0.3198   0.8467     C
H       0.3431   0.1099   0.9735     H
H       0.3431   0.3901   0.4735     H
C       0.3434   0.1348   0.9317     C
C       0.3434   0.3652   0.4317     C
C        0.362   0.1374    0.304     C
C        0.362   0.3626    0.804     C
O       0.3697  0.00378   0.0462     O
O       0.3697  0.49622   0.5462     O
C       0.3856  0.53817   0.2493     C
C       0.3856  0.96183   0.7493     C
H        0.387    0.031    0.051     H
H        0.387    0.469    0.551     H
H       0.3874   0.5852   0.8965     H
H       0.3874   0.9148   0.3965     H
C       0.3906   0.1633   0.8228     C
C       0.3906   0.3367   0.3228     C
Co     0.39105  0.52369  0.44082    Co
Co     0.39105  0.97631  0.94082    Co
H       0.3912    0.195   0.4001     H
H       0.3912    0.305   0.9001     H
O       0.3915  0.05675   0.2112     O
O       0.3915  0.44325   0.7112     O
C       0.3977   0.1267   0.8857     C
C       0.3977   0.3733   0.3857     C
O       0.4039  0.55482   0.7529     O
O       0.4039  0.94518   0.2529     O
O       0.4207  0.54616    0.335     O
O       0.4207  0.95384    0.835     O
H       0.4229   0.1581   0.7868     H
H       0.4229   0.3419   0.2868     H
H       0.4238   0.1236   0.3285     H
H       0.4238   0.3764   0.8285     H
O       0.4264  0.51052   0.2156     O
O       0.4264  0.98948   0.7156     O
Co     0.44686  0.50841  0.67991    Co
Co     0.44686  0.99159  0.17991    Co
C       0.4557   0.0802   0.8964     C
C       0.4557   0.4198   0.3964     C
O       0.4682  0.05013   0.9627     O
O       0.4682  0.44987   0.4627     O
O       0.4861  0.07336     0.84     O
O       0.4861  0.42664     0.34     O
O       0.5139  0.57336     0.66     O
O       0.5139  0.92664     0.16     O
O       0.5318  0.55013   0.5373     O
O       0.5318  0.94987   0.0373     O
C       0.5443   0.5802   0.6036     C
C       0.5443   0.9198   0.1036     C
Co     0.55314  0.00841  0.82009    Co
Co     0.55314  0.49159  0.32009    Co
O       0.5736  0.01052   0.2844     O
O       0.5736  0.48948   0.7844     O
H       0.5762   0.6236   0.1715     H
H       0.5762   0.8764   0.6715     H
H       0.5771   0.6581   0.7132     H
H       0.5771   0.8419   0.2132     H
O       0.5793  0.04616    0.165     O
O       0.5793  0.45384    0.665     O
O       0.5961  0.05482   0.7471     O
O       0.5961  0.44518   0.2471     O
C       0.6023   0.6267   0.6143     C
C       0.6023   0.8733   0.1143     C
O       0.6085  0.55675   0.2888     O
O       0.6085  0.94325   0.7888     O
H       0.6088    0.695   0.0999     H
H       0.6088    0.805   0.5999     H
Co     0.60895  0.02369  0.05918    Co
Co     0.60895  0.47631  0.55918    Co
C       0.6094   0.6633   0.6772     C
C       0.6094   0.8367   0.1772     C
H       0.6126   0.0852   0.6035     H
H       0.6126   0.4148   0.1035     H
H        0.613    0.531    0.449     H
H        0.613    0.969    0.949     H
C       0.6144  0.03817   0.2507     C
C       0.6144  0.46183   0.7507     C
O       0.6303  0.50378   0.4538     O
O       0.6303  0.99622   0.9538     O
C        0.638   0.6374    0.196     C
C        0.638   0.8626    0.696     C
C       0.6566   0.6348   0.5683     C
C       0.6566   0.8652   0.0683     C
H       0.6569   0.6099   0.5265     H
H       0.6569   0.8901   0.0265     H
C       0.6576   0.6802   0.1533     C
C       0.6576   0.8198   0.6533     C
C        0.661   0.7065   0.6902     C
C        0.661   0.7935   0.1902     C
H       0.6624    0.731   0.7334     H
H       0.6624    0.769   0.2334     H
H       0.6627   0.1785   0.0963     H
H       0.6627   0.3215   0.5963     H
O       0.6648  0.09235   0.0536     O
O       0.6648  0.40765   0.5536     O
H        0.671   0.1362   0.5247     H
H        0.671   0.3638   0.0247     H
C       0.6711   0.1021   0.6366     C
C       0.6711   0.3979   0.1366     C
C       0.6842  0.06395   0.7835     C
C       0.6842  0.43605   0.2835     C
C       0.6908  0.57422   0.3238     C
C       0.6908  0.92578   0.8238     C
H       0.6986   0.2358   0.6203     H
H       0.6986   0.2642   0.1203     H
C       0.7055   0.1321   0.5893     C
C       0.7055   0.3679   0.0893     C
H       0.7062   0.0324   0.4307     H
H       0.7062   0.4676   0.9307     H
C       0.7065  0.06237   0.3164     C
C       0.7065  0.43763   0.8164     C
C         0.71    0.678   0.5818     C
C         0.71   0.7147   0.6418     C
C         0.71   0.7853   0.1418     C
C         0.71    0.822   0.0818     C
C       0.7108   0.6163   0.2738     C
C       0.7108   0.8837   0.7738     C
C       0.7155   0.1913   0.0905     C
C       0.7155   0.3087   0.5905     C
C       0.7191  0.09591   0.7304     C
C       0.7191  0.40409   0.2304     C
O       0.7289  0.50998   0.6616     O
O       0.7289  0.99002   0.1616     O
H       0.7302   0.0995   0.2218     H
H       0.7302   0.4005   0.7218     H
C       0.7354   0.2424    0.103     C
C       0.7354   0.2576    0.603     C
O       0.7412  0.04857   0.8606     O
O       0.7412  0.45143   0.3606     O
C       0.7416   0.0526   0.4092     C
C       0.7416   0.4474   0.9092     C
C        0.742   0.1027   0.0546     C
C        0.742   0.3973   0.5546     C
C       0.7464   0.6996   0.1898     C
C       0.7464   0.8004   0.6898     C
H       0.7468   0.6825   0.5499     H
H       0.7468   0.8175   0.0499     H
C       0.7554  0.09239   0.2855     C
C       0.7554  0.40761   0.7855     C
O       0.7574  0.56127   0.3985     O
O       0.7574  0.93873   0.8985     O
O       0.7649  0.74266   0.1513     O
O       0.7649  0.75734   0.6513     O
Co     0.76981  0.00347   0.9778    Co
Co     0.76981  0.49653   0.4778    Co
C       0.7703   0.1584   0.0698     C
C       0.7703   0.3416   0.5698     C
C       0.7915   0.1562   0.6381     C
C       0.7915   0.3438   0.1381     C
O       0.7976  0.07319   0.0444     O
O       0.7976  0.42681   0.5444     O
C       0.7984   0.5337   0.6626     C
C       0.7984   0.9663   0.1626     C
C       0.8011   0.6369   0.3062     C
C       0.8011   0.8631   0.8062     C
C       0.8071   0.1202   0.7771     C
C       0.8071   0.3798   0.2771     C
C       0.8097   0.2387   0.5902     C
C       0.8097   0.2613   0.0902     C
O       0.8162  0.53981   0.5966     O
O       0.8162  0.96019   0.0966     O
C       0.8189    0.678   0.2654     C
C       0.8189    0.822   0.7654     C
C       0.8283   0.0722   0.4712     C
C       0.8283   0.4278   0.9712     C
O       0.8284  0.18748   0.5932     O
O       0.8284  0.31252   0.0932     O
C       0.8411   0.1505   0.7307     C
C       0.8411   0.3495   0.2307     C
C       0.8419   0.1129   0.3463     C
C       0.8419   0.3871   0.8463     C
H       0.8432   0.1155   0.8414     H
H       0.8432   0.3845   0.3414     H
C       0.8454   0.1777   0.0597     C
C       0.8454   0.3223   0.5597     C
H       0.8486   0.5033   0.8327     H
H       0.8486   0.9967   0.3327     H
H       0.8517   0.6219   0.3579     H
H       0.8517   0.8781   0.8579     H
H       0.8533   0.0647   0.5348     H
H       0.8533   0.4353   0.0348     H
C       0.8644   0.5574   0.7534     C
C       0.8644   0.9426   0.2534     C
C       0.8659   0.2293   0.0702     C
C       0.8659   0.2707   0.5702     C
H       0.8765   0.1336   0.3246     H
H       0.8765   0.3664   0.8246     H
C       0.8769  0.10247   0.4397     C
C       0.8769  0.39753   0.9397     C
C       0.8798   0.5343   0.8343     C
C       0.8798   0.9657   0.3343     C
H       0.8808   0.6916   0.2892     H
H       0.8808   0.8084   0.7892     H
H       0.8838   0.1555   0.0454     H
H       0.8838   0.3445   0.5454     H
H       0.8995   0.1676   0.7633     H
H       0.8995   0.3324   0.2633     H
H       0.9012   0.6184   0.7006     H
H       0.9012   0.8816   0.2006     H
C       0.9098   0.6027   0.7561     C
C       0.9098   0.8973   0.2561     C
N       0.9123  0.00248   0.9985     N
N       0.9123  0.49752   0.4985     N
H       0.9183   0.2422   0.0636     H
H       0.9183   0.2578   0.5636     H
H        0.921   0.0741    0.979     H
H        0.921   0.4259    0.479     H
C       0.9404   0.5555   0.9187     C
C       0.9404   0.9445   0.4187     C
H        0.944    0.567    0.525     H
H        0.944    0.933    0.025     H
H       0.9531   0.5389   0.9747     H
H       0.9531   0.9611   0.4747     H
C       0.9549   0.0438   0.9866     C
C       0.9549   0.4562   0.4866     C
C       0.9593   0.5409   0.5128     C
C       0.9593   0.9591   0.0128     C
O       0.9627  0.12516   0.4961     O
O       0.9627  0.37484   0.9961     O
C        0.967    0.625    0.839     C
C        0.967    0.875    0.339     C
C       0.9814   0.6017   0.9183     C
C       0.9814   0.8983   0.4183     C
H       0.9964   0.6566   0.8407     H
H       0.9964   0.8434   0.3407     H
