data_I
_chemical_name_common  '/home/zhangsd/repos/MofS-CGCNN/ML/data/SSD/clean_cifs/CUYHIO_clean'
_cell_length_a  6.20470
_cell_length_b 17.74600
_cell_length_c 20.42300
_cell_angle_alpha 90.00000
_cell_angle_beta  98.45230
_cell_angle_gamma 90.00000
_space_group_name_H-M_alt      'P 1'


loop_
_space_group_symop_operation_xyz
  'x, y, z' 

loop_
_atom_site_label
_atom_site_fract_x
_atom_site_fract_y
_atom_site_fract_z
_atom_site_type_symbol
N       0.0022   0.5233    0.194     N
C       0.0034   0.5607   0.6151     C
H       0.0062   0.2091   0.9162     H
N      0.01275   0.5041  0.35185     N
C       0.0143   0.2171   0.2412     C
H        0.021   0.4225   0.9574     H
C       0.0266   0.7941   0.6388     C
H       0.0273   0.0297   0.6259     H
C       0.0428   0.2143   0.4267     C
H       0.0455   0.8008   0.5426     H
C       0.0532   0.7901   0.2151     C
H       0.0565   0.2588   0.2152     H
H       0.0587   0.7542   0.2511     H
O      0.05904   0.0845  0.24284     O
C       0.0624   0.5548   0.1388     C
C       0.0693   0.4449   0.9211     C
C       0.0724   0.0243   0.9922     C
H       0.0788   0.0706   0.0137     H
H       0.0842    0.399   0.3762     H
C       0.0912   0.9797   0.5076     C
H       0.0962   0.2073   0.8068     H
C       0.0983     0.23   0.3143     C
H       0.1073   0.3936   0.6559     H
C       0.1086   0.1453   0.2195     C
C       0.1155   0.4393   0.6341     C
C       0.1206   0.8671   0.2435     C
C       0.1288   0.7693   0.0985     C
O      0.13425   0.8799  0.30285     O
H       0.1349   0.9504   0.4742     H
C       0.1416   0.5708   0.5694     C
H       0.1434    0.786   0.7655     H
H        0.145   0.6168   0.5477     H
O      0.15241  0.91594  0.20091     O
H       0.1562   0.9044   0.9188     H
H       0.1611   0.8164   0.6526     H
C       0.1644   0.0078    0.628     C
C       0.1971   0.7622   0.1662     C
H       0.1991    0.577   0.1418     H
C       0.1993   0.5063   0.8133     C
H       0.2066   0.7494   0.0072     H
Zn     0.21191   0.5138  0.28062    Zn
C       0.2245    0.013   0.9446     C
C       0.2266   0.9776    0.572     C
C       0.2419   0.9454   0.9108     C
O       0.2431   0.1463    0.181     O
C       0.2431   0.2449   0.4478     C
H       0.2484   0.5268   0.7763     H
H       0.2516   0.0268   0.7237     H
O       0.2569   0.6463    0.319     O
C       0.2569   0.7449   0.0522     C
C       0.2581   0.4454   0.5892     C
C       0.2734   0.4776    0.928     C
C       0.2755    0.513   0.5554     C
Zn     0.28809   0.0138  0.21938    Zn
H       0.2934   0.2494   0.4928     H
C       0.3007   0.0063   0.6867     C
H       0.3009    0.077   0.3582     H
C       0.3029   0.2622   0.3338     C
C       0.3356   0.5078    0.872     C
H       0.3389   0.3164   0.8474     H
H       0.3438   0.4044   0.5812     H
O      0.34759  0.41594  0.29909     O
H        0.355   0.1168   0.9523     H
H       0.3566    0.286   0.7345     H
C       0.3584   0.0708   0.9306     C
H       0.3651   0.4504   0.0258     H
O      0.36575   0.3799  0.19715     O
C       0.3712   0.2693   0.4015     C
C       0.3794   0.3671   0.2565     C
C       0.3845   0.9393   0.8659     C
C       0.3914   0.6453   0.2805     C
H       0.3927   0.8936   0.8441     H
C       0.4017     0.73   0.1857     C
H       0.4038   0.7073   0.6932     H
C       0.4088   0.4797   0.9924     C
H       0.4158    0.899   0.1238     H
H       0.4212   0.5706   0.4863     H
C       0.4276   0.5243   0.5078     C
C       0.4307   0.9449   0.5789     C
C       0.4376   0.0548   0.3612     C
O      0.44096   0.5845  0.25716     O
H       0.4413   0.2542   0.2489     H
H       0.4435   0.7588   0.2848     H
C       0.4468   0.2901   0.2849     C
H       0.4545   0.3008   0.9574     H
C       0.4572   0.7143   0.0733     C
H       0.4727   0.5297   0.8741     H
C       0.4734   0.2941   0.8612     C
H        0.479   0.9225   0.5426     H
C       0.4857   0.7171   0.2588     C
N      0.48725   0.0041  0.14815     N
H       0.4938   0.7091   0.5838     H
C       0.4966   0.0607   0.8849     C
N       0.4978   0.0233    0.306     N
N       0.5022   0.9767    0.694     N
C       0.5034   0.9393   0.1151     C
H       0.5062   0.2909   0.4162     H
N      0.51275   0.9959  0.85185     N
C       0.5143   0.2829   0.7412     C
H        0.521   0.0775   0.4574     H
C       0.5266   0.7059   0.1388     C
H       0.5273   0.4703   0.1259     H
C       0.5428   0.2857   0.9267     C
H       0.5455   0.6992   0.0426     H
C       0.5532   0.7099   0.7151     C
H       0.5565   0.2412   0.7152     H
H       0.5587   0.7458   0.7511     H
O      0.55904   0.4155  0.74284     O
C       0.5624   0.9452   0.6388     C
C       0.5693   0.0551   0.4211     C
C       0.5724   0.4757   0.4922     C
H       0.5788   0.4294   0.5137     H
H       0.5842    0.101   0.8762     H
C       0.5912   0.5203   0.0076     C
H       0.5962   0.2927   0.3068     H
C       0.5983     0.27   0.8143     C
H       0.6073   0.1064   0.1559     H
C       0.6086   0.3547   0.7195     C
C       0.6155   0.0607   0.1341     C
C       0.6206   0.6329   0.7435     C
C       0.6288   0.7307   0.5985     C
O      0.63425   0.6201  0.80285     O
H       0.6349   0.5496   0.9742     H
C       0.6416   0.9292   0.0694     C
H       0.6434    0.714   0.2655     H
H        0.645   0.8832   0.0477     H
O      0.65241  0.58406  0.70091     O
H       0.6562   0.5956   0.4188     H
H       0.6611   0.6836   0.1526     H
C       0.6644   0.4922    0.128     C
C       0.6971   0.7378   0.6662     C
H       0.6991    0.923   0.6418     H
C       0.6993   0.9937   0.3133     C
H       0.7066   0.7506   0.5072     H
Zn     0.71191   0.9862  0.78062    Zn
C       0.7245    0.487   0.4446     C
C       0.7266   0.5224    0.072     C
C       0.7419   0.5546   0.4108     C
C       0.7431   0.2551   0.9478     C
O       0.7431   0.3537    0.681     O
H       0.7484   0.9732   0.2763     H
H       0.7516   0.4732   0.2237     H
C       0.7569   0.7551   0.5522     C
O       0.7569   0.8537    0.819     O
C       0.7581   0.0546   0.0892     C
C       0.7734   0.0224    0.428     C
C       0.7755    0.987   0.0554     C
Zn     0.78809   0.4862  0.71938    Zn
H       0.7934   0.2506   0.9928     H
C       0.8007   0.4937   0.1867     C
H       0.8009    0.423   0.8582     H
C       0.8029   0.2378   0.8338     C
C       0.8356   0.9922    0.372     C
H       0.8389   0.1836   0.3474     H
H       0.8438   0.0956   0.0812     H
O      0.84759  0.08406  0.79909     O
H        0.855   0.3832   0.4523     H
H       0.8566    0.214   0.2345     H
C       0.8584   0.4292   0.4306     C
H       0.8651   0.0496   0.5258     H
O      0.86575   0.1201  0.69715     O
C       0.8712   0.2307   0.9015     C
C       0.8794   0.1329   0.7565     C
C       0.8845   0.5607   0.3659     C
C       0.8914   0.8547   0.7805     C
H       0.8927   0.6064   0.3441     H
C       0.9017     0.77   0.6857     C
H       0.9038   0.7927   0.1932     H
C       0.9088   0.0203   0.4924     C
H       0.9158    0.601   0.6238     H
H       0.9212   0.9294   0.9863     H
C       0.9276   0.9757   0.0078     C
C       0.9307   0.5551   0.0789     C
C       0.9376   0.4452   0.8612     C
O      0.94096   0.9155  0.75716     O
H       0.9413   0.2458   0.7489     H
H       0.9435   0.7412   0.7848     H
C       0.9468   0.2099   0.7849     C
H       0.9545   0.1992   0.4574     H
C       0.9572   0.7857   0.5733     C
H       0.9727   0.9703   0.3741     H
C       0.9734   0.2059   0.3612     C
H        0.979   0.5775   0.0426     H
C       0.9857   0.7829   0.7588     C
N      0.98725   0.4959  0.64815     N
H       0.9938   0.7909   0.0838     H
C       0.9966   0.4393   0.3849     C
N       0.9978   0.4767    0.806     N
