data_I
_chemical_name_common  '/home/zhangsd/repos/MofS-CGCNN/ML/data/SSD/clean_cifs/CUZBUW_clean'
_cell_length_a  7.87580
_cell_length_b  9.18770
_cell_length_c 11.34270
_cell_angle_alpha 112.88300
_cell_angle_beta  91.05700
_cell_angle_gamma 105.87700
_space_group_name_H-M_alt      'P 1'


loop_
_space_group_symop_operation_xyz
  'x, y, z' 

loop_
_atom_site_label
_atom_site_fract_x
_atom_site_fract_y
_atom_site_fract_z
_atom_site_type_symbol
Co         0.0      0.0      0.5    Co
O       0.0181   0.8201   0.3221     O
C       0.0501   0.3977   0.8864     C
C       0.1054   0.2936   0.7641     C
C        0.129   0.6231   0.0985     C
C       0.1787   0.5241   0.9873     C
H       0.2165   0.7054   0.1647     H
O       0.2671   0.3238   0.7539     O
O        0.284   0.1108   0.5229     O
H        0.289    0.187   0.6012     H
H       0.2991   0.5412   0.9791     H
H        0.319    0.159    0.471     H
H       0.3846    0.213   0.1117     H
O       0.3851   0.1869   0.3275     O
H       0.4213   0.1514   0.8979     H
C       0.4311   0.1273   0.0671     C
C       0.4524   0.0745   0.2692     C
C        0.453   0.0903   0.9386     C
C       0.4776   0.0378   0.1296     C
O       0.4997   0.0139   0.6844     O
Co         0.5      0.0      0.5    Co
O       0.5003   0.9861   0.3156     O
C       0.5224   0.9622   0.8704     C
C        0.547   0.9097   0.0614     C
C       0.5476   0.9255   0.7308     C
C       0.5689   0.8727   0.9329     C
H       0.5787   0.8486   0.1021     H
O       0.6149   0.8131   0.6725     O
H       0.6154    0.787   0.8883     H
H        0.681    0.841    0.529     H
H       0.7009   0.4588   0.0209     H
H        0.711    0.813   0.3988     H
O        0.716   0.8892   0.4771     O
O       0.7329   0.6762   0.2461     O
H       0.7835   0.2946   0.8353     H
C       0.8213   0.4759   0.0127     C
C        0.871   0.3769   0.9015     C
C       0.8946   0.7064   0.2359     C
C       0.9499   0.6023   0.1136     C
O       0.9819   0.1799   0.6779     O
