data_I
_chemical_name_common  '/home/zhangsd/repos/MofS-CGCNN/ML/data/SSD/clean_cifs/DADLOM_clean'
_cell_length_a 10.15650
_cell_length_b 37.90510
_cell_length_c 41.21750
_cell_angle_alpha 90.00000
_cell_angle_beta  99.89400
_cell_angle_gamma 90.00000
_space_group_name_H-M_alt      'P 1'


loop_
_space_group_symop_operation_xyz
  'x, y, z' 

loop_
_atom_site_label
_atom_site_fract_x
_atom_site_fract_y
_atom_site_fract_z
_atom_site_type_symbol
C       0.0006   0.7426   0.8257     C
C       0.0006   0.7574   0.3257     C
H       0.0034    0.077   0.1819     H
H       0.0034    0.423   0.6819     H
H       0.0101   0.5757    0.659     H
H       0.0101   0.9243    0.159     H
C       0.0138   0.0227   0.8491     C
C       0.0138   0.4773   0.3491     C
C       0.0167   0.0098   0.1632     C
C       0.0167   0.4902   0.6632     C
H       0.0179   0.7306   0.3901     H
H       0.0179   0.7694   0.8901     H
H       0.0267   0.1866    0.076     H
H       0.0267   0.3134    0.576     H
C       0.0272   0.7187   0.8023     C
C       0.0272   0.7813   0.3023     C
C       0.0344   0.1682   0.7375     C
C       0.0344   0.3318   0.2375     C
C        0.038   0.5536   0.6673     C
C        0.038   0.5752   0.3399     C
C        0.038   0.9248   0.8399     C
C        0.038   0.9464   0.1673     C
C       0.0436   0.5425   0.3545     C
C       0.0436   0.9575   0.8545     C
O       0.0516   0.1727  0.81856     O
O       0.0516   0.3273  0.31856     O
C        0.061   0.1949   0.7117     C
C        0.061   0.3051   0.2117     C
H       0.0624   0.6161   0.4423     H
H       0.0624   0.8839   0.9423     H
C        0.065   0.2195   0.1135     C
C        0.065   0.2805   0.6135     C
H       0.0663   0.7415   0.3349     H
H       0.0663   0.7585   0.8349     H
H       0.0712   0.0248   0.8691     H
H       0.0712   0.4752   0.3691     H
H       0.0728   0.6283   0.3464     H
H       0.0728   0.8717   0.8464     H
O       0.0742   0.6737  0.75354     O
O       0.0742   0.8263  0.25354     O
H       0.0755   0.6179   0.4975     H
H       0.0755   0.8821   0.9975     H
Mn     0.07576  0.10072  0.77317    Mn
Mn     0.07576  0.39928  0.27317    Mn
H       0.0785   0.6423   0.5473     H
H       0.0785   0.8577   0.0473     H
C       0.0902   0.6061   0.3558     C
C       0.0902   0.8939   0.8558     C
C       0.0916   0.1936   0.0935     C
C       0.0916   0.3064   0.5935     C
H        0.099   0.6459    0.603     H
H        0.099   0.8541    0.103     H
C       0.1078   0.0117   0.1918     C
C       0.1078   0.4883   0.6918     C
H       0.1094   0.2015   0.8762     H
H       0.1094   0.2985   0.3762     H
H       0.1109   0.7193   0.7961     H
H       0.1109   0.7807   0.2961     H
O       0.1119   0.6113  0.71321     O
O       0.1119   0.8887  0.21321     O
O        0.118    0.144    0.745     O
O        0.118    0.356    0.245     O
C       0.1197   0.5406   0.3859     C
C       0.1197   0.9594   0.8859     C
C        0.127    0.243   0.6642     C
C        0.127    0.257   0.1642     C
C        0.128   0.1484    0.835     C
C        0.128   0.3516    0.335     C
H       0.1306   0.0341      0.2     H
H       0.1306   0.4659      0.7     H
H        0.131   0.5187   0.3962     H
H        0.131   0.9813   0.8962     H
C       0.1322   0.5504   0.6961     C
C       0.1322   0.9496   0.1961     C
C       0.1403   0.1811   0.8876     C
C       0.1403   0.3189   0.3876     C
C       0.1407   0.6247   0.4549     C
C       0.1407   0.8753   0.9549     C
H       0.1477    0.203   0.9306     H
H       0.1477    0.297   0.4306     H
C       0.1485   0.6253   0.4884     C
C       0.1485   0.8747   0.9884     C
H        0.149   0.1092   0.1227     H
H        0.149   0.3908   0.6227     H
Mn     0.15076  0.66701  0.70743    Mn
Mn     0.15076  0.83299  0.20743    Mn
C       0.1614   0.1505   0.8689     C
C       0.1614   0.3495   0.3689     C
C       0.1621   0.1821     0.92     C
C       0.1621   0.3179     0.42     C
C       0.1628   0.6409   0.5603     C
C       0.1628   0.8591   0.0603     C
C       0.1635   0.2298   0.1401     C
C       0.1635   0.2702   0.6401     C
C       0.1668   0.5154    0.709     C
C       0.1668   0.9846    0.209     C
C       0.1697   0.6016   0.3865     C
C       0.1697   0.8984   0.8865     C
O       0.1725   0.1234  0.82026     O
O       0.1725   0.3766  0.32026     O
C        0.175   0.6417   0.5938     C
C        0.175   0.8583   0.0938     C
C       0.1777    0.569   0.4019     C
C       0.1777    0.931   0.9019     C
H       0.1883   0.0988   0.9809     H
H       0.1883   0.4012   0.4809     H
C       0.1886   0.1941      0.7     C
C       0.1886   0.3059      0.2     C
O       0.1911  0.05593  0.78508     O
O       0.1911  0.44407  0.28508     O
C        0.195   0.5836   0.7131     C
C        0.195   0.9164   0.2131     C
C       0.2072   0.1197   0.9926     C
C       0.2072   0.3803   0.4926     C
C       0.2085    0.151   0.9397     C
C       0.2085    0.349   0.4397     C
H       0.2119   0.0966   0.0349     H
H       0.2119   0.4034   0.5349     H
O       0.2145    0.651   0.6629     O
O       0.2145    0.849   0.1629     O
C       0.2158    0.177   0.0989     C
C       0.2158    0.323   0.5989     C
C       0.2176   0.1185    0.025     C
C       0.2176   0.3815    0.525     C
C       0.2186   0.1205   0.8882     C
C       0.2186   0.3795   0.3882     C
H       0.2209    0.503   0.3098     H
H       0.2209    0.997   0.8098     H
C       0.2228   0.1504   0.9748     C
C       0.2228   0.3496   0.4748     C
H       0.2232   0.5668   0.4234     H
H       0.2232   0.9332   0.9234     H
C       0.2255   0.2182   0.6791     C
C       0.2255   0.2818   0.1791     C
H       0.2275    0.512   0.7284     H
H       0.2275    0.988   0.2284     H
C       0.2317   0.1006   0.1196     C
C       0.2317   0.3994   0.6196     C
N       0.2337   0.6329   0.4048     N
N       0.2337   0.8671   0.9048     N
C       0.2365   0.1481    0.045     C
C       0.2365   0.3519    0.545     C
C       0.2367    0.122   0.9233     C
C       0.2367    0.378   0.4233     C
N       0.2387   0.1468   0.0784     N
N       0.2387   0.3532   0.5784     N
C         0.24    0.182    0.994     C
C         0.24    0.318    0.494     C
C       0.2411   0.6359   0.4386     C
C       0.2411   0.8641   0.9386     C
H       0.2432   0.1004   0.8778     H
H       0.2432   0.3996   0.3778     H
C       0.2456   0.1801   0.0287     C
C       0.2456   0.3199   0.5287     C
H       0.2462   0.7013    0.417     H
H       0.2462   0.7987    0.917     H
H       0.2475   0.2037   0.9839     H
H       0.2475   0.2963   0.4839     H
H       0.2481    0.176   0.7074     H
H       0.2481    0.324   0.2074     H
H       0.2523   0.0608   0.1542     H
H       0.2523   0.4392   0.6542     H
H       0.2557   0.2008   0.0409     H
H       0.2557   0.2992   0.5409     H
C        0.263   0.6368   0.5091     C
C        0.263   0.8632   0.0091     C
H       0.2694   0.1022   0.9353     H
H       0.2694   0.3978   0.4353     H
C       0.2718   0.6604   0.3865     C
C       0.2718   0.8396   0.8865     C
C        0.272   0.6959    0.397     C
C        0.272   0.8041    0.897     C
C       0.2775   0.6379   0.5451     C
C       0.2775   0.8621   0.0451     C
C       0.2893   0.2142   0.1464     C
C       0.2893   0.2858   0.6464     C
C       0.2949   0.0713   0.1385     C
C       0.2949   0.4287   0.6385     C
C       0.2978   0.6365   0.6149     C
C       0.2978   0.8635   0.1149     C
C       0.3005   0.1153   0.0966     C
C       0.3005   0.3847   0.5966     C
C        0.306   0.6384   0.6514     C
C        0.306   0.8616   0.1514     C
C        0.309   0.7223   0.3783     C
C        0.309   0.7777   0.8783     C
H       0.3115   0.7453   0.3864     H
H       0.3115   0.7547   0.8864     H
H        0.312   0.2186   0.6746     H
H        0.312   0.2814   0.1746     H
C       0.3128   0.5018   0.3168     C
C       0.3128   0.9982   0.8168     C
C       0.3129   0.1882   0.1239     C
C       0.3129   0.3118   0.6239     C
O       0.3157   0.5846  0.72349     O
O       0.3157   0.9154  0.22349     O
C       0.3169   0.0561    0.789     C
C       0.3169   0.4439    0.289     C
H        0.322      0.0   0.1523     H
H        0.322      0.5   0.6523     H
C       0.3225   0.6543   0.3558     C
C       0.3225   0.8457   0.8558     C
H        0.324   0.7203   0.2823     H
H        0.324   0.7797   0.7823     H
H       0.3288   0.7323   0.7476     H
H       0.3288   0.7677   0.2476     H
H        0.333   0.5486   0.3416     H
H        0.333   0.9514   0.8416     H
H       0.3344   0.6313   0.3492     H
H       0.3344   0.8687   0.8492     H
C       0.3428   0.7166   0.3483     C
C       0.3428   0.7834   0.8483     C
C       0.3444   0.7426   0.2913     C
C       0.3444   0.7574   0.7913     C
C       0.3519   0.7293   0.7702     C
C       0.3519   0.7707   0.2702     C
O       0.3525   0.6672   0.7315     O
O       0.3525   0.8328   0.2315     O
C       0.3529   0.6814   0.3368     C
C       0.3529   0.8186   0.8368     C
H       0.3536   0.2206   0.1643     H
H       0.3536   0.2794   0.6643     H
H        0.356    0.149    0.773     H
H        0.356    0.351    0.273     H
O       0.3576   0.1564  0.78499     O
O       0.3576   0.3436  0.28499     O
C       0.3584   0.6491    0.458     C
C       0.3584   0.8509    0.958     C
C       0.3662   0.7463   0.3254     C
C       0.3662   0.7537   0.8254     C
C       0.3687   0.6486   0.4925     C
C       0.3687   0.8514   0.9925     C
H       0.3796   0.6771   0.3167     H
H       0.3796   0.8229   0.8167     H
C       0.3811   0.5292   0.3362     C
C       0.3811   0.9708   0.8362     C
O       0.3829  0.08126  0.77832     O
O       0.3829  0.41874  0.27832     O
C       0.3865   0.0274   0.8084     C
C       0.3865   0.4726   0.3084     C
C       0.3949   0.6962   0.7835     C
C       0.3949   0.8038   0.2835     C
H       0.3975   0.1781   0.1262     H
H       0.3975   0.3219   0.6262     H
C       0.3982   0.6333   0.5644     C
C       0.3982   0.8667   0.0644     C
C       0.4098   0.6339   0.5991     C
C       0.4098   0.8661   0.0991     C
C       0.4133   0.0009   0.1603     C
C       0.4133   0.4991   0.6603     C
C       0.4157   0.1017   0.0908     C
C       0.4157   0.3983   0.5908     C
C       0.4158   0.7199   0.8379     C
C       0.4158   0.7801   0.3379     C
O       0.4168   0.6269  0.66788     O
O       0.4168   0.8731  0.16788     O
C       0.4182   0.0587   0.1337     C
C       0.4182   0.4413   0.6337     C
C       0.4192   0.6667   0.7622     C
C       0.4192   0.8333   0.2622     C
C       0.4267   0.6917   0.8188     C
C       0.4267   0.8083   0.3188     C
H        0.427   0.5458   0.6868     H
H        0.427   0.9542   0.1868     H
H       0.4277   0.6579   0.4483     H
H       0.4277   0.8421   0.9483     H
H        0.442   0.7175   0.8605     H
H        0.442   0.7825   0.3605     H
H        0.445   0.5646    0.396     H
H        0.445   0.9354    0.896     H
H       0.4479   0.6564   0.5052     H
H       0.4479   0.8436   0.0052     H
H       0.4537   0.6699    0.828     H
H       0.4537   0.8301    0.328     H
H       0.4563   0.1114   0.0743     H
H       0.4563   0.3886   0.5743     H
Mn     0.47288  0.62002  0.71861    Mn
Mn     0.47288  0.87998  0.21861    Mn
H       0.4737   0.6297   0.5548     H
H       0.4737   0.8703   0.0548     H
C       0.4753   0.0736   0.1087     C
C       0.4753   0.4264   0.6087     C
C       0.4783   0.5274   0.6809     C
C       0.4783   0.9726   0.1809     C
C       0.4858    0.028   0.1531     C
C       0.4858    0.472   0.6531     C
H       0.4944   0.6325   0.6119     H
H       0.4944   0.8675   0.1119     H
O       0.4985   0.6437   0.7708     O
O       0.4985   0.8563   0.2708     O
O       0.5015   0.1437   0.7292     O
O       0.5015   0.3563   0.2292     O
H       0.5056   0.1325   0.8881     H
H       0.5056   0.3675   0.3881     H
C       0.5142    0.528   0.3469     C
C       0.5142    0.972   0.8469     C
C       0.5217   0.0274   0.8191     C
C       0.5217   0.4726   0.3191     C
C       0.5247   0.5736   0.3913     C
C       0.5247   0.9264   0.8913     C
H       0.5263   0.1297   0.9452     H
H       0.5263   0.3703   0.4452     H
Mn     0.52712  0.12002  0.78139    Mn
Mn     0.52712  0.37998  0.28139    Mn
H       0.5437   0.6114   0.4257     H
H       0.5437   0.8886   0.9257     H
H       0.5463   0.1699    0.672     H
H       0.5463   0.3301    0.172     H
H       0.5521   0.1564   0.9948     H
H       0.5521   0.3436   0.4948     H
H        0.555   0.0646    0.104     H
H        0.555   0.4354    0.604     H
H        0.558   0.2175   0.6395     H
H        0.558   0.2825   0.1395     H
H       0.5723   0.1579   0.0517     H
H       0.5723   0.3421   0.5517     H
H        0.573   0.0458   0.8132     H
H        0.573   0.4542   0.3132     H
C       0.5733   0.1917   0.6812     C
C       0.5733   0.3083   0.1812     C
C       0.5808   0.1667   0.7378     C
C       0.5808   0.3333   0.2378     C
C       0.5818   0.5587   0.3663     C
C       0.5818   0.9413   0.8663     C
O       0.5832   0.1269  0.83212     O
O       0.5832   0.3731  0.33212     O
C       0.5842   0.2199   0.6621     C
C       0.5842   0.2801   0.1621     C
C       0.5843   0.6017   0.4092     C
C       0.5843   0.8983   0.9092     C
C       0.5867   0.5009   0.3397     C
C       0.5867   0.9991   0.8397     C
C       0.5902   0.1339   0.9009     C
C       0.5902   0.3661   0.4009     C
C       0.6018   0.1333   0.9356     C
C       0.6018   0.3667   0.4356     C
H       0.6025   0.6781   0.3738     H
H       0.6025   0.8219   0.8738     H
C       0.6051   0.1962   0.7165     C
C       0.6051   0.3038   0.2165     C
C       0.6135   0.5274   0.6916     C
C       0.6135   0.9726   0.1916     C
O       0.6171  0.58126  0.72168     O
O       0.6171  0.91874  0.22168     O
C       0.6189   0.0292   0.1638     C
C       0.6189   0.4708   0.6638     C
H       0.6204   0.1771   0.1833     H
H       0.6204   0.3229   0.6833     H
C       0.6313   0.1486   0.0075     C
C       0.6313   0.3514   0.5075     C
C       0.6338   0.2463   0.1746     C
C       0.6338   0.2537   0.6746     C
C       0.6416   0.1491    0.042     C
C       0.6416   0.3509    0.542     C
O       0.6424   0.6564  0.71501     O
O       0.6424   0.8436  0.21501     O
H        0.644    0.649    0.727     H
H        0.644    0.851    0.227     H
H       0.6464   0.7206   0.3357     H
H       0.6464   0.7794   0.8357     H
C       0.6471   0.1814   0.1632     C
C       0.6471   0.3186   0.6632     C
O       0.6475   0.1672   0.7685     O
O       0.6475   0.3328   0.2685     O
C       0.6481   0.2293   0.7298     C
C       0.6481   0.2707   0.2298     C
C       0.6556   0.2426   0.2087     C
C       0.6556   0.2574   0.7087     C
C       0.6572   0.2166   0.1517     C
C       0.6572   0.2834   0.6517     C
H       0.6656   0.1313   0.1508     H
H       0.6656   0.3687   0.6508     H
H        0.667   0.0486   0.1584     H
H        0.667   0.4514   0.6584     H
H       0.6712   0.2323   0.7524     H
H       0.6712   0.2677   0.2524     H
H        0.676   0.2203   0.2177     H
H        0.676   0.2797   0.7177     H
C       0.6775   0.1543   0.1442     C
C       0.6775   0.3457   0.6442     C
H        0.678      0.0   0.8477     H
H        0.678      0.5   0.3477     H
C       0.6831   0.5561    0.711     C
C       0.6831   0.9439    0.211     C
O       0.6843   0.0846  0.77651     O
O       0.6843   0.4154  0.27651     O
C       0.6871   0.6882   0.3761     C
C       0.6871   0.8118   0.8761     C
C       0.6872   0.0018   0.1832     C
C       0.6872   0.4982   0.6832     C
H        0.688   0.7186   0.8254     H
H        0.688   0.7814   0.3254     H
H       0.6885   0.2453   0.1136     H
H       0.6885   0.2547   0.6136     H
C        0.691   0.2223   0.1217     C
C        0.691   0.2777   0.6217     C
C        0.694   0.1384   0.8486     C
C        0.694   0.3616   0.3486     C
C       0.6995   0.6153   0.4034     C
C       0.6995   0.8847   0.9034     C
C       0.7022   0.1365   0.8851     C
C       0.7022   0.3635   0.3851     C
C       0.7051   0.5713   0.3615     C
C       0.7051   0.9287   0.8615     C
C       0.7107   0.7142   0.3536     C
C       0.7107   0.7858   0.8536     C
C       0.7225   0.1379   0.9549     C
C       0.7225   0.3621   0.4549     C
C        0.728   0.1959    0.103     C
C        0.728   0.3041    0.603     C
C       0.7282   0.1604   0.1135     C
C       0.7282   0.3396   0.6135     C
H       0.7306   0.6022   0.5647     H
H       0.7306   0.8978   0.0647     H
C        0.737   0.1368   0.9909     C
C        0.737   0.3632   0.4909     C
H       0.7443   0.7008   0.4591     H
H       0.7443   0.7992   0.9591     H
H       0.7477   0.5608   0.3458     H
H       0.7477   0.9392   0.8458     H
H       0.7519    0.676   0.7926     H
H       0.7519    0.824   0.2926     H
H       0.7525   0.7037   0.5161     H
H       0.7525   0.7963   0.0161     H
H       0.7538   0.2013    0.083     H
H       0.7538   0.2987    0.583     H
C       0.7544   0.6801   0.4713     C
C       0.7544   0.8199   0.9713     C
H       0.7568   0.6004   0.6222     H
H       0.7568   0.8996   0.1222     H
C       0.7589   0.1359   0.0614     C
C       0.7589   0.3641   0.5614     C
C         0.76    0.682    0.506     C
C         0.76    0.818    0.006     C
N       0.7613   0.6468   0.4216     N
N       0.7613   0.8532   0.9216     N
C       0.7633    0.622   0.5767     C
C       0.7633    0.878   0.0767     C
C       0.7635   0.6481    0.455     C
C       0.7635   0.8519    0.955     C
N       0.7663   0.1329   0.0952     N
N       0.7663   0.3671   0.5952     N
C       0.7683   0.6006   0.3804     C
C       0.7683   0.8994   0.8804     C
H       0.7725    0.012   0.7716     H
H       0.7725    0.488   0.2716     H
C       0.7745   0.7182   0.8209     C
C       0.7745   0.7818   0.3209     C
H       0.7768   0.0668   0.0766     H
H       0.7768   0.4332   0.5766     H
C       0.7772   0.6504   0.5252     C
C       0.7772   0.8496   0.0252     C
H       0.7791    0.003   0.1902     H
H       0.7791    0.497   0.6902     H
C       0.7814   0.6205   0.6118     C
C       0.7814   0.8795   0.1118     C
C       0.7824   0.6185    0.475     C
C       0.7824   0.8815    0.975     C
C       0.7842    0.677   0.4011     C
C       0.7842    0.823   0.9011     C
O       0.7855    0.151   0.8371     O
O       0.7855    0.349   0.3371     O
H       0.7881   0.5966   0.4651     H
H       0.7881   0.9034   0.9651     H
C       0.7915    0.651   0.5603     C
C       0.7915    0.849   0.0603     C
C       0.7928   0.6197   0.5074     C
C       0.7928   0.8803   0.0074     C
C        0.805   0.0836   0.7869     C
C        0.805   0.4164   0.2869     C
O       0.8089  0.55593  0.71492     O
O       0.8089  0.94407  0.21492     O
C       0.8114   0.6941      0.8     C
C       0.8114   0.8059      0.3     C
H       0.8117   0.5988   0.5191     H
H       0.8117   0.9012   0.0191     H
C       0.8223    0.069   0.0981     C
C       0.8223    0.431   0.5981     C
C        0.825   0.1417   0.9062     C
C        0.825   0.3583   0.4062     C
O       0.8275   0.6234  0.67974     O
O       0.8275   0.8766  0.17974     O
C       0.8303   0.1016   0.1135     C
C       0.8303   0.3984   0.6135     C
C       0.8332   0.0154    0.791     C
C       0.8332   0.4846    0.291     C
C       0.8365   0.7298   0.3599     C
C       0.8365   0.7702   0.8599     C
C       0.8372   0.1409   0.9397     C
C       0.8372   0.3591   0.4397     C
C       0.8379   0.6821     0.58     C
C       0.8379   0.8179     0.08     C
C       0.8386   0.6505   0.6311     C
C       0.8386   0.8495   0.1311     C
Mn     0.84924  0.16701  0.79257    Mn
Mn     0.84924  0.33299  0.29257    Mn
H        0.851   0.6092   0.3773     H
H        0.851   0.8908   0.8773     H
C       0.8515   0.1253   0.0116     C
C       0.8515   0.3747   0.5116     C
H       0.8523    0.703   0.5694     H
H       0.8523    0.797   0.0694     H
C       0.8593   0.1247   0.0451     C
C       0.8593   0.3753   0.5451     C
C       0.8597   0.6811   0.6124     C
C       0.8597   0.8189   0.1124     C
C       0.8678   0.0504   0.8039     C
C       0.8678   0.4496   0.3039     C
H        0.869   0.0187   0.1038     H
H        0.869   0.4813   0.6038     H
H       0.8694   0.5341      0.3     H
H       0.8694   0.9659      0.8     H
C        0.872   0.6484    0.665     C
C        0.872   0.8516    0.165     C
C        0.873    0.743   0.8358     C
C        0.873    0.757   0.3358     C
C       0.8803   0.0406   0.1141     C
C       0.8803   0.4594   0.6141     C
O        0.882    0.644    0.755     O
O        0.882    0.856    0.255     O
O       0.8881   0.1113  0.78679     O
O       0.8881   0.3887  0.28679     O
H       0.8891   0.2193   0.7039     H
H       0.8891   0.2807   0.2039     H
H       0.8906   0.7015   0.6238     H
H       0.8906   0.7985   0.1238     H
C       0.8922   0.5117   0.3082     C
C       0.8922   0.9883   0.8082     C
H        0.901   0.1459    0.897     H
H        0.901   0.3541    0.397     H
C       0.9084   0.6936   0.4065     C
C       0.9084   0.8064   0.9065     C
C       0.9098   0.1061   0.1442     C
C       0.9098   0.3939   0.6442     C
H       0.9215   0.1423   0.9527     H
H       0.9215   0.3577   0.4527     H
Mn     0.92424  0.60072  0.72683    Mn
Mn     0.92424  0.89928  0.22683    Mn
H       0.9245   0.1179   0.0025     H
H       0.9245   0.3821   0.5025     H
O       0.9258   0.1737  0.74646     O
O       0.9258   0.3263  0.24646     O
H       0.9272   0.1283   0.1536     H
H       0.9272   0.3717   0.6536     H
H       0.9288   0.5248   0.6309     H
H       0.9288   0.9752   0.1309     H
H       0.9337   0.2415   0.1651     H
H       0.9337   0.2585   0.6651     H
C        0.935   0.7195   0.3865     C
C        0.935   0.7805   0.8865     C
H       0.9376   0.1161   0.0577     H
H       0.9376   0.3839   0.5577     H
C        0.939   0.6949   0.7883     C
C        0.939   0.8051   0.2883     C
O       0.9484   0.6727  0.68144     O
O       0.9484   0.8273  0.18144     O
C       0.9564   0.0425   0.1455     C
C       0.9564   0.4575   0.6455     C
C        0.962   0.0536   0.8327     C
C        0.962   0.0752   0.1601     C
C        0.962   0.4248   0.6601     C
C        0.962   0.4464   0.3327     C
C       0.9656   0.6682   0.7625     C
C       0.9656   0.8318   0.2625     C
C       0.9728   0.2187   0.6977     C
C       0.9728   0.2813   0.1977     C
H       0.9733   0.6866    0.424     H
H       0.9733   0.8134    0.924     H
H       0.9821   0.2306   0.1099     H
H       0.9821   0.2694   0.6099     H
C       0.9833   0.5098   0.3368     C
C       0.9833   0.9902   0.8368     C
C       0.9862   0.5227   0.6509     C
C       0.9862   0.9773   0.1509     C
H       0.9899   0.0757    0.841     H
H       0.9899   0.4243    0.341     H
H       0.9966    0.577   0.3181     H
H       0.9966    0.923   0.8181     H
C       0.9994   0.2426   0.6743     C
C       0.9994   0.2574   0.1743     C
