data_I
_chemical_name_common  '/home/zhangsd/repos/MofS-CGCNN/ML/data/SSD/clean_cifs/DALTAO_clean'
_cell_length_a 12.78000
_cell_length_b 13.35800
_cell_length_c 28.66800
_cell_angle_alpha 90.00000
_cell_angle_beta  90.00000
_cell_angle_gamma 90.00000
_space_group_name_H-M_alt      'P 1'


loop_
_space_group_symop_operation_xyz
  'x, y, z' 

loop_
_atom_site_label
_atom_site_fract_x
_atom_site_fract_y
_atom_site_fract_z
_atom_site_type_symbol
O       0.0396   0.3536    0.671     O
O       0.0396   0.6464    0.171     O
O       0.0486   0.1615  0.45288     O
O       0.0486   0.8385  0.95288     O
O       0.0527   0.0531   0.9555     O
O       0.0527   0.9469   0.4555     O
O       0.0531   0.1035  0.38092     O
O       0.0531   0.8965  0.88092     O
Eu     0.08915  0.04199  0.06996    Eu
Eu     0.08915  0.95801  0.56996    Eu
C       0.0894   0.1593   0.4126     C
C       0.0894   0.8407   0.9126     C
O       0.0905   0.0629    0.634     O
O       0.0905   0.9371    0.134     O
H       0.1016   0.1029   0.8715     H
H       0.1016   0.8971   0.3715     H
N       0.1226   0.3471   0.6917     N
N       0.1226   0.6529   0.1917     N
C         0.13   0.1447   0.6456     C
C         0.13   0.8553   0.1456     C
C       0.1314   0.1035   0.9646     C
C       0.1314   0.8965   0.4646     C
H        0.133   0.0165   0.7154     H
H        0.133   0.9835   0.2154     H
C       0.1346   0.1634   0.6977     C
C       0.1346   0.8366   0.1977     C
C       0.1421   0.0805   0.7275     C
C       0.1421   0.9195   0.2275     C
C       0.1431   0.2559   0.7186     C
C       0.1431   0.7441   0.2186     C
C       0.1557   0.1466    0.879     C
C       0.1557   0.8534    0.379     C
C       0.1628   0.0924    0.775     C
C       0.1628   0.9076    0.275     C
O       0.1642   0.2115   0.6191     O
O       0.1642   0.7885   0.1191     O
C       0.1658   0.2701   0.7653     C
C       0.1658   0.7299   0.2653     C
O       0.1668   0.1115   0.0048     O
O       0.1668   0.8885   0.5048     O
H       0.1676   0.0361    0.794     H
H       0.1676   0.9639    0.294     H
H        0.174   0.3345   0.7772     H
H        0.174   0.6655   0.2772     H
C       0.1763   0.1869   0.7945     C
C       0.1763   0.8131   0.2945     C
C       0.1805   0.2246    0.402     C
C       0.1805   0.7754    0.902     C
H       0.1823   0.1969   0.3328     H
H       0.1823   0.8031   0.8328     H
O       0.1866   0.4141   0.6928     O
O       0.1866   0.5859   0.1928     O
C       0.1871   0.1578   0.9261     C
C       0.1871   0.8422   0.4261     C
C       0.2051   0.2003   0.8442     C
C       0.2051   0.7997   0.3442     C
H       0.2104   0.2723   0.4674     H
H       0.2104   0.7277   0.9674     H
C       0.2144   0.2346   0.3561     C
C       0.2144   0.7654   0.8561     C
C       0.2317    0.279   0.4366     C
C       0.2317    0.721   0.9366     C
C       0.2683    0.221   0.9366     C
C       0.2683    0.779   0.4366     C
C       0.2856   0.2654   0.8561     C
C       0.2856   0.7346   0.3561     C
H       0.2896   0.2277   0.9674     H
H       0.2896   0.7723   0.4674     H
C       0.2949   0.2997   0.3442     C
C       0.2949   0.7003   0.8442     C
C       0.3129   0.3422   0.4261     C
C       0.3129   0.6578   0.9261     C
O       0.3134   0.0859   0.1928     O
O       0.3134   0.9141   0.6928     O
H       0.3177   0.3031   0.8328     H
H       0.3177   0.6969   0.3328     H
C       0.3195   0.2754    0.902     C
C       0.3195   0.7246    0.402     C
C       0.3237   0.3131   0.2945     C
C       0.3237   0.6869   0.7945     C
H        0.326   0.1655   0.2772     H
H        0.326   0.8345   0.7772     H
H       0.3324   0.4639    0.294     H
H       0.3324   0.5361    0.794     H
O       0.3332   0.3885   0.5048     O
O       0.3332   0.6115   0.0048     O
C       0.3342   0.2299   0.2653     C
C       0.3342   0.7701   0.7653     C
O       0.3358   0.2885   0.1191     O
O       0.3358   0.7115   0.6191     O
C       0.3372   0.4076    0.275     C
C       0.3372   0.5924    0.775     C
C       0.3443   0.3534    0.379     C
C       0.3443   0.6466    0.879     C
C       0.3569   0.2441   0.2186     C
C       0.3569   0.7559   0.7186     C
C       0.3579   0.4195   0.2275     C
C       0.3579   0.5805   0.7275     C
C       0.3654   0.3366   0.1977     C
C       0.3654   0.6634   0.6977     C
H        0.367   0.4835   0.2154     H
H        0.367   0.5165   0.7154     H
C       0.3686   0.3965   0.4646     C
C       0.3686   0.6035   0.9646     C
C         0.37   0.3553   0.1456     C
C         0.37   0.6447   0.6456     C
N       0.3774   0.1529   0.1917     N
N       0.3774   0.8471   0.6917     N
H       0.3984   0.3971   0.3715     H
H       0.3984   0.6029   0.8715     H
O       0.4095   0.4371    0.134     O
O       0.4095   0.5629    0.634     O
C       0.4106   0.3407   0.9126     C
C       0.4106   0.6593   0.4126     C
Eu     0.41085  0.45801  0.56996    Eu
Eu     0.41085  0.54199  0.06996    Eu
O       0.4469   0.3965  0.88092     O
O       0.4469   0.6035  0.38092     O
O       0.4473   0.4469   0.4555     O
O       0.4473   0.5531   0.9555     O
O       0.4514   0.3385  0.95288     O
O       0.4514   0.6615  0.45288     O
O       0.4604   0.1464    0.171     O
O       0.4604   0.8536    0.671     O
O       0.5396   0.1464    0.329     O
O       0.5396   0.8536    0.829     O
O       0.5486   0.3385  0.54712     O
O       0.5486   0.6615  0.04712     O
O       0.5527   0.4469   0.0445     O
O       0.5527   0.5531   0.5445     O
O       0.5531   0.3965  0.61908     O
O       0.5531   0.6035  0.11908     O
Eu     0.58915  0.45801  0.93004    Eu
Eu     0.58915  0.54199  0.43004    Eu
C       0.5894   0.3407   0.5874     C
C       0.5894   0.6593   0.0874     C
O       0.5905   0.4371    0.366     O
O       0.5905   0.5629    0.866     O
H       0.6016   0.3971   0.1285     H
H       0.6016   0.6029   0.6285     H
N       0.6226   0.1529   0.3083     N
N       0.6226   0.8471   0.8083     N
C         0.63   0.3553   0.3544     C
C         0.63   0.6447   0.8544     C
C       0.6314   0.3965   0.0354     C
C       0.6314   0.6035   0.5354     C
H        0.633   0.4835   0.2846     H
H        0.633   0.5165   0.7846     H
C       0.6346   0.3366   0.3023     C
C       0.6346   0.6634   0.8023     C
C       0.6421   0.4195   0.2725     C
C       0.6421   0.5805   0.7725     C
C       0.6431   0.2441   0.2814     C
C       0.6431   0.7559   0.7814     C
C       0.6557   0.3534    0.121     C
C       0.6557   0.6466    0.621     C
C       0.6628   0.4076    0.225     C
C       0.6628   0.5924    0.725     C
O       0.6642   0.2885   0.3809     O
O       0.6642   0.7115   0.8809     O
C       0.6658   0.2299   0.2347     C
C       0.6658   0.7701   0.7347     C
O       0.6668   0.3885   0.9952     O
O       0.6668   0.6115   0.4952     O
H       0.6676   0.4639    0.206     H
H       0.6676   0.5361    0.706     H
H        0.674   0.1655   0.2228     H
H        0.674   0.8345   0.7228     H
C       0.6763   0.3131   0.2055     C
C       0.6763   0.6869   0.7055     C
C       0.6805   0.2754    0.598     C
C       0.6805   0.7246    0.098     C
H       0.6823   0.3031   0.6672     H
H       0.6823   0.6969   0.1672     H
O       0.6866   0.0859   0.3072     O
O       0.6866   0.9141   0.8072     O
C       0.6871   0.3422   0.0739     C
C       0.6871   0.6578   0.5739     C
C       0.7051   0.2997   0.1558     C
C       0.7051   0.7003   0.6558     C
H       0.7104   0.2277   0.5326     H
H       0.7104   0.7723   0.0326     H
C       0.7144   0.2654   0.6439     C
C       0.7144   0.7346   0.1439     C
C       0.7317    0.221   0.5634     C
C       0.7317    0.779   0.0634     C
C       0.7683    0.279   0.0634     C
C       0.7683    0.721   0.5634     C
C       0.7856   0.2346   0.1439     C
C       0.7856   0.7654   0.6439     C
H       0.7896   0.2723   0.0326     H
H       0.7896   0.7277   0.5326     H
C       0.7949   0.2003   0.6558     C
C       0.7949   0.7997   0.1558     C
C       0.8129   0.1578   0.5739     C
C       0.8129   0.8422   0.0739     C
O       0.8134   0.4141   0.8072     O
O       0.8134   0.5859   0.3072     O
H       0.8177   0.1969   0.1672     H
H       0.8177   0.8031   0.6672     H
C       0.8195   0.2246    0.098     C
C       0.8195   0.7754    0.598     C
C       0.8237   0.1869   0.7055     C
C       0.8237   0.8131   0.2055     C
H        0.826   0.3345   0.7228     H
H        0.826   0.6655   0.2228     H
H       0.8324   0.0361    0.706     H
H       0.8324   0.9639    0.206     H
O       0.8332   0.1115   0.4952     O
O       0.8332   0.8885   0.9952     O
C       0.8342   0.2701   0.7347     C
C       0.8342   0.7299   0.2347     C
O       0.8358   0.2115   0.8809     O
O       0.8358   0.7885   0.3809     O
C       0.8372   0.0924    0.725     C
C       0.8372   0.9076    0.225     C
C       0.8443   0.1466    0.621     C
C       0.8443   0.8534    0.121     C
C       0.8569   0.2559   0.7814     C
C       0.8569   0.7441   0.2814     C
C       0.8579   0.0805   0.7725     C
C       0.8579   0.9195   0.2725     C
C       0.8654   0.1634   0.8023     C
C       0.8654   0.8366   0.3023     C
H        0.867   0.0165   0.7846     H
H        0.867   0.9835   0.2846     H
C       0.8686   0.1035   0.5354     C
C       0.8686   0.8965   0.0354     C
C         0.87   0.1447   0.8544     C
C         0.87   0.8553   0.3544     C
N       0.8774   0.3471   0.8083     N
N       0.8774   0.6529   0.3083     N
H       0.8984   0.1029   0.6285     H
H       0.8984   0.8971   0.1285     H
O       0.9095   0.0629    0.866     O
O       0.9095   0.9371    0.366     O
C       0.9106   0.1593   0.0874     C
C       0.9106   0.8407   0.5874     C
Eu     0.91085  0.04199  0.43004    Eu
Eu     0.91085  0.95801  0.93004    Eu
O       0.9469   0.1035  0.11908     O
O       0.9469   0.8965  0.61908     O
O       0.9473   0.0531   0.5445     O
O       0.9473   0.9469   0.0445     O
O       0.9514   0.1615  0.04712     O
O       0.9514   0.8385  0.54712     O
O       0.9604   0.3536    0.829     O
O       0.9604   0.6464    0.329     O
