data_I
_chemical_name_common  '/home/zhangsd/repos/MofS-CGCNN/ML/data/SSD/clean_cifs/DEJCEB_clean'
_cell_length_a 14.04000
_cell_length_b 14.34500
_cell_length_c 27.75600
_cell_angle_alpha 90.00000
_cell_angle_beta  90.00000
_cell_angle_gamma 90.00000
_space_group_name_H-M_alt      'P 1'


loop_
_space_group_symop_operation_xyz
  'x, y, z' 

loop_
_atom_site_label
_atom_site_fract_x
_atom_site_fract_y
_atom_site_fract_z
_atom_site_type_symbol
C       0.0012   0.0602   0.3026     C
C       0.0012   0.4398   0.8026     C
C       0.0038   0.0558   0.2527     C
C       0.0038   0.4442   0.7527     C
C       0.0148   0.5412    0.576     C
C       0.0148   0.9588    0.076     C
C        0.024   0.6251   0.5992     C
C        0.024   0.8749   0.0992     C
H       0.0276   0.1679      0.9     H
H       0.0276   0.3321      0.4     H
H       0.0422   0.0253   0.9406     H
H       0.0422   0.4747   0.4406     H
H       0.0797   0.0514   0.3625     H
H       0.0797   0.4486   0.8625     H
C       0.0828   0.0492   0.3284     C
C       0.0828   0.4508   0.8284     C
C        0.083   0.5733   0.2789     C
C        0.083   0.9267   0.7789     C
H       0.0848   0.0776   0.0617     H
H       0.0848   0.4224   0.5617     H
C       0.0908   0.0192   0.0775     C
C       0.0908   0.4808   0.5775     C
C       0.0913   0.5674   0.1703     C
C       0.0913   0.9326   0.6703     C
C       0.0926   0.0428   0.2307     C
C       0.0926   0.4572   0.7307     C
O       0.0958    0.621   0.1351     O
O       0.0958    0.879   0.6351     O
H       0.0973   0.0412   0.1966     H
H       0.0973   0.4588   0.6966     H
O       0.1007   0.5033   0.3068     O
O       0.1007   0.9967   0.8068     O
C       0.1094   0.6465   0.6215     C
C       0.1094   0.8535   0.1215     C
H       0.1182   0.7052   0.6367     H
H       0.1182   0.7948   0.1367     H
O       0.1293    0.644   0.2747     O
O       0.1293    0.856   0.7747     O
O       0.1583   0.5158   0.1837     O
O       0.1583   0.9842   0.6837     O
O       0.1588   0.5738   0.9144     O
O       0.1588   0.9262   0.4144     O
N       0.1695   0.0351   0.3067     N
N       0.1695   0.4649   0.8067     N
C       0.1718   0.0324   0.2581     C
C       0.1718   0.4676   0.7581     C
N        0.172   0.0005   0.0998     N
N        0.172   0.4995   0.5998     N
C       0.1792   0.5832   0.6212     C
C       0.1792   0.9168   0.1212     C
O         0.19   0.6809   0.0449     O
O         0.19   0.8191   0.5449     O
H       0.1969   0.5246   0.4566     H
H       0.1969   0.9754   0.9566     H
O       0.1994   0.1195   0.9952     O
O       0.1994   0.3805   0.4952     O
H       0.1998   0.6398   0.5148     H
H       0.1998   0.8602   0.0148     H
C       0.2012    0.588    0.447     C
C       0.2012    0.912    0.947     C
N       0.2034    0.609   0.3998     N
N       0.2034    0.891   0.8998     N
H       0.2041   0.7137   0.3537     H
H       0.2041   0.7863   0.8537     H
C       0.2048   0.6561   0.4817     C
C       0.2048   0.8439   0.9817     C
C       0.2067   0.6986    0.387     C
C       0.2067   0.8014    0.887     C
Zn     0.21261  0.51077  0.34721    Zn
Zn     0.21261  0.98923  0.84721    Zn
C       0.2136     0.73   0.9198     C
C       0.2136     0.77   0.4198     C
Zn     0.21372  0.59116  0.09779    Zn
Zn     0.21372  0.90884  0.59779    Zn
O        0.214   0.1161    0.871     O
O        0.214   0.3839    0.371     O
C       0.2159   0.7497   0.4684     C
C       0.2159   0.7503   0.9684     C
C       0.2189   0.6309   0.9012     C
C       0.2189   0.8691   0.4012     C
H       0.2313   0.0229   0.2425     H
H       0.2313   0.4771   0.7425     H
C       0.2361   0.6758   0.0055     C
C       0.2361   0.8242   0.5055     C
H       0.2372   0.5983    0.637     H
H       0.2372   0.9017    0.137     H
H       0.2628   0.0983    0.637     H
H       0.2628   0.4017    0.137     H
C       0.2639   0.1758   0.0055     C
C       0.2639   0.3242   0.5055     C
H       0.2687   0.5229   0.2425     H
H       0.2687   0.9771   0.7425     H
C       0.2811   0.1309   0.9012     C
C       0.2811   0.3691   0.4012     C
C       0.2841   0.2497   0.4684     C
C       0.2841   0.2503   0.9684     C
O        0.286   0.6161    0.871     O
O        0.286   0.8839    0.371     O
Zn     0.28628  0.09116  0.09779    Zn
Zn     0.28628  0.40884  0.59779    Zn
C       0.2864     0.23   0.9198     C
C       0.2864     0.27   0.4198     C
Zn     0.28739  0.01077  0.34721    Zn
Zn     0.28739  0.48923  0.84721    Zn
C       0.2933   0.1986    0.387     C
C       0.2933   0.3014    0.887     C
C       0.2952   0.1561   0.4817     C
C       0.2952   0.3439   0.9817     C
H       0.2959   0.2137   0.3537     H
H       0.2959   0.2863   0.8537     H
N       0.2966    0.109   0.3998     N
N       0.2966    0.391   0.8998     N
C       0.2988    0.088    0.447     C
C       0.2988    0.412    0.947     C
H       0.3002   0.1398   0.5148     H
H       0.3002   0.3602   0.0148     H
O       0.3006   0.6195   0.9952     O
O       0.3006   0.8805   0.4952     O
H       0.3031   0.0246   0.4566     H
H       0.3031   0.4754   0.9566     H
O         0.31   0.1809   0.0449     O
O         0.31   0.3191   0.5449     O
C       0.3208   0.0832   0.6212     C
C       0.3208   0.4168   0.1212     C
N        0.328   0.5005   0.0998     N
N        0.328   0.9995   0.5998     N
C       0.3282   0.5324   0.2581     C
C       0.3282   0.9676   0.7581     C
N       0.3305   0.5351   0.3067     N
N       0.3305   0.9649   0.8067     N
O       0.3412   0.0738   0.9144     O
O       0.3412   0.4262   0.4144     O
O       0.3417   0.0158   0.1837     O
O       0.3417   0.4842   0.6837     O
O       0.3707    0.144   0.2747     O
O       0.3707    0.356   0.7747     O
H       0.3818   0.2052   0.6367     H
H       0.3818   0.2948   0.1367     H
C       0.3906   0.1465   0.6215     C
C       0.3906   0.3535   0.1215     C
O       0.3993   0.0033   0.3068     O
O       0.3993   0.4967   0.8068     O
H       0.4027   0.5412   0.1966     H
H       0.4027   0.9588   0.6966     H
O       0.4042    0.121   0.1351     O
O       0.4042    0.379   0.6351     O
C       0.4074   0.5428   0.2307     C
C       0.4074   0.9572   0.7307     C
C       0.4087   0.0674   0.1703     C
C       0.4087   0.4326   0.6703     C
C       0.4092   0.5192   0.0775     C
C       0.4092   0.9808   0.5775     C
H       0.4152   0.5776   0.0617     H
H       0.4152   0.9224   0.5617     H
C        0.417   0.0733   0.2789     C
C        0.417   0.4267   0.7789     C
C       0.4172   0.5492   0.3284     C
C       0.4172   0.9508   0.8284     C
H       0.4203   0.5514   0.3625     H
H       0.4203   0.9486   0.8625     H
H       0.4578   0.5253   0.9406     H
H       0.4578   0.9747   0.4406     H
H       0.4724   0.6679      0.9     H
H       0.4724   0.8321      0.4     H
C        0.476   0.1251   0.5992     C
C        0.476   0.3749   0.0992     C
C       0.4852   0.0412    0.576     C
C       0.4852   0.4588    0.076     C
C       0.4962   0.5558   0.2527     C
C       0.4962   0.9442   0.7527     C
C       0.4988   0.5602   0.3026     C
C       0.4988   0.9398   0.8026     C
C       0.5012   0.0602   0.1974     C
C       0.5012   0.4398   0.6974     C
C       0.5038   0.0558   0.2473     C
C       0.5038   0.4442   0.7473     C
C       0.5148   0.5412    0.924     C
C       0.5148   0.9588    0.424     C
C        0.524   0.6251   0.9008     C
C        0.524   0.8749   0.4008     C
H       0.5276   0.1679      0.6     H
H       0.5276   0.3321      0.1     H
H       0.5422   0.0253   0.5594     H
H       0.5422   0.4747   0.0594     H
H       0.5797   0.0514   0.1375     H
H       0.5797   0.4486   0.6375     H
C       0.5828   0.0492   0.1716     C
C       0.5828   0.4508   0.6716     C
C        0.583   0.5733   0.2211     C
C        0.583   0.9267   0.7211     C
H       0.5848   0.0776   0.4383     H
H       0.5848   0.4224   0.9383     H
C       0.5908   0.0192   0.4225     C
C       0.5908   0.4808   0.9225     C
C       0.5913   0.5674   0.3297     C
C       0.5913   0.9326   0.8297     C
C       0.5926   0.0428   0.2693     C
C       0.5926   0.4572   0.7693     C
O       0.5958    0.621   0.3649     O
O       0.5958    0.879   0.8649     O
H       0.5973   0.0412   0.3034     H
H       0.5973   0.4588   0.8034     H
O       0.6007   0.5033   0.1932     O
O       0.6007   0.9967   0.6932     O
C       0.6094   0.6465   0.8785     C
C       0.6094   0.8535   0.3785     C
H       0.6182   0.7052   0.8633     H
H       0.6182   0.7948   0.3633     H
O       0.6293    0.644   0.2253     O
O       0.6293    0.856   0.7253     O
O       0.6583   0.5158   0.3163     O
O       0.6583   0.9842   0.8163     O
O       0.6588   0.5738   0.5856     O
O       0.6588   0.9262   0.0856     O
N       0.6695   0.0351   0.1933     N
N       0.6695   0.4649   0.6933     N
C       0.6718   0.0324   0.2419     C
C       0.6718   0.4676   0.7419     C
N        0.672   0.0005   0.4002     N
N        0.672   0.4995   0.9002     N
C       0.6792   0.5832   0.8788     C
C       0.6792   0.9168   0.3788     C
O         0.69   0.6809   0.4551     O
O         0.69   0.8191   0.9551     O
H       0.6969   0.5246   0.0434     H
H       0.6969   0.9754   0.5434     H
O       0.6994   0.1195   0.5048     O
O       0.6994   0.3805   0.0048     O
H       0.6998   0.6398   0.9852     H
H       0.6998   0.8602   0.4852     H
C       0.7012    0.588    0.053     C
C       0.7012    0.912    0.553     C
N       0.7034    0.609   0.1002     N
N       0.7034    0.891   0.6002     N
H       0.7041   0.7137   0.1463     H
H       0.7041   0.7863   0.6463     H
C       0.7048   0.6561   0.0183     C
C       0.7048   0.8439   0.5183     C
C       0.7067   0.6986    0.113     C
C       0.7067   0.8014    0.613     C
Zn     0.71261  0.51077  0.15279    Zn
Zn     0.71261  0.98923  0.65279    Zn
C       0.7136     0.73   0.5802     C
C       0.7136     0.77   0.0802     C
Zn     0.71372  0.59116  0.40221    Zn
Zn     0.71372  0.90884  0.90221    Zn
O        0.714   0.1161    0.629     O
O        0.714   0.3839    0.129     O
C       0.7159   0.7497   0.0316     C
C       0.7159   0.7503   0.5316     C
C       0.7189   0.6309   0.5988     C
C       0.7189   0.8691   0.0988     C
H       0.7313   0.0229   0.2575     H
H       0.7313   0.4771   0.7575     H
C       0.7361   0.6758   0.4945     C
C       0.7361   0.8242   0.9945     C
H       0.7372   0.5983    0.863     H
H       0.7372   0.9017    0.363     H
H       0.7628   0.0983    0.863     H
H       0.7628   0.4017    0.363     H
C       0.7639   0.1758   0.4945     C
C       0.7639   0.3242   0.9945     C
H       0.7687   0.5229   0.2575     H
H       0.7687   0.9771   0.7575     H
C       0.7811   0.1309   0.5988     C
C       0.7811   0.3691   0.0988     C
C       0.7841   0.2497   0.0316     C
C       0.7841   0.2503   0.5316     C
O        0.786   0.6161    0.629     O
O        0.786   0.8839    0.129     O
Zn     0.78628  0.09116  0.40221    Zn
Zn     0.78628  0.40884  0.90221    Zn
C       0.7864     0.23   0.5802     C
C       0.7864     0.27   0.0802     C
Zn     0.78739  0.01077  0.15279    Zn
Zn     0.78739  0.48923  0.65279    Zn
C       0.7933   0.1986    0.113     C
C       0.7933   0.3014    0.613     C
C       0.7952   0.1561   0.0183     C
C       0.7952   0.3439   0.5183     C
H       0.7959   0.2137   0.1463     H
H       0.7959   0.2863   0.6463     H
N       0.7966    0.109   0.1002     N
N       0.7966    0.391   0.6002     N
C       0.7988    0.088    0.053     C
C       0.7988    0.412    0.553     C
H       0.8002   0.1398   0.9852     H
H       0.8002   0.3602   0.4852     H
O       0.8006   0.6195   0.5048     O
O       0.8006   0.8805   0.0048     O
H       0.8031   0.0246   0.0434     H
H       0.8031   0.4754   0.5434     H
O         0.81   0.1809   0.4551     O
O         0.81   0.3191   0.9551     O
C       0.8208   0.0832   0.8788     C
C       0.8208   0.4168   0.3788     C
N        0.828   0.5005   0.4002     N
N        0.828   0.9995   0.9002     N
C       0.8282   0.5324   0.2419     C
C       0.8282   0.9676   0.7419     C
N       0.8305   0.5351   0.1933     N
N       0.8305   0.9649   0.6933     N
O       0.8412   0.0738   0.5856     O
O       0.8412   0.4262   0.0856     O
O       0.8417   0.0158   0.3163     O
O       0.8417   0.4842   0.8163     O
O       0.8707    0.144   0.2253     O
O       0.8707    0.356   0.7253     O
H       0.8818   0.2052   0.8633     H
H       0.8818   0.2948   0.3633     H
C       0.8906   0.1465   0.8785     C
C       0.8906   0.3535   0.3785     C
O       0.8993   0.0033   0.1932     O
O       0.8993   0.4967   0.6932     O
H       0.9027   0.5412   0.3034     H
H       0.9027   0.9588   0.8034     H
O       0.9042    0.121   0.3649     O
O       0.9042    0.379   0.8649     O
C       0.9074   0.5428   0.2693     C
C       0.9074   0.9572   0.7693     C
C       0.9087   0.0674   0.3297     C
C       0.9087   0.4326   0.8297     C
C       0.9092   0.5192   0.4225     C
C       0.9092   0.9808   0.9225     C
H       0.9152   0.5776   0.4383     H
H       0.9152   0.9224   0.9383     H
C        0.917   0.0733   0.2211     C
C        0.917   0.4267   0.7211     C
C       0.9172   0.5492   0.1716     C
C       0.9172   0.9508   0.6716     C
H       0.9203   0.5514   0.1375     H
H       0.9203   0.9486   0.6375     H
H       0.9578   0.5253   0.5594     H
H       0.9578   0.9747   0.0594     H
H       0.9724   0.6679      0.6     H
H       0.9724   0.8321      0.1     H
C        0.976   0.1251   0.9008     C
C        0.976   0.3749   0.4008     C
C       0.9852   0.0412    0.924     C
C       0.9852   0.4588    0.424     C
C       0.9962   0.5558   0.2473     C
C       0.9962   0.9442   0.7473     C
C       0.9988   0.5602   0.1974     C
C       0.9988   0.9398   0.6974     C
