data_I
_chemical_name_common  '/home/zhangsd/repos/MofS-CGCNN/ML/data/SSD/clean_cifs/DIKJUD_clean'
_cell_length_a 21.29600
_cell_length_b  9.38200
_cell_length_c 18.80300
_cell_angle_alpha 90.00000
_cell_angle_beta  90.00000
_cell_angle_gamma 90.00000
_space_group_name_H-M_alt      'P 1'


loop_
_space_group_symop_operation_xyz
  'x, y, z' 

loop_
_atom_site_label
_atom_site_fract_x
_atom_site_fract_y
_atom_site_fract_z
_atom_site_type_symbol
H       0.0037    0.719   0.7234     H
C       0.0094   0.3747   0.8546     C
C       0.0097   0.3671   0.1992     C
C       0.0133   0.8816   0.9011     C
C       0.0134   0.8165   0.4577     C
N       0.0164   0.4793    0.597     N
H       0.0167   0.5671    0.109     H
N       0.0188   0.4812   0.2527     N
H        0.021   0.8827   0.4935     H
C       0.0233   0.3213   0.4946     C
C       0.0244   0.4881   0.8003     C
H       0.0259   0.9512   0.8689     H
C       0.0342   0.2768   0.9681     C
C       0.0372   0.7215   0.3496     C
C        0.038   0.5973   0.6421     C
C       0.0409   0.6979   0.9807     C
H       0.0452   0.6807   0.6128     H
C       0.0472   0.4417   0.5374     C
C       0.0478   0.3677   0.9153     C
N        0.049    0.133   0.4152     N
H       0.0497   0.3472   0.1766     H
N       0.0506   0.8214   0.4003     N
H       0.0534   0.5286   0.2527     H
H       0.0568   0.2777   0.0104     H
C       0.0571   0.7999   0.9317     C
H       0.0621   0.7198    0.309     H
C       0.0662    0.234   0.4611     C
H       0.0713   0.6436   0.0037     H
O       0.0753   0.5499   0.8006     O
H       0.0775   0.5714   0.6643     H
H       0.0828   0.4265   0.9188     H
O       0.0968    0.504   0.5213     O
H        0.099   0.8124   0.9196     H
H       0.1087   0.2462   0.4709     H
Cu     0.11209  0.98117    0.382    Cu
H       0.1378   0.2456   0.2941     H
O       0.1675   0.4778   0.2288     O
H       0.1712   0.7237   0.4486     H
O       0.1716   0.5379   0.9695     O
H        0.172   0.6355    0.842     H
C       0.1757   0.2327   0.3177     C
H       0.1788   0.1985   0.9168     H
N       0.1794   0.1328   0.3691     N
N       0.1795   0.8329   0.3595     N
H       0.1831    0.361   0.8251     H
H       0.1883   0.5172   0.4913     H
H        0.189   0.5656   0.6285     H
C       0.1968   0.7378   0.4091     C
H       0.1982   0.3911   0.7085     H
H       0.2046   0.7867   0.7509     H
H       0.2068    0.921   0.2685     H
C       0.2102   0.6831   0.8452     C
H       0.2128   0.3423   0.5688     H
C       0.2155   0.2076   0.8904     C
H       0.2167   0.3915   0.0657     H
C       0.2172   0.4149   0.2372     C
C       0.2177   0.3048   0.8364     C
C       0.2178   0.8527   0.3021     C
C        0.226    0.316    0.299     C
N        0.227   0.5061   0.5033     N
C       0.2282   0.5664   0.9613     C
C       0.2283   0.7763   0.7921     C
C       0.2296   0.5193   0.6319     C
N       0.2322   0.4337   0.6959     N
C       0.2339    0.123   0.4068     C
H       0.2369   0.0582    0.444     H
H       0.2384   0.5928   0.1338     H
C       0.2402   0.4248   0.5666     C
C       0.2489   0.6611   0.9027     C
C       0.2511   0.6611   0.4027     C
C       0.2598   0.4248   0.0666     C
H       0.2616   0.5928   0.6338     H
H       0.2631   0.0582    0.944     H
C       0.2661    0.123   0.9068     C
N       0.2678   0.4337   0.1959     N
C       0.2704   0.5193   0.1319     C
C       0.2717   0.7763   0.2921     C
C       0.2718   0.5664   0.4613     C
N        0.273   0.5061   0.0033     N
C        0.274    0.316    0.799     C
C       0.2822   0.8527   0.8021     C
C       0.2823   0.3048   0.3364     C
C       0.2828   0.4149   0.7372     C
H       0.2833   0.3915   0.5657     H
C       0.2845   0.2076   0.3904     C
H       0.2872   0.3423   0.0688     H
C       0.2898   0.6831   0.3452     C
H       0.2932    0.921   0.7685     H
H       0.2954   0.7867   0.2509     H
H       0.3018   0.3911   0.2085     H
C       0.3032   0.7378   0.9091     C
H        0.311   0.5656   0.1285     H
H       0.3117   0.5172   0.9913     H
H       0.3169    0.361   0.3251     H
N       0.3205   0.8329   0.8595     N
N       0.3206   0.1328   0.8691     N
H       0.3212   0.1985   0.4168     H
C       0.3243   0.2327   0.8177     C
H        0.328   0.6355    0.342     H
O       0.3284   0.5379   0.4695     O
H       0.3288   0.7237   0.9486     H
O       0.3325   0.4778   0.7288     O
H       0.3622   0.2456   0.7941     H
Cu     0.38791  0.98117    0.882    Cu
H       0.3913   0.2462   0.9709     H
H        0.401   0.8124   0.4196     H
O       0.4032    0.504   0.0213     O
H       0.4172   0.4265   0.4188     H
H       0.4225   0.5714   0.1643     H
O       0.4247   0.5499   0.3006     O
H       0.4287   0.6436   0.5037     H
C       0.4338    0.234   0.9611     C
H       0.4379   0.7198    0.809     H
C       0.4429   0.7999   0.4317     C
H       0.4432   0.2777   0.5104     H
H       0.4466   0.5286   0.7527     H
N       0.4494   0.8214   0.9003     N
H       0.4503   0.3472   0.6766     H
N        0.451    0.133   0.9152     N
C       0.4522   0.3677   0.4153     C
C       0.4528   0.4417   0.0374     C
H       0.4548   0.6807   0.1128     H
C       0.4591   0.6979   0.4807     C
C        0.462   0.5973   0.1421     C
C       0.4628   0.7215   0.8496     C
C       0.4658   0.2768   0.4681     C
H       0.4741   0.9512   0.3689     H
C       0.4756   0.4881   0.3003     C
C       0.4767   0.3213   0.9946     C
H        0.479   0.8827   0.9935     H
N       0.4812   0.4812   0.7527     N
H       0.4833   0.5671    0.609     H
N       0.4836   0.4793    0.097     N
C       0.4866   0.8165   0.9577     C
C       0.4867   0.8816   0.4011     C
C       0.4903   0.3671   0.6992     C
C       0.4906   0.3747   0.3546     C
H       0.4963    0.719   0.2234     H
H       0.5037    0.281   0.7234     H
C       0.5094   0.6253   0.8546     C
C       0.5097   0.6329   0.1992     C
C       0.5133   0.1184   0.9011     C
C       0.5134   0.1835   0.4577     C
N       0.5164   0.5207    0.597     N
H       0.5167   0.4329    0.109     H
N       0.5188   0.5188   0.2527     N
H        0.521   0.1173   0.4935     H
C       0.5233   0.6787   0.4946     C
C       0.5244   0.5119   0.8003     C
H       0.5259   0.0488   0.8689     H
C       0.5342   0.7232   0.9681     C
C       0.5372   0.2785   0.3496     C
C        0.538   0.4027   0.6421     C
C       0.5409   0.3021   0.9807     C
H       0.5452   0.3193   0.6128     H
C       0.5472   0.5583   0.5374     C
C       0.5478   0.6323   0.9153     C
N        0.549    0.867   0.4152     N
H       0.5497   0.6528   0.1766     H
N       0.5506   0.1786   0.4003     N
H       0.5534   0.4714   0.2527     H
H       0.5568   0.7223   0.0104     H
C       0.5571   0.2001   0.9317     C
H       0.5621   0.2802    0.309     H
C       0.5662    0.766   0.4611     C
H       0.5713   0.3564   0.0037     H
O       0.5753   0.4501   0.8006     O
H       0.5775   0.4286   0.6643     H
H       0.5828   0.5735   0.9188     H
O       0.5968    0.496   0.5213     O
H        0.599   0.1876   0.9196     H
H       0.6087   0.7538   0.4709     H
Cu     0.61209  0.01883    0.382    Cu
H       0.6378   0.7544   0.2941     H
O       0.6675   0.5222   0.2288     O
H       0.6712   0.2763   0.4486     H
O       0.6716   0.4621   0.9695     O
H        0.672   0.3645    0.842     H
C       0.6757   0.7673   0.3177     C
H       0.6788   0.8015   0.9168     H
N       0.6794   0.8672   0.3691     N
N       0.6795   0.1671   0.3595     N
H       0.6831    0.639   0.8251     H
H       0.6883   0.4828   0.4913     H
H        0.689   0.4344   0.6285     H
C       0.6968   0.2622   0.4091     C
H       0.6982   0.6089   0.7085     H
H       0.7046   0.2133   0.7509     H
H       0.7068    0.079   0.2685     H
C       0.7102   0.3169   0.8452     C
H       0.7128   0.6577   0.5688     H
C       0.7155   0.7924   0.8904     C
H       0.7167   0.6085   0.0657     H
C       0.7172   0.5851   0.2372     C
C       0.7177   0.6952   0.8364     C
C       0.7178   0.1473   0.3021     C
C        0.726    0.684    0.299     C
N        0.727   0.4939   0.5033     N
C       0.7282   0.4336   0.9613     C
C       0.7283   0.2237   0.7921     C
C       0.7296   0.4807   0.6319     C
N       0.7322   0.5663   0.6959     N
C       0.7339    0.877   0.4068     C
H       0.7369   0.9418    0.444     H
H       0.7384   0.4072   0.1338     H
C       0.7402   0.5752   0.5666     C
C       0.7489   0.3389   0.9027     C
C       0.7511   0.3389   0.4027     C
C       0.7598   0.5752   0.0666     C
H       0.7616   0.4072   0.6338     H
H       0.7631   0.9418    0.944     H
C       0.7661    0.877   0.9068     C
N       0.7678   0.5663   0.1959     N
C       0.7704   0.4807   0.1319     C
C       0.7717   0.2237   0.2921     C
C       0.7718   0.4336   0.4613     C
N        0.773   0.4939   0.0033     N
C        0.774    0.684    0.799     C
C       0.7822   0.1473   0.8021     C
C       0.7823   0.6952   0.3364     C
C       0.7828   0.5851   0.7372     C
H       0.7833   0.6085   0.5657     H
C       0.7845   0.7924   0.3904     C
H       0.7872   0.6577   0.0688     H
C       0.7898   0.3169   0.3452     C
H       0.7932    0.079   0.7685     H
H       0.7954   0.2133   0.2509     H
H       0.8018   0.6089   0.2085     H
C       0.8032   0.2622   0.9091     C
H        0.811   0.4344   0.1285     H
H       0.8117   0.4828   0.9913     H
H       0.8169    0.639   0.3251     H
N       0.8205   0.1671   0.8595     N
N       0.8206   0.8672   0.8691     N
H       0.8212   0.8015   0.4168     H
C       0.8243   0.7673   0.8177     C
H        0.828   0.3645    0.342     H
O       0.8284   0.4621   0.4695     O
H       0.8288   0.2763   0.9486     H
O       0.8325   0.5222   0.7288     O
H       0.8622   0.7544   0.7941     H
Cu     0.88791  0.01883    0.882    Cu
H       0.8913   0.7538   0.9709     H
H        0.901   0.1876   0.4196     H
O       0.9032    0.496   0.0213     O
H       0.9172   0.5735   0.4188     H
H       0.9225   0.4286   0.1643     H
O       0.9247   0.4501   0.3006     O
H       0.9287   0.3564   0.5037     H
C       0.9338    0.766   0.9611     C
H       0.9379   0.2802    0.809     H
C       0.9429   0.2001   0.4317     C
H       0.9432   0.7223   0.5104     H
H       0.9466   0.4714   0.7527     H
N       0.9494   0.1786   0.9003     N
H       0.9503   0.6528   0.6766     H
N        0.951    0.867   0.9152     N
C       0.9522   0.6323   0.4153     C
C       0.9528   0.5583   0.0374     C
H       0.9548   0.3193   0.1128     H
C       0.9591   0.3021   0.4807     C
C        0.962   0.4027   0.1421     C
C       0.9628   0.2785   0.8496     C
C       0.9658   0.7232   0.4681     C
H       0.9741   0.0488   0.3689     H
C       0.9756   0.5119   0.3003     C
C       0.9767   0.6787   0.9946     C
H        0.979   0.1173   0.9935     H
N       0.9812   0.5188   0.7527     N
H       0.9833   0.4329    0.609     H
N       0.9836   0.5207    0.097     N
C       0.9866   0.1835   0.9577     C
C       0.9867   0.1184   0.4011     C
C       0.9903   0.6329   0.6992     C
C       0.9906   0.6253   0.3546     C
H       0.9963    0.281   0.2234     H
