data_I
_chemical_name_common  '/home/zhangsd/repos/MofS-CGCNN/ML/data/SSD/clean_cifs/DIMKER_clean'
_cell_length_a  9.22360
_cell_length_b 13.04210
_cell_length_c 18.63890
_cell_angle_alpha 72.10350
_cell_angle_beta  75.67460
_cell_angle_gamma 69.29180
_space_group_name_H-M_alt      'P 1'


loop_
_space_group_symop_operation_xyz
  'x, y, z' 

loop_
_atom_site_label
_atom_site_fract_x
_atom_site_fract_y
_atom_site_fract_z
_atom_site_type_symbol
C       0.0059   0.2678    0.338     C
O       0.0131   0.6698    0.552     O
H       0.0168    0.193   0.1344     H
C       0.0259   0.4475   0.9197     C
C       0.0262   0.2205   0.2333     C
N       0.0388   0.3375   0.9515     N
C       0.0598   0.2593   0.4083     C
C       0.0852   0.1591   0.1723     C
H       0.0882   0.0816   0.1936     H
N       0.0955   0.1922   0.2954     N
N        0.102   0.6894    0.766     N
C       0.1164   0.6584   0.7006     C
C       0.1278   0.4656    0.095     C
H       0.1336   0.3979   0.0827     H
H       0.1367   0.4491   0.1479     H
O       0.1534   0.1036   0.9846     O
N       0.1639   0.4653   0.9029     N
O       0.1832     0.18    0.425     O
H       0.1889   0.1631   0.1491     H
C       0.1941   0.2795   0.9583     C
O       0.2052   0.9487   0.3779     O
O       0.2118     0.68    0.925     O
H       0.2119   0.4938    0.064     H
H       0.2303   0.9938    0.564     H
O       0.2349   0.8302    0.948     O
O       0.2397   0.7754   0.4494     O
O       0.2416   0.3964   0.5154     O
C       0.2483   0.1549   0.9799     C
C       0.2521   0.5605   0.6849     C
Gd     0.26255  0.58914  0.49308    Gd
H       0.2663   0.9491   0.6479     H
C       0.2701   0.3628    0.927     C
C       0.2726   0.7593   0.9083     C
Zn     0.27357  0.58946   0.8339    Zn
C       0.2838   0.8614    0.417     C
O       0.2844   0.5352    0.621     O
Zn     0.30307  0.08946   0.3339    Zn
C       0.3116   0.9656    0.595     C
N       0.3278   0.1625   0.5485     N
O       0.3336   0.5055   0.7373     O
H       0.3442    0.307   0.3656     H
Gd     0.34477  0.91086  0.00692    Gd
H       0.3634   0.4184   0.3064     H
C       0.3831   0.3451   0.5201     C
O      0.38557  0.10116   0.9949     O
H       0.3858   0.8979   0.5827     H
C       0.3883   0.7678    0.838     C
C       0.3931   0.0525   0.5803     C
C       0.4166   0.3409   0.3277     C
N       0.4169   0.6922   0.7954     N
O       0.4236   0.0055   0.2373     O
C       0.4319   0.2205   0.5417     C
C       0.4378   0.3614    0.917     C
C       0.4401   0.8628    0.427     C
O       0.4406   0.9648    0.879     O
N       0.4426   0.1894    0.266     N
O       0.4645   0.7246   0.0506     O
N       0.4679   0.9653   0.4029     N
O       0.4682   0.4487   0.8779     O
C       0.4754   0.8416   0.7994     C
C         0.48   0.2795   0.2667     C
O      0.48163  0.39884   0.5051     O
C       0.4975   0.9395   0.8151     C
H       0.4989   0.6631   0.6491     H
H       0.5011   0.3369   0.3509     H
C       0.5025   0.0605   0.1849     C
O      0.51837  0.60116   0.4949     O
C         0.52   0.7205   0.7333     C
C       0.5246   0.1584   0.2006     C
O       0.5318   0.5513   0.1221     O
N       0.5321   0.0347   0.5971     N
O       0.5355   0.2754   0.9494     O
N       0.5574   0.8106    0.734     N
O       0.5594   0.0352    0.121     O
C       0.5599   0.1372    0.573     C
C       0.5622   0.6386    0.083     C
C       0.5681   0.7795   0.4583     C
O       0.5764   0.9945   0.7627     O
N       0.5831   0.3078   0.2046     N
C       0.5834   0.6591   0.6723     C
C       0.6069   0.9475   0.4197     C
C       0.6117   0.2322    0.162     C
H       0.6142   0.1021   0.4173     H
O      0.61443  0.89884   0.0051     O
C       0.6169   0.6549   0.4799     C
H       0.6366   0.5816   0.6936     H
Gd     0.65523  0.08914  0.99308    Gd
H       0.6558    0.693   0.6344     H
O       0.6664   0.4945   0.2627     O
N       0.6722   0.8375   0.4515     N
C       0.6884   0.0344    0.405     C
Zn     0.69693  0.91054   0.6661    Zn
O       0.7156   0.4648    0.379     O
C       0.7162   0.1386    0.583     C
Zn     0.72643  0.41054   0.1661    Zn
C       0.7274   0.2407   0.0917     C
C       0.7299   0.6372    0.073     C
H       0.7337   0.0509   0.3521     H
Gd     0.73745  0.41086  0.50692    Gd
C       0.7479   0.4395   0.3151     C
C       0.7517   0.8451   0.0201     C
O       0.7584   0.6036   0.4846     O
O       0.7603   0.2246   0.5506     O
O       0.7651   0.1698    0.052     O
H       0.7697   0.0062    0.436     H
H       0.7881   0.5062    0.936     H
O       0.7882     0.32    0.075     O
O       0.7948   0.0513   0.6221     O
C       0.8059   0.7205   0.0417     C
H       0.8111   0.8369   0.8509     H
O       0.8168     0.82    0.575     O
N       0.8361   0.5347   0.0971     N
O       0.8466   0.8964   0.0154     O
H       0.8633   0.5509   0.8521     H
H       0.8664   0.6021   0.9173     H
C       0.8722   0.5344    0.905     C
C       0.8836   0.3416   0.2994     C
N        0.898   0.3106    0.234     N
N       0.9045   0.8078   0.7046     N
H       0.9118   0.9184   0.8064     H
C       0.9148   0.8409   0.8277     C
C       0.9402   0.7407   0.5917     C
N       0.9612   0.6625   0.0485     N
C       0.9738   0.7795   0.7667     C
C       0.9741   0.5525   0.0803     C
H       0.9832    0.807   0.8656     H
O       0.9869   0.3302    0.448     O
C       0.9941   0.7322    0.662     C
