data_I
_chemical_name_common  '/home/zhangsd/repos/MofS-CGCNN/ML/data/SSD/clean_cifs/DIMKUH_clean'
_cell_length_a  9.18160
_cell_length_b 12.98510
_cell_length_c 18.46270
_cell_angle_alpha 72.06440
_cell_angle_beta  75.60220
_cell_angle_gamma 69.29580
_space_group_name_H-M_alt      'P 1'


loop_
_space_group_symop_operation_xyz
  'x, y, z' 

loop_
_atom_site_label
_atom_site_fract_x
_atom_site_fract_y
_atom_site_fract_z
_atom_site_type_symbol
C       0.0013   0.0592   0.1844     C
H       0.0076   0.6739   0.6423     H
O      0.01924  0.59973  0.49519     O
C      0.02136  0.15758   0.2005     C
C      0.02388  0.71974   0.7337     C
O      0.03018  0.55224   0.1202     O
N      0.03233  0.03534   0.5964     N
O      0.03497  0.27396   0.9537     O
O      0.05883  0.03315  0.12099     O
C       0.0604   0.1385   0.5717     C
N      0.06074  0.81091  0.73301     N
C        0.063   0.6401   0.0799     C
C       0.0685   0.7786   0.4574     C
O      0.07721  0.99643  0.76235     O
N      0.07812  0.30926   0.2043     N
C        0.088   0.6577   0.6725     C
C      0.10851  0.23268   0.1613     C
C       0.1094   0.9474   0.4184     C
O      0.11416  0.90027  0.00481     O
H       0.1167   0.1052     0.41     H
C       0.1169   0.6544   0.4802     C
H       0.1226   0.5775   0.6953     H
Dy     0.15406  0.08929  0.99339    Dy
O      0.16401  0.49643  0.26235     O
N      0.17385   0.8365   0.4496     N
H       0.1757   0.6811   0.6399     H
C       0.1922   0.0347   0.4021     C
Zn     0.20005  0.91138  0.66478    Zn
O      0.21297  0.46685  0.37901     O
C        0.217   0.1401   0.5799     C
Zn     0.22379  0.41138  0.16478    Zn
C      0.22605   0.2391   0.0906     C
C       0.2294   0.6385   0.0717     C
Dy     0.23674  0.41071  0.50661    Dy
H       0.2446   0.0456   0.3496     H
C       0.2449   0.4408   0.3156     C
C       0.2515   0.8456   0.0198     C
O      0.25984  0.60205  0.48327     O
O      0.26263  0.22604   0.5463     O
O      0.26788  0.16585  0.05239     O
H       0.2684   0.8058    0.463     H
H       0.2685   0.0093   0.4361     H
H       0.2861   0.5093   0.9361     H
O      0.28655  0.31934  0.07356     O
O      0.29738  0.05224   0.6202     O
C       0.3045   0.7214   0.0426     C
O      0.32055  0.81934  0.57356     O
H       0.3238   0.8261   0.8577     H
N      0.33593  0.53534   0.0964     N
O      0.34516  0.89795  0.01673     O
H       0.3602   0.5456   0.8496     H
H       0.3681   0.6052     0.91     H
C        0.371   0.5347   0.9021     C
C      0.37944  0.34242   0.2995     C
N      0.39534  0.31091  0.23301     N
H       0.3954   0.9225   0.8047     H
N      0.40832  0.80926   0.7043     N
C       0.4182   0.8423   0.8275     C
C      0.44425   0.7391   0.5906     C
N      0.45995   0.6635   0.0504     N
H       0.4628   0.3058    0.963     H
C       0.4752   0.5526   0.0816     C
C      0.47732  0.78026   0.7663     C
O      0.48612  0.33415  0.44761     O
H       0.4967   0.8189   0.8601     H
C      0.49751  0.73268   0.6613     C
C      0.50249  0.26732   0.3387     C
H       0.5033   0.1811   0.1399     H
O      0.51388  0.66585  0.55239     O
C      0.52268  0.21974   0.2337     C
C       0.5248   0.4474   0.9184     C
H       0.5372   0.6942    0.037     H
N      0.54005   0.3365   0.9496     N
C      0.55575   0.2609   0.4094     C
C       0.5818   0.1577   0.1725     C
N      0.59168  0.19074   0.2957     N
H       0.6046   0.0775   0.1953     H
N      0.60466  0.68909  0.76699     N
C      0.62056  0.65758   0.7005     C
C        0.629   0.4653   0.0979     C
H       0.6319   0.3948     0.09     H
H       0.6398   0.4544   0.1504     H
O      0.65484  0.10205  0.98327     O
N      0.66407  0.46466   0.9036     N
H       0.6762   0.1739   0.1423     H
O      0.67945  0.18066  0.42644     O
C       0.6955   0.2786   0.9574     C
O      0.70262  0.94776   0.3798     O
O      0.71345  0.68066  0.92644     O
H       0.7139   0.4907   0.0639     H
H       0.7315   0.9907   0.5639     H
H       0.7316   0.1942    0.537     H
O      0.73212  0.83415  0.94761     O
O      0.73737  0.77396   0.4537     O
O      0.74016  0.39795  0.51673     O
C       0.7485   0.1544   0.9802     C
C       0.7551   0.5592   0.6844     C
H       0.7554   0.9544   0.6504     H
Dy     0.76326  0.58929  0.49339    Dy
C       0.7706   0.3615   0.9283     C
C      0.77395   0.7609   0.9094     C
Zn     0.77621  0.58862  0.83522    Zn
C        0.783   0.8599   0.4201     C
O      0.78703  0.53315  0.62099     O
Zn     0.79995  0.08862  0.33522    Zn
C       0.8078   0.9653   0.5979     C
H       0.8243   0.3189   0.3601     H
N      0.82615   0.1635   0.5504     N
O      0.83599  0.50357  0.73765     O
Dy     0.84594  0.91071  0.00661    Dy
H       0.8774   0.4225   0.3047     H
C       0.8831   0.3456   0.5198     C
H       0.8833   0.8948     0.59     H
O      0.88584  0.09973  0.99519     O
C       0.8906   0.0526   0.5816     C
C      0.89149  0.76732   0.8387     C
C        0.912   0.3423   0.3275     C
N      0.92188  0.69074   0.7957     N
O      0.92279  0.00357  0.23765     O
C       0.9315   0.2214   0.5426     C
C        0.937   0.3599   0.9201     C
N      0.93926  0.18909  0.26699     N
C       0.9396   0.8615   0.4283     C
O      0.94117  0.96685  0.87901     O
O      0.96503  0.72604   0.0463     O
N      0.96767  0.96466   0.4036     N
O      0.96982  0.44776   0.8798     O
C      0.97612  0.28026   0.2663     C
C      0.97864  0.84242   0.7995     C
O      0.98076  0.40027  0.50481     O
H       0.9924   0.3261   0.3577     H
C       0.9987   0.9408   0.8156     C
