data_I
_chemical_name_common  '/home/zhangsd/repos/MofS-CGCNN/ML/data/SSD/clean_cifs/DOLRAZ_clean'
_cell_length_a 11.35930
_cell_length_b 22.58230
_cell_length_c 16.59230
_cell_angle_alpha 90.00000
_cell_angle_beta  92.12900
_cell_angle_gamma 90.00000
_space_group_name_H-M_alt      'P 1'


loop_
_space_group_symop_operation_xyz
  'x, y, z' 

loop_
_atom_site_label
_atom_site_fract_x
_atom_site_fract_y
_atom_site_fract_z
_atom_site_type_symbol
C       0.0209   0.0793   0.5388     C
C       0.0209   0.4207   0.0388     C
C       0.0254   0.1861   0.5264     C
C       0.0254   0.3139   0.0264     C
C       0.0313    0.208   0.0207     C
C       0.0313    0.292   0.5207     C
H       0.0582   0.0419    0.534     H
H       0.0582   0.4581    0.034     H
H       0.0732   0.1724   0.0113     H
H       0.0732   0.3276   0.5113     H
C       0.0804   0.1298   0.5194     C
C       0.0804   0.3702   0.0194     C
C       0.0851   0.7039   0.4546     C
C       0.0851   0.7961   0.9546     C
C       0.0861   0.2402   0.5095     C
C       0.0861   0.2598   0.0095     C
H       0.0898   0.5249   0.4524     H
H       0.0898   0.9751   0.9524     H
C       0.0936   0.6893   0.9477     C
C       0.0936   0.8107   0.4477     C
C       0.0958   0.5823   0.9341     C
C       0.0958   0.9177   0.4341     C
H       0.0966   0.0724   0.0192     H
H       0.0966   0.4276   0.5192     H
H        0.121   0.6663   0.4484     H
H        0.121   0.8337   0.9484     H
H       0.1354   0.5471   0.9195     H
H       0.1354   0.9529   0.4195     H
C        0.147   0.7452   0.9392     C
C        0.147   0.7548   0.4392     C
C       0.1514   0.6355   0.9288     C
C       0.1514   0.8645   0.4288     C
H       0.1585   0.1272   0.5012     H
H       0.1585   0.3728   0.0012     H
C        0.164   0.5085   0.4695     C
C        0.164   0.9915   0.9695     C
C       0.1642   0.0501   0.0059     C
C       0.1642   0.4499   0.5059     C
C       0.2086   0.2384   0.4777     C
C       0.2086   0.2616   0.9777     C
O       0.2224   0.2111   0.4142     O
O       0.2224   0.2889   0.9142     O
H       0.2305   0.6366   0.9122     H
H       0.2305   0.8634   0.4122     H
H       0.2578   0.5818   0.4371     H
H       0.2578   0.9182   0.9371     H
C       0.2676   0.5429   0.4581     C
C       0.2676   0.9571   0.9581     C
C       0.2699   0.7494   0.4089     C
C       0.2699   0.7506   0.9089     C
O       0.2757   0.7307   0.3375     O
O       0.2757   0.7693   0.8375     O
O       0.2857   0.2335   0.0178     O
O       0.2857   0.2665   0.5178     O
C       0.2884   0.0692   0.0187     C
C       0.2884   0.4308   0.5187     C
H       0.2975   0.1088   0.0372     H
H       0.2975   0.3912   0.5372     H
H       0.2986   0.5708   0.0608     H
H       0.2986   0.9292   0.5608     H
H       0.3049   0.2214   0.6682     H
H       0.3049   0.2786   0.1682     H
H       0.3087   0.0176   0.4894     H
H       0.3087   0.4824   0.9894     H
O       0.3149   0.6267   0.2135     O
O       0.3149   0.8733   0.7135     O
H       0.3227   0.6239   0.7401     H
H       0.3227   0.8761   0.2401     H
O       0.3271   0.2336   0.2611     O
O       0.3271   0.2664   0.7611     O
H       0.3339    0.534   0.6663     H
H       0.3339    0.966   0.1663     H
C       0.3487   0.5399   0.0804     C
C       0.3487   0.9601   0.5804     C
C       0.3538   0.0135   0.5384     C
C       0.3538   0.4865   0.0384     C
O       0.3547   0.7376   0.9545     O
O       0.3547   0.7624   0.4545     O
C       0.3556   0.2492    0.695     C
C       0.3556   0.2508    0.195     C
Mg      0.3602  0.17429  0.35431    Mg
Mg      0.3602  0.32571  0.85431    Mg
C       0.3709   0.5924   0.7601     C
C       0.3709   0.9076   0.2601     C
C        0.377   0.5386    0.716     C
C        0.377   0.9614    0.216     C
O       0.3845   0.1124   0.4429     O
O       0.3845   0.3876   0.9429     O
C       0.3891   0.5223   0.4767     C
C       0.3891   0.9777   0.9767     C
O       0.4008   0.7468   0.6961     O
O       0.4008   0.7532   0.1961     O
H       0.4016   0.7063   0.5976     H
H       0.4016   0.7937   0.0976     H
C       0.4029   0.0369   0.0075     C
C       0.4029   0.4631   0.5075     C
C       0.4118    0.606   0.1923     C
C       0.4118    0.894   0.6923     C
C        0.414   0.1169   0.5151     C
C        0.414   0.3831   0.0151     C
Mg      0.4143  0.69156  0.28593    Mg
Mg      0.4143  0.80844  0.78593    Mg
C       0.4149   0.5479   0.1493     C
C       0.4149   0.9521   0.6493     C
C       0.4206   0.0597   0.5647     C
C       0.4206   0.4403   0.0647     C
O       0.4219   0.6268   0.3722     O
O       0.4219   0.8732   0.8722     O
H       0.4262   0.6351   0.8582     H
H       0.4262   0.8649   0.3582     H
C       0.4326   0.5989   0.8296     C
C       0.4326   0.9011   0.3296     C
O       0.4334   0.1642   0.5522     O
O       0.4334   0.3358   0.0522     O
C        0.438   0.7378   0.6272     C
C        0.438   0.7622   0.1272     C
C        0.446   0.0065   0.2463     C
C        0.446   0.4935   0.7463     C
O       0.4471    0.235   0.1583     O
O       0.4471    0.265   0.6583     O
H       0.4499   0.0426   0.2171     H
H       0.4499   0.4574   0.7171     H
Mg      0.4641  0.24944  0.03215    Mg
Mg      0.4641  0.25056  0.53215    Mg
C       0.4715   0.6207   0.4394     C
C       0.4715   0.8793   0.9394     C
O       0.4827   0.2348   0.4077     O
O       0.4827   0.2652   0.9077     O
C       0.4861   0.5579   0.4709     C
C       0.4861   0.9421   0.9709     C
O       0.4865   0.1608   0.0164     O
O       0.4865   0.3392   0.5164     O
C       0.4893   0.5008   0.1807     C
C       0.4893   0.9992   0.6807     C
O        0.492   0.1338   0.2899     O
O        0.492   0.3662   0.7899     O
C       0.4925   0.0539   0.6375     C
C       0.4925   0.4461   0.1375     C
C       0.5075   0.5539   0.8625     C
C       0.5075   0.9461   0.3625     C
O        0.508   0.6338   0.2101     O
O        0.508   0.8662   0.7101     O
C       0.5107   0.0008   0.3193     C
C       0.5107   0.4992   0.8193     C
O       0.5135   0.6608   0.4836     O
O       0.5135   0.8392   0.9836     O
C       0.5139   0.0579   0.0291     C
C       0.5139   0.4421   0.5291     C
O       0.5173   0.7348   0.0923     O
O       0.5173   0.7652   0.5923     O
C       0.5285   0.1207   0.0606     C
C       0.5285   0.3793   0.5606     C
Mg      0.5359  0.74944  0.46785    Mg
Mg      0.5359  0.75056  0.96785    Mg
H       0.5501   0.5426   0.2829     H
H       0.5501   0.9574   0.7829     H
O       0.5529    0.735   0.3417     O
O       0.5529    0.765   0.8417     O
C        0.554   0.5065   0.2537     C
C        0.554   0.9935   0.7537     C
C        0.562   0.2378   0.8728     C
C        0.562   0.2622   0.3728     C
O       0.5666   0.6642   0.9478     O
O       0.5666   0.8358   0.4478     O
C       0.5674   0.0989   0.6704     C
C       0.5674   0.4011   0.1704     C
H       0.5738   0.1351   0.6418     H
H       0.5738   0.3649   0.1418     H
O       0.5781   0.1268   0.1278     O
O       0.5781   0.3732   0.6278     O
C       0.5794   0.5597   0.9353     C
C       0.5794   0.9403   0.4353     C
C       0.5851   0.0479   0.3507     C
C       0.5851   0.4521   0.8507     C
Mg      0.5857  0.19156  0.21407    Mg
Mg      0.5857  0.30844  0.71407    Mg
C        0.586   0.6169   0.9849     C
C        0.586   0.8831   0.4849     C
C       0.5882    0.106   0.3077     C
C       0.5882    0.394   0.8077     C
C       0.5971   0.5369   0.4925     C
C       0.5971   0.9631   0.9925     C
H       0.5984   0.2063   0.9024     H
H       0.5984   0.2937   0.4024     H
O       0.5992   0.2468   0.8039     O
O       0.5992   0.2532   0.3039     O
C       0.6109   0.0223   0.0233     C
C       0.6109   0.4777   0.5233     C
O       0.6155   0.6124   0.0571     O
O       0.6155   0.8876   0.5571     O
C        0.623   0.0386    0.784     C
C        0.623   0.4614    0.284     C
C       0.6291   0.0924   0.7399     C
C       0.6291   0.4076   0.2399     C
Mg      0.6398  0.67429  0.14569    Mg
Mg      0.6398  0.82571  0.64569    Mg
C       0.6444   0.7492    0.805     C
C       0.6444   0.7508    0.305     C
O       0.6453   0.2376   0.5455     O
O       0.6453   0.2624   0.0455     O
C       0.6462   0.5135   0.9616     C
C       0.6462   0.9865   0.4616     C
C       0.6513   0.0399   0.4196     C
C       0.6513   0.4601   0.9196     C
H       0.6661    0.034   0.8337     H
H       0.6661    0.466   0.3337     H
O       0.6729   0.7336   0.2389     O
O       0.6729   0.7664   0.7389     O
H       0.6773   0.1239   0.7599     H
H       0.6773   0.3761   0.2599     H
O       0.6851   0.1267   0.2865     O
O       0.6851   0.3733   0.7865     O
H       0.6913   0.5176   0.0106     H
H       0.6913   0.9824   0.5106     H
H       0.6951   0.7214   0.8318     H
H       0.6951   0.7786   0.3318     H
H       0.7014   0.0708   0.4392     H
H       0.7014   0.4292   0.9392     H
H       0.7025   0.6088   0.4628     H
H       0.7025   0.8912   0.9628     H
C       0.7116   0.5692   0.4813     C
C       0.7116   0.9308   0.9813     C
O       0.7143   0.7335   0.4822     O
O       0.7143   0.7665   0.9822     O
O       0.7243   0.2307   0.1625     O
O       0.7243   0.2693   0.6625     O
C       0.7301   0.2494   0.0911     C
C       0.7301   0.2506   0.5911     C
C       0.7324   0.0429   0.0419     C
C       0.7324   0.4571   0.5419     C
H       0.7422   0.0818   0.0629     H
H       0.7422   0.4182   0.5629     H
H       0.7695   0.1366   0.5878     H
H       0.7695   0.3634   0.0878     H
O       0.7776   0.7111   0.0858     O
O       0.7776   0.7889   0.5858     O
C       0.7914   0.7384   0.0223     C
C       0.7914   0.7616   0.5223     C
C       0.8358   0.5501   0.4941     C
C       0.8358   0.9499   0.9941     C
C        0.836   0.0085   0.0305     C
C        0.836   0.4915   0.5305     C
H       0.8415   0.6272   0.9988     H
H       0.8415   0.8728   0.4988     H
C       0.8486   0.1355   0.5712     C
C       0.8486   0.3645   0.0712     C
C        0.853   0.2452   0.5608     C
C        0.853   0.2548   0.0608     C
H       0.8646   0.0471   0.5805     H
H       0.8646   0.4529   0.0805     H
H        0.879   0.1663   0.0516     H
H        0.879   0.3337   0.5516     H
H       0.9034   0.5724   0.4808     H
H       0.9034   0.9276   0.9808     H
C       0.9042   0.0823   0.5659     C
C       0.9042   0.4177   0.0659     C
C       0.9064   0.1893   0.5523     C
C       0.9064   0.3107   0.0523     C
H       0.9102   0.0249   0.0476     H
H       0.9102   0.4751   0.5476     H
C       0.9139   0.7402   0.9905     C
C       0.9139   0.7598   0.4905     C
C       0.9149   0.2039   0.0454     C
C       0.9149   0.2961   0.5454     C
C       0.9196   0.6298   0.9806     C
C       0.9196   0.8702   0.4806     C
H       0.9268   0.6724   0.4887     H
H       0.9268   0.8276   0.9887     H
H       0.9418   0.5419    0.966     H
H       0.9418   0.9581    0.466     H
C       0.9687    0.708   0.4793     C
C       0.9687    0.792   0.9793     C
C       0.9746   0.6861   0.9736     C
C       0.9746   0.8139   0.4736     C
C       0.9791   0.5793   0.9612     C
C       0.9791   0.9207   0.4612     C
