data_I
_chemical_name_common  '/home/zhangsd/repos/MofS-CGCNN/ML/data/SSD/clean_cifs/DOMDAL_clean'
_cell_length_a 28.48600
_cell_length_b 28.48600
_cell_length_c 46.67800
_cell_angle_alpha 90.00000
_cell_angle_beta  90.00000
_cell_angle_gamma 90.00000
_space_group_name_H-M_alt      'P 1'


loop_
_space_group_symop_operation_xyz
  'x, y, z' 

loop_
_atom_site_label
_atom_site_fract_x
_atom_site_fract_y
_atom_site_fract_z
_atom_site_type_symbol
C       0.0004   0.0871  0.17517     C
C       0.0004   0.5871  0.82483     C
C       0.0006   0.0644    0.082     C
C       0.0006   0.5644    0.918     C
C       0.0014   0.3682   0.1879     C
C       0.0014   0.8682   0.8121     C
C       0.0051   0.0041   0.0435     C
C       0.0051   0.5041   0.9565     C
Cl     0.00549  0.36193  0.11746    Cl
Cl     0.00549  0.86193  0.88254    Cl
C       0.0111   0.0812   0.1092     C
C       0.0111   0.5812   0.8908     C
C        0.015   0.0214    0.073     C
C        0.015   0.5214    0.927     C
Cl     0.03007  0.40085  0.05821    Cl
Cl     0.03007  0.90085  0.94179    Cl
O       0.0338   0.0157  0.95928     O
O       0.0338   0.5157  0.04072     O
C       0.0353   0.0546    0.129     C
C       0.0353   0.5546    0.871     C
O       0.0354    0.009   0.0243     O
O       0.0354    0.509   0.9757     O
H       0.0392   0.0378    0.167     H
H       0.0392   0.5378    0.833     H
C         0.04     0.44   0.1782     C
C         0.04    0.495   0.9084     C
C         0.04     0.94   0.8218     C
C         0.04    0.995   0.0916     C
Cl     0.04104  0.49687  0.16463    Cl
Cl     0.04104  0.99687  0.83537    Cl
C       0.0421   0.3528   0.2024     C
C       0.0421   0.8528   0.7976     C
C       0.0424   0.0697   0.1595     C
C       0.0424   0.5697   0.8405     C
Cl     0.04372  0.29781  0.21749    Cl
Cl     0.04372  0.79781  0.78251    Cl
Cl     0.04419  0.16999  0.18561    Cl
Cl     0.04419  0.66999  0.81439    Cl
Cl     0.04781  0.20628  0.03251    Cl
Cl     0.04781  0.70628  0.96749    Cl
C       0.0511   0.0115     0.12     C
C       0.0511   0.5115     0.88     C
Cl     0.05925  0.03083  0.21908    Cl
Cl     0.05925  0.53083  0.78092    Cl
Cl     0.05979  0.43952  0.91843    Cl
Cl     0.05979  0.93952  0.08157    Cl
Cl     0.08001  0.29419  0.06439    Cl
Cl     0.08001  0.79419  0.93561    Cl
C       0.0802   0.4251   0.1926     C
C       0.0802   0.9251   0.8074     C
Cl     0.08138  0.47403  0.85717    Cl
Cl     0.08138  0.97403  0.14283    Cl
C       0.0823   0.3812   0.2043     C
C       0.0823   0.8812   0.7957     C
O       0.0859   0.0976  0.04144     O
O       0.0859   0.5976  0.95856     O
Tb     0.08613  0.04547  0.99584    Tb
Tb     0.08613  0.54547  0.00416    Tb
C       0.0903   0.0758   0.1719     C
C       0.0903   0.5758   0.8281     C
C          0.1    0.061   0.1993     C
C          0.1    0.561   0.8007     C
C       0.1028   0.2079   0.0476     C
C       0.1028   0.7079   0.9524     C
Cl     0.11193  0.24451  0.13254    Cl
Cl     0.11193  0.74451  0.86746    Cl
C       0.1135   0.1232   0.0289     C
C       0.1135   0.6232   0.9711     C
Cl     0.11708   0.4643  0.09901    Cl
Cl     0.11708   0.9643  0.90099    Cl
C       0.1182   0.2486   0.0621     C
C       0.1182   0.7486   0.9379     C
Cl     0.11937  0.11727  0.12228    Cl
Cl     0.11937  0.61727  0.87772    Cl
O       0.1205   0.4781   0.0242     O
O       0.1205   0.9781   0.9758     O
C       0.1268   0.3635   0.2211     C
C       0.1268   0.8635   0.7789     C
C       0.1269   0.0969   0.1576     C
C       0.1269   0.5969   0.8424     C
O       0.1285   0.1158   0.0055     O
O       0.1285   0.6158   0.9945     O
Cl     0.12893  0.46026  0.19454    Cl
Cl     0.12893  0.96026  0.80546    Cl
C       0.1312   0.1677   0.0457     C
C       0.1312   0.6677   0.9543     C
Cl     0.13273  0.36937  0.12772    Cl
Cl     0.13273  0.86937  0.87228    Cl
O       0.1342   0.3785   0.2445     O
O       0.1342   0.8785   0.7555     O
C       0.1425   0.0684   0.2119     C
C       0.1425   0.5684   0.7881     C
C       0.1449   0.4209   0.0798     C
C       0.1449   0.9209   0.9202     C
C       0.1467   0.4643    0.039     C
C       0.1467   0.9643    0.961     C
Cl     0.15085  0.21993  0.19179    Cl
Cl     0.15085  0.71993  0.80821    Cl
O       0.1524   0.3359  0.20856     O
O       0.1524   0.8359  0.79144     O
C       0.1531   0.3769   0.0924     C
C       0.1531   0.8769   0.9076     C
Cl     0.15424  0.04925  0.24659    Cl
Cl     0.15424  0.54925  0.75341    Cl
C       0.1566   0.4281    0.052     C
C       0.1566   0.9281    0.948     C
C       0.1629   0.2504  0.07483     C
C       0.1629   0.7504  0.92517     C
C       0.1688   0.2611   0.1408     C
C       0.1688   0.7611   0.8592     C
O       0.1689   0.4993   0.0462     O
O       0.1689   0.9993   0.9538     O
C       0.1709   0.1051   0.1702     C
C       0.1709   0.6051   0.8298     C
C       0.1742   0.3403   0.0781     C
C       0.1742   0.8403   0.9219     C
C       0.1751   0.1698   0.0574     C
C       0.1751   0.6698   0.9426     C
C       0.1781   0.0934    0.198     C
C       0.1781   0.5934    0.802     C
C       0.1803   0.2924   0.0905     C
C       0.1803   0.7924   0.9095     C
C       0.1816   0.3925   0.0381     C
C       0.1816   0.8925   0.9619     C
C       0.1856   0.2506    0.168     C
C       0.1856   0.7506    0.832     C
C        0.189     0.35   0.0507     C
C        0.189     0.85   0.9493     C
Cl     0.18952  0.19021  0.33157    Cl
Cl     0.18952  0.69021  0.66843    Cl
C         0.19     0.21   0.0718     C
C         0.19     0.71   0.9282     C
C       0.1954   0.2853    0.121     C
C       0.1954   0.7853    0.879     C
Cl     0.20075  0.40424  0.00341    Cl
Cl     0.20075  0.90424  0.99659    Cl
Tb     0.20453  0.33613  0.25416    Tb
Tb     0.20453  0.83613  0.74584    Tb
Cl     0.21026  0.12107  0.05546    Cl
Cl     0.21026  0.62107  0.94454    Cl
H       0.2122   0.2892    0.083     H
H       0.2122   0.7892    0.917     H
C       0.2143   0.1033    0.211     C
Cl      0.2143  0.13292  0.15099    Cl
C       0.2143   0.6033    0.789     C
Cl      0.2143  0.63292  0.84901    Cl
Cl     0.21917  0.30925  0.03092    Cl
Cl     0.21917  0.80925  0.96908    Cl
Cl     0.22403  0.16862  0.39283    Cl
Cl     0.22403  0.66862  0.60717    Cl
O       0.2281   0.1295   0.2258     O
O       0.2281   0.6295   0.7742     O
C       0.2286    0.265    0.177     C
C       0.2286    0.765    0.823     C
O       0.2343   0.2838  0.29072     O
O       0.2343   0.7838  0.70928     O
C       0.2385   0.3011     0.13     C
C       0.2385   0.8011     0.87     C
O        0.241   0.2854   0.2257     O
O        0.241   0.7854   0.7743     O
C        0.245     0.21   0.3416     C
C        0.245     0.71   0.6584     C
C       0.2459   0.2551   0.2065     C
C       0.2459   0.7551   0.7935     C
Cl     0.24687  0.20896  0.08537    Cl
Cl     0.24687  0.70896  0.91463    Cl
O       0.2493   0.0811   0.2038     O
O       0.2493   0.5811   0.7962     O
O       0.2507   0.4189   0.2962     O
O       0.2507   0.9189   0.7038     O
Cl     0.25313  0.29104  0.41463    Cl
Cl     0.25313  0.79104  0.58537    Cl
C       0.2541   0.2449   0.2935     C
C       0.2541   0.7449   0.7065     C
C        0.255     0.29   0.1584     C
C        0.255     0.79   0.8416     C
O        0.259   0.2146   0.2743     O
O        0.259   0.7146   0.7257     O
C       0.2615   0.1989     0.37     C
C       0.2615   0.6989     0.63     C
O       0.2657   0.2162  0.20928     O
O       0.2657   0.7162  0.79072     O
C       0.2714    0.235    0.323     C
C       0.2714    0.735    0.677     C
O       0.2719   0.3705   0.2742     O
O       0.2719   0.8705   0.7258     O
Cl     0.27597  0.33138  0.10717    Cl
Cl     0.27597  0.83138  0.89283    Cl
Cl     0.28083  0.19075  0.46908    Cl
Cl     0.28083  0.69075  0.53092    Cl
Cl      0.2857  0.36708  0.34901    Cl
C       0.2857   0.3967    0.289     C
Cl      0.2857  0.86708  0.65099    Cl
C       0.2857   0.8967    0.711     C
H       0.2878   0.2108    0.417     H
H       0.2878   0.7108    0.583     H
Cl     0.28974  0.37893  0.44454    Cl
Cl     0.28974  0.87893  0.55546    Cl
Tb     0.29547  0.16387  0.24584    Tb
Tb     0.29547  0.66387  0.75416    Tb
Cl     0.29925  0.09576  0.49659    Cl
Cl     0.29925  0.59576  0.50341    Cl
C       0.3046   0.2147    0.379     C
C       0.3046   0.7147    0.621     C
C         0.31     0.29   0.4282     C
C         0.31     0.79   0.5718     C
Cl     0.31048  0.30979  0.16843    Cl
Cl     0.31048  0.80979  0.83157    Cl
C        0.311     0.15   0.4493     C
C        0.311     0.65   0.5507     C
C       0.3144   0.2494    0.332     C
C       0.3144   0.7494    0.668     C
C       0.3184   0.1075   0.4619     C
C       0.3184   0.6075   0.5381     C
C       0.3197   0.2076   0.4095     C
C       0.3197   0.7076   0.5905     C
C       0.3219   0.4066    0.302     C
C       0.3219   0.9066    0.698     C
C       0.3249   0.3302   0.4426     C
C       0.3249   0.8302   0.5574     C
C       0.3258   0.1597   0.4219     C
C       0.3258   0.6597   0.5781     C
C       0.3291   0.3949   0.3298     C
C       0.3291   0.8949   0.6702     C
O       0.3311   0.0007   0.4538     O
O       0.3311   0.5007   0.5462     O
C       0.3312   0.2389   0.3592     C
C       0.3312   0.7389   0.6408     C
C       0.3371   0.2496  0.42517     C
C       0.3371   0.7496  0.57483     C
C       0.3434   0.0719    0.448     C
C       0.3434   0.5719    0.552     C
Cl     0.34576  0.45075  0.25341    Cl
Cl     0.34576  0.95075  0.74659    Cl
C       0.3469   0.1231   0.4076     C
C       0.3469   0.6231   0.5924     C
O       0.3476   0.1641  0.29144     O
O       0.3476   0.6641  0.70856     O
Cl     0.34915  0.28007  0.30821    Cl
Cl     0.34915  0.78007  0.69179    Cl
C       0.3533   0.0357    0.461     C
C       0.3533   0.5357    0.539     C
C       0.3551   0.0791   0.4202     C
C       0.3551   0.5791   0.5798     C
C       0.3575   0.4316   0.2881     C
C       0.3575   0.9316   0.7119     C
O       0.3658   0.1215   0.2555     O
O       0.3658   0.6215   0.7445     O
Cl     0.36727  0.13063  0.37228    Cl
Cl     0.36727  0.63063  0.62772    Cl
C       0.3688   0.3323   0.4543     C
C       0.3688   0.8323   0.5457     C
Cl     0.37107  0.03974  0.30546    Cl
Cl     0.37107  0.53974  0.69454    Cl
O       0.3715   0.3842   0.4945     O
O       0.3715   0.8842   0.5055     O
C       0.3731   0.4031   0.3424     C
C       0.3731   0.9031   0.6576     C
C       0.3732   0.1365   0.2789     C
C       0.3732   0.6365   0.7211     C
O       0.3795   0.0219   0.4758     O
O       0.3795   0.5219   0.5242     O
Cl     0.38063  0.38273  0.37772    Cl
Cl     0.38063  0.88273  0.62228    Cl
C       0.3818   0.2514   0.4379     C
C       0.3818   0.7514   0.5621     C
Cl     0.38292   0.0357  0.40099    Cl
Cl     0.38292   0.5357  0.59901    Cl
C       0.3865   0.3768   0.4711     C
C       0.3865   0.8768   0.5289     C
Cl     0.38807  0.25549  0.36746    Cl
Cl     0.38807  0.75549  0.63254    Cl
C       0.3972   0.2921   0.4524     C
C       0.3972   0.7921   0.5476     C
C          0.4    0.439   0.3007     C
C          0.4    0.939   0.6993     C
C       0.4097   0.4242   0.3281     C
C       0.4097   0.9242   0.6719     C
Tb     0.41387  0.45453  0.50416    Tb
Tb     0.41387  0.95453  0.49584    Tb
O       0.4141   0.4024  0.45856     O
O       0.4141   0.9024  0.54144     O
C       0.4177   0.1188   0.2957     C
C       0.4177   0.6188   0.7043     C
Cl     0.41862  0.02597  0.64283    Cl
Cl     0.41862  0.52597  0.35717    Cl
C       0.4198   0.0749   0.3074     C
C       0.4198   0.5749   0.6926     C
Cl     0.41999  0.20581  0.43561    Cl
Cl     0.41999  0.70581  0.56439    Cl
Cl     0.44021  0.06048  0.58157    Cl
Cl     0.44021  0.56048  0.41843    Cl
Cl     0.44075  0.46917  0.28092    Cl
Cl     0.44075  0.96917  0.71908    Cl
C       0.4489   0.4885     0.38     C
C       0.4489   0.9885     0.62     C
Cl     0.45219  0.29372  0.46749    Cl
Cl     0.45219  0.79372  0.53251    Cl
Cl     0.45581  0.33001  0.31439    Cl
Cl     0.45581  0.83001  0.68561    Cl
Cl     0.45628  0.20219  0.28251    Cl
Cl     0.45628  0.70219  0.71749    Cl
C       0.4576   0.4303   0.3405     C
C       0.4576   0.9303   0.6595     C
C       0.4579   0.1472   0.2976     C
C       0.4579   0.6472   0.7024     C
Cl     0.45896  0.00313  0.33537    Cl
Cl     0.45896  0.50313  0.66463    Cl
C         0.46    0.005   0.5916     C
C         0.46     0.06   0.3218     C
C         0.46    0.505   0.4084     C
C         0.46     0.56   0.6782     C
H       0.4608   0.4622    0.333     H
H       0.4608   0.9622    0.667     H
O       0.4646    0.491   0.4757     O
O       0.4646    0.991   0.5243     O
C       0.4647   0.4454    0.371     C
C       0.4647   0.9454    0.629     C
O       0.4662   0.4843  0.54072     O
O       0.4662   0.9843  0.45928     O
Cl     0.46993  0.09915  0.44179    Cl
Cl     0.46993  0.59915  0.55821    Cl
C        0.485   0.4786    0.427     C
C        0.485   0.9786    0.573     C
C       0.4889   0.4188   0.3908     C
C       0.4889   0.9188   0.6092     C
Cl     0.49451  0.13807  0.38254    Cl
Cl     0.49451  0.63807  0.61746    Cl
C       0.4949   0.4959   0.4565     C
C       0.4949   0.9959   0.5435     C
C       0.4986   0.1318   0.3121     C
C       0.4986   0.6318   0.6879     C
C       0.4994   0.4356    0.418     C
C       0.4994   0.9356    0.582     C
C       0.4996   0.4129  0.32483     C
C       0.4996   0.9129  0.67517     C
C       0.5004   0.0871  0.32483     C
C       0.5004   0.5871  0.67517     C
C       0.5006   0.0644    0.418     C
C       0.5006   0.5644    0.582     C
C       0.5014   0.3682   0.3121     C
C       0.5014   0.8682   0.6879     C
C       0.5051   0.0041   0.4565     C
C       0.5051   0.5041   0.5435     C
Cl     0.50549  0.36193  0.38254    Cl
Cl     0.50549  0.86193  0.61746    Cl
C       0.5111   0.0812   0.3908     C
C       0.5111   0.5812   0.6092     C
C        0.515   0.0214    0.427     C
C        0.515   0.5214    0.573     C
Cl     0.53007  0.40085  0.44179    Cl
Cl     0.53007  0.90085  0.55821    Cl
O       0.5338   0.0157  0.54072     O
O       0.5338   0.5157  0.45928     O
C       0.5353   0.0546    0.371     C
C       0.5353   0.5546    0.629     C
O       0.5354    0.009   0.4757     O
O       0.5354    0.509   0.5243     O
H       0.5392   0.0378    0.333     H
H       0.5392   0.5378    0.667     H
C         0.54     0.44   0.3218     C
C         0.54    0.495   0.5916     C
C         0.54     0.94   0.6782     C
C         0.54    0.995   0.4084     C
Cl     0.54104  0.49687  0.33537    Cl
Cl     0.54104  0.99687  0.66463    Cl
C       0.5421   0.3528   0.2976     C
C       0.5421   0.8528   0.7024     C
C       0.5424   0.0697   0.3405     C
C       0.5424   0.5697   0.6595     C
Cl     0.54372  0.29781  0.28251    Cl
Cl     0.54372  0.79781  0.71749    Cl
Cl     0.54419  0.16999  0.31439    Cl
Cl     0.54419  0.66999  0.68561    Cl
Cl     0.54781  0.20628  0.46749    Cl
Cl     0.54781  0.70628  0.53251    Cl
C       0.5511   0.0115     0.38     C
C       0.5511   0.5115     0.62     C
Cl     0.55925  0.03083  0.28092    Cl
Cl     0.55925  0.53083  0.71908    Cl
Cl     0.55979  0.43952  0.58157    Cl
Cl     0.55979  0.93952  0.41843    Cl
Cl     0.58001  0.29419  0.43561    Cl
Cl     0.58001  0.79419  0.56439    Cl
C       0.5802   0.4251   0.3074     C
C       0.5802   0.9251   0.6926     C
Cl     0.58138  0.47403  0.64283    Cl
Cl     0.58138  0.97403  0.35717    Cl
C       0.5823   0.3812   0.2957     C
C       0.5823   0.8812   0.7043     C
O       0.5859   0.0976  0.45856     O
O       0.5859   0.5976  0.54144     O
Tb     0.58613  0.04547  0.50416    Tb
Tb     0.58613  0.54547  0.49584    Tb
C       0.5903   0.0758   0.3281     C
C       0.5903   0.5758   0.6719     C
C          0.6    0.061   0.3007     C
C          0.6    0.561   0.6993     C
C       0.6028   0.2079   0.4524     C
C       0.6028   0.7079   0.5476     C
Cl     0.61193  0.24451  0.36746    Cl
Cl     0.61193  0.74451  0.63254    Cl
C       0.6135   0.1232   0.4711     C
C       0.6135   0.6232   0.5289     C
Cl     0.61708   0.4643  0.40099    Cl
Cl     0.61708   0.9643  0.59901    Cl
C       0.6182   0.2486   0.4379     C
C       0.6182   0.7486   0.5621     C
Cl     0.61937  0.11727  0.37772    Cl
Cl     0.61937  0.61727  0.62228    Cl
O       0.6205   0.4781   0.4758     O
O       0.6205   0.9781   0.5242     O
C       0.6268   0.3635   0.2789     C
C       0.6268   0.8635   0.7211     C
C       0.6269   0.0969   0.3424     C
C       0.6269   0.5969   0.6576     C
O       0.6285   0.1158   0.4945     O
O       0.6285   0.6158   0.5055     O
Cl     0.62893  0.46026  0.30546    Cl
Cl     0.62893  0.96026  0.69454    Cl
C       0.6312   0.1677   0.4543     C
C       0.6312   0.6677   0.5457     C
Cl     0.63273  0.36937  0.37228    Cl
Cl     0.63273  0.86937  0.62772    Cl
O       0.6342   0.3785   0.2555     O
O       0.6342   0.8785   0.7445     O
C       0.6425   0.0684   0.2881     C
C       0.6425   0.5684   0.7119     C
C       0.6449   0.4209   0.4202     C
C       0.6449   0.9209   0.5798     C
C       0.6467   0.4643    0.461     C
C       0.6467   0.9643    0.539     C
Cl     0.65085  0.21993  0.30821    Cl
Cl     0.65085  0.71993  0.69179    Cl
O       0.6524   0.3359  0.29144     O
O       0.6524   0.8359  0.70856     O
C       0.6531   0.3769   0.4076     C
C       0.6531   0.8769   0.5924     C
Cl     0.65424  0.04925  0.25341    Cl
Cl     0.65424  0.54925  0.74659    Cl
C       0.6566   0.4281    0.448     C
C       0.6566   0.9281    0.552     C
C       0.6629   0.2504  0.42517     C
C       0.6629   0.7504  0.57483     C
C       0.6688   0.2611   0.3592     C
C       0.6688   0.7611   0.6408     C
O       0.6689   0.4993   0.4538     O
O       0.6689   0.9993   0.5462     O
C       0.6709   0.1051   0.3298     C
C       0.6709   0.6051   0.6702     C
C       0.6742   0.3403   0.4219     C
C       0.6742   0.8403   0.5781     C
C       0.6751   0.1698   0.4426     C
C       0.6751   0.6698   0.5574     C
C       0.6781   0.0934    0.302     C
C       0.6781   0.5934    0.698     C
C       0.6803   0.2924   0.4095     C
C       0.6803   0.7924   0.5905     C
C       0.6816   0.3925   0.4619     C
C       0.6816   0.8925   0.5381     C
C       0.6856   0.2506    0.332     C
C       0.6856   0.7506    0.668     C
C        0.689     0.35   0.4493     C
C        0.689     0.85   0.5507     C
Cl     0.68952  0.19021  0.16843    Cl
Cl     0.68952  0.69021  0.83157    Cl
C         0.69     0.21   0.4282     C
C         0.69     0.71   0.5718     C
C       0.6954   0.2853    0.379     C
C       0.6954   0.7853    0.621     C
Cl     0.70075  0.40424  0.49659    Cl
Cl     0.70075  0.90424  0.50341    Cl
Tb     0.70453  0.33613  0.24584    Tb
Tb     0.70453  0.83613  0.75416    Tb
Cl     0.71026  0.12107  0.44454    Cl
Cl     0.71026  0.62107  0.55546    Cl
H       0.7122   0.2892    0.417     H
H       0.7122   0.7892    0.583     H
C       0.7143   0.1033    0.289     C
Cl      0.7143  0.13292  0.34901    Cl
C       0.7143   0.6033    0.711     C
Cl      0.7143  0.63292  0.65099    Cl
Cl     0.71917  0.30925  0.46908    Cl
Cl     0.71917  0.80925  0.53092    Cl
Cl     0.72403  0.16862  0.10717    Cl
Cl     0.72403  0.66862  0.89283    Cl
O       0.7281   0.1295   0.2742     O
O       0.7281   0.6295   0.7258     O
C       0.7286    0.265    0.323     C
C       0.7286    0.765    0.677     C
O       0.7343   0.2838  0.20928     O
O       0.7343   0.7838  0.79072     O
C       0.7385   0.3011     0.37     C
C       0.7385   0.8011     0.63     C
O        0.741   0.2854   0.2743     O
O        0.741   0.7854   0.7257     O
C        0.745     0.21   0.1584     C
C        0.745     0.71   0.8416     C
C       0.7459   0.2551   0.2935     C
C       0.7459   0.7551   0.7065     C
Cl     0.74687  0.20896  0.41463    Cl
Cl     0.74687  0.70896  0.58537    Cl
O       0.7493   0.0811   0.2962     O
O       0.7493   0.5811   0.7038     O
O       0.7507   0.4189   0.2038     O
O       0.7507   0.9189   0.7962     O
Cl     0.75313  0.29104  0.08537    Cl
Cl     0.75313  0.79104  0.91463    Cl
C       0.7541   0.2449   0.2065     C
C       0.7541   0.7449   0.7935     C
C        0.755     0.29   0.3416     C
C        0.755     0.79   0.6584     C
O        0.759   0.2146   0.2257     O
O        0.759   0.7146   0.7743     O
C       0.7615   0.1989     0.13     C
C       0.7615   0.6989     0.87     C
O       0.7657   0.2162  0.29072     O
O       0.7657   0.7162  0.70928     O
C       0.7714    0.235    0.177     C
C       0.7714    0.735    0.823     C
O       0.7719   0.3705   0.2258     O
O       0.7719   0.8705   0.7742     O
Cl     0.77597  0.33138  0.39283    Cl
Cl     0.77597  0.83138  0.60717    Cl
Cl     0.78083  0.19075  0.03092    Cl
Cl     0.78083  0.69075  0.96908    Cl
Cl      0.7857  0.36708  0.15099    Cl
C       0.7857   0.3967    0.211     C
Cl      0.7857  0.86708  0.84901    Cl
C       0.7857   0.8967    0.789     C
H       0.7878   0.2108    0.083     H
H       0.7878   0.7108    0.917     H
Cl     0.78974  0.37893  0.05546    Cl
Cl     0.78974  0.87893  0.94454    Cl
Tb     0.79547  0.16387  0.25416    Tb
Tb     0.79547  0.66387  0.74584    Tb
Cl     0.79925  0.09576  0.00341    Cl
Cl     0.79925  0.59576  0.99659    Cl
C       0.8046   0.2147    0.121     C
C       0.8046   0.7147    0.879     C
C         0.81     0.29   0.0718     C
C         0.81     0.79   0.9282     C
Cl     0.81048  0.30979  0.33157    Cl
Cl     0.81048  0.80979  0.66843    Cl
C        0.811     0.15   0.0507     C
C        0.811     0.65   0.9493     C
C       0.8144   0.2494    0.168     C
C       0.8144   0.7494    0.832     C
C       0.8184   0.1075   0.0381     C
C       0.8184   0.6075   0.9619     C
C       0.8197   0.2076   0.0905     C
C       0.8197   0.7076   0.9095     C
C       0.8219   0.4066    0.198     C
C       0.8219   0.9066    0.802     C
C       0.8249   0.3302   0.0574     C
C       0.8249   0.8302   0.9426     C
C       0.8258   0.1597   0.0781     C
C       0.8258   0.6597   0.9219     C
C       0.8291   0.3949   0.1702     C
C       0.8291   0.8949   0.8298     C
O       0.8311   0.0007   0.0462     O
O       0.8311   0.5007   0.9538     O
C       0.8312   0.2389   0.1408     C
C       0.8312   0.7389   0.8592     C
C       0.8371   0.2496  0.07483     C
C       0.8371   0.7496  0.92517     C
C       0.8434   0.0719    0.052     C
C       0.8434   0.5719    0.948     C
Cl     0.84576  0.45075  0.24659    Cl
Cl     0.84576  0.95075  0.75341    Cl
C       0.8469   0.1231   0.0924     C
C       0.8469   0.6231   0.9076     C
O       0.8476   0.1641  0.20856     O
O       0.8476   0.6641  0.79144     O
Cl     0.84915  0.28007  0.19179    Cl
Cl     0.84915  0.78007  0.80821    Cl
C       0.8533   0.0357    0.039     C
C       0.8533   0.5357    0.961     C
C       0.8551   0.0791   0.0798     C
C       0.8551   0.5791   0.9202     C
C       0.8575   0.4316   0.2119     C
C       0.8575   0.9316   0.7881     C
O       0.8658   0.1215   0.2445     O
O       0.8658   0.6215   0.7555     O
Cl     0.86727  0.13063  0.12772    Cl
Cl     0.86727  0.63063  0.87228    Cl
C       0.8688   0.3323   0.0457     C
C       0.8688   0.8323   0.9543     C
Cl     0.87107  0.03974  0.19454    Cl
Cl     0.87107  0.53974  0.80546    Cl
O       0.8715   0.3842   0.0055     O
O       0.8715   0.8842   0.9945     O
C       0.8731   0.4031   0.1576     C
C       0.8731   0.9031   0.8424     C
C       0.8732   0.1365   0.2211     C
C       0.8732   0.6365   0.7789     C
O       0.8795   0.0219   0.0242     O
O       0.8795   0.5219   0.9758     O
Cl     0.88063  0.38273  0.12228    Cl
Cl     0.88063  0.88273  0.87772    Cl
C       0.8818   0.2514   0.0621     C
C       0.8818   0.7514   0.9379     C
Cl     0.88292   0.0357  0.09901    Cl
Cl     0.88292   0.5357  0.90099    Cl
C       0.8865   0.3768   0.0289     C
C       0.8865   0.8768   0.9711     C
Cl     0.88807  0.25549  0.13254    Cl
Cl     0.88807  0.75549  0.86746    Cl
C       0.8972   0.2921   0.0476     C
C       0.8972   0.7921   0.9524     C
C          0.9    0.439   0.1993     C
C          0.9    0.939   0.8007     C
C       0.9097   0.4242   0.1719     C
C       0.9097   0.9242   0.8281     C
Tb     0.91387  0.45453  0.99584    Tb
Tb     0.91387  0.95453  0.00416    Tb
O       0.9141   0.4024  0.04144     O
O       0.9141   0.9024  0.95856     O
C       0.9177   0.1188   0.2043     C
C       0.9177   0.6188   0.7957     C
Cl     0.91862  0.02597  0.85717    Cl
Cl     0.91862  0.52597  0.14283    Cl
C       0.9198   0.0749   0.1926     C
C       0.9198   0.5749   0.8074     C
Cl     0.91999  0.20581  0.06439    Cl
Cl     0.91999  0.70581  0.93561    Cl
Cl     0.94021  0.06048  0.91843    Cl
Cl     0.94021  0.56048  0.08157    Cl
Cl     0.94075  0.46917  0.21908    Cl
Cl     0.94075  0.96917  0.78092    Cl
C       0.9489   0.4885     0.12     C
C       0.9489   0.9885     0.88     C
Cl     0.95219  0.29372  0.03251    Cl
Cl     0.95219  0.79372  0.96749    Cl
Cl     0.95581  0.33001  0.18561    Cl
Cl     0.95581  0.83001  0.81439    Cl
Cl     0.95628  0.20219  0.21749    Cl
Cl     0.95628  0.70219  0.78251    Cl
C       0.9576   0.4303   0.1595     C
C       0.9576   0.9303   0.8405     C
C       0.9579   0.1472   0.2024     C
C       0.9579   0.6472   0.7976     C
Cl     0.95896  0.00313  0.16463    Cl
Cl     0.95896  0.50313  0.83537    Cl
C         0.96    0.005   0.9084     C
C         0.96     0.06   0.1782     C
C         0.96    0.505   0.0916     C
C         0.96     0.56   0.8218     C
H       0.9608   0.4622    0.167     H
H       0.9608   0.9622    0.833     H
O       0.9646    0.491   0.0243     O
O       0.9646    0.991   0.9757     O
C       0.9647   0.4454    0.129     C
C       0.9647   0.9454    0.871     C
O       0.9662   0.4843  0.95928     O
O       0.9662   0.9843  0.04072     O
Cl     0.96993  0.09915  0.05821    Cl
Cl     0.96993  0.59915  0.94179    Cl
C        0.985   0.4786    0.073     C
C        0.985   0.9786    0.927     C
C       0.9889   0.4188   0.1092     C
C       0.9889   0.9188   0.8908     C
Cl     0.99451  0.13807  0.11746    Cl
Cl     0.99451  0.63807  0.88254    Cl
C       0.9949   0.4959   0.0435     C
C       0.9949   0.9959   0.9565     C
C       0.9986   0.1318   0.1879     C
C       0.9986   0.6318   0.8121     C
C       0.9994   0.4356    0.082     C
C       0.9994   0.9356    0.918     C
C       0.9996   0.4129  0.17517     C
C       0.9996   0.9129  0.82483     C
