data_I
_chemical_name_common  '/home/zhangsd/repos/MofS-CGCNN/ML/data/SSD/clean_cifs/DONKIC_clean'
_cell_length_a 16.71900
_cell_length_b 16.71900
_cell_length_c 24.59800
_cell_angle_alpha 90.00000
_cell_angle_beta  90.00000
_cell_angle_gamma 120.00000
_space_group_name_H-M_alt      'P 1'


loop_
_space_group_symop_operation_xyz
  'x, y, z' 

loop_
_atom_site_label
_atom_site_fract_x
_atom_site_fract_y
_atom_site_fract_z
_atom_site_type_symbol
C       0.0014   0.6695  0.93103     C
C       0.0016   0.6804   0.4578     C
C        0.002   0.2199  0.05067     C
C       0.0074   0.3047  0.05822     C
H       0.0095   0.4496  0.02317     H
H       0.0117   0.1133  0.36397     H
H       0.0249   0.8848  0.02253     H
H       0.0287     0.64   0.3864     H
H       0.0313   0.7186  0.77393     H
H       0.0388   0.8786   0.5461     H
C       0.0394    0.776  0.78973     C
H       0.0425   0.0858  0.31027     H
C       0.0433   0.7674  0.85153     C
H       0.0433   0.9575  0.97693     H
C       0.0456   0.8284   0.5595     C
O       0.0459   0.6517  0.49289     O
H       0.0473   0.5519   0.4518     H
O       0.0491   0.7361  0.01898     O
C       0.0495   0.7476  0.96263     C
H       0.0513   0.8323   0.5984     H
C       0.0523   0.4565  0.29837     C
H       0.0604     0.48  0.26147     H
C       0.0607   0.1322  0.33797     C
O       0.0609   0.3762  0.29867     O
O       0.0693   0.7251  0.12389     O
H         0.07   0.1523  0.06547     H
C       0.0715   0.9393  0.00463     C
C       0.0727   0.2085  0.07153     C
C         0.08   0.3745  0.08837     C
C       0.0806   0.2222  0.31237     C
H       0.0823     0.93  0.73213     H
H       0.0827   0.4308  0.09417     H
H       0.0858   0.0425  0.68973     H
C       0.0889   0.8426  0.88523     C
C        0.092   0.6095   0.4688     C
C       0.0933   0.8353  0.94113     C
H       0.0974   0.2673  0.34177     H
H       0.0988    0.217  0.20307     H
H       0.0998   0.8317    0.544     H
H       0.1014   0.6542  0.02413     H
H       0.1016   0.9883  0.03063     H
H       0.1133   0.0117  0.63603     H
H       0.1152   0.1401  0.35587     H
H       0.1182   0.9012  0.86973     H
C       0.1183   0.7164  0.03513     C
H       0.1214   0.1602  0.87943     H
C       0.1219   0.5311  0.33484     C
C       0.1279   0.8533  0.76713     C
C       0.1292   0.7257  0.09693     C
O       0.1321   0.6094  0.32851     O
C       0.1322   0.0607  0.66203     C
H       0.1336   0.6496   0.4408     H
H       0.1338    0.438  0.18517     H
O        0.134   0.5963   0.5593     O
C       0.1358   0.9273  0.73819     C
H       0.1401   0.1152  0.64413     H
C       0.1416   0.9194  0.97903     C
C       0.1459   0.5911   0.5108     C
C       0.1465   0.3584  0.10917     C
C       0.1467   0.2746  0.10047     C
H       0.1523     0.07  0.93453     H
C       0.1574   0.2463  0.21857     C
H       0.1602   0.1214  0.12057     H
O       0.1617   0.5093  0.37021     O
C       0.1647    0.258  0.27447     C
H       0.1677    0.219  0.93173     H
H       0.1683   0.2681  0.87733     H
H       0.1699   0.9026  0.00843     H
C       0.1716   0.2172  0.89283     C
H       0.1763    0.759  0.01763     H
O       0.1992   0.7256   0.1161     O
C       0.2002   0.4702  0.17957     C
O       0.2031    0.569  0.49148     O
O       0.2038   0.7789  0.80428     O
C       0.2085   0.0727  0.92847     C
C       0.2119   0.8535  0.77583     C
O       0.2163   0.6128  0.20315     O
H        0.217   0.0988  0.79693     H
C       0.2172   0.1716  0.10717     C
C       0.2179    0.998  0.71733     C
H        0.219   0.1677  0.06827     H
C       0.2199    0.002  0.94933     C
O       0.2211   0.4249  0.13762     O
C       0.2222   0.0806  0.68763     C
C        0.224   0.2634  0.12307     C
H       0.2286   0.4666  0.21307     H
C       0.2326   0.2759  0.18487     C
C        0.233   0.5702  0.16697     C
Co       0.237  0.74518  0.19805    Co
H        0.238   0.7714  0.87973     H
H        0.241   0.4173  0.35097     H
C       0.2463   0.1574  0.78143     C
C       0.2524   0.3019  0.29597     C
Co     0.25482  0.49182  0.53138    Co
C        0.258   0.1647  0.72553     C
C       0.2634    0.224  0.87693     C
O       0.2639    0.313  0.35232     O
H       0.2673   0.0974  0.65823     H
H       0.2681   0.1683  0.12267     H
C         0.27   0.7998  0.84623     C
O       0.2738   0.6012  0.12275     O
C       0.2743   0.4035  0.43027     C
O       0.2744   0.4736  0.44944     O
C       0.2746   0.1467  0.89953     C
O       0.2749   0.3442  0.45723     O
C       0.2759   0.2326  0.81513     C
Co     0.27614  0.59212  0.41612    Co
H       0.2814   0.3127  0.10727     H
C       0.2836   0.4019  0.36847     C
C       0.2945     0.92  0.75503     C
C       0.2973   0.9926  0.72488     C
C       0.3019   0.2524  0.70403     C
H       0.3042   0.8662  0.85183     H
C       0.3047   0.0074  0.94178     C
H       0.3127   0.2814  0.89273     H
O        0.313   0.2639  0.64768     O
O       0.3153   0.9391  0.96533     O
Co     0.31598  0.72386  0.08278    Co
C       0.3196   0.3212  0.79113     C
C       0.3212   0.3196  0.20887     C
O       0.3274   0.7262  0.78941     O
C       0.3305   0.3319  0.26437     C
C       0.3319   0.3305  0.73563     C
C       0.3372    0.767  0.83363     C
O       0.3442   0.2749  0.54277     O
H       0.3458   0.4472  0.35747     H
O       0.3476   0.8383  0.03687     O
H       0.3481   0.9173  0.76083     H
O       0.3483   0.3942  0.82622     O
H       0.3504    0.484  0.77413     H
C       0.3584   0.1465  0.89083     C
H         0.36   0.3887  0.71973     H
O       0.3659   0.7969  0.15815     O
C       0.3745     0.08  0.91163     C
O       0.3762   0.0609  0.70133     O
O       0.3872   0.6035  0.53648     O
H       0.3887     0.36  0.28027     H
C       0.3905   0.4825  0.80213     C
O       0.3906   0.5227  0.66184     O
O       0.3942   0.3483  0.17378     O
O       0.3965   0.7837  0.86981     O
O       0.3988   0.6726  0.45608     O
C       0.4019   0.2836  0.63153     C
C       0.4035   0.2743  0.56973     C
O       0.4037   0.5377  0.89263     O
C       0.4042   0.9477  0.96503     C
Co     0.40788  0.68402  0.74945    Co
C       0.4089   0.5548  0.84413     C
C       0.4092   0.8781   0.0015     C
H       0.4173    0.241  0.64903     H
H       0.4196   0.9396  0.92813     H
O       0.4249   0.2211  0.86238     O
C       0.4298   0.6628   0.5003     C
H       0.4308   0.0827  0.90583     H
O        0.431   0.6341  0.82481     O
H        0.438   0.1338  0.81483     H
H       0.4401   0.9905  0.68983     H
C       0.4452   0.8541  0.17747     C
H       0.4472   0.3458  0.64253     H
H       0.4481   0.4954  0.78513     H
H       0.4496   0.0095  0.97683     H
C       0.4565   0.0523  0.70163     C
O       0.4623    0.866  0.22597     O
H       0.4666   0.2286  0.78693     H
C       0.4689   0.5908  0.66817     C
C       0.4702   0.2002  0.82043     C
O       0.4736   0.2744  0.55056     O
O       0.4773   0.8679  0.99517     O
H         0.48   0.0604  0.73853     H
C       0.4825   0.3905  0.19787     C
H        0.484   0.3504  0.22587     H
O       0.4907   0.6524  0.70354     O
Co     0.49182  0.25482  0.46862    Co
H       0.4954   0.4481  0.21487     H
H       0.5046   0.9527  0.11847     H
Co     0.50818    0.763  0.86471    Co
O       0.5093   0.1617  0.62979     O
H        0.516   0.8664  0.10747     H
C       0.5175    0.908  0.13547     C
H         0.52   0.5804   0.5948     H
O       0.5227   0.3906  0.33816     O
O       0.5264   0.8008  0.78277     O
C       0.5298     0.73   0.5129     C
C       0.5311   0.1219  0.66516     C
H       0.5334    0.762   0.5464     H
O       0.5377   0.4037  0.10737     O
C       0.5435   0.5958   0.6317     C
H       0.5504   0.5599   0.3565     H
H       0.5519   0.0473   0.5482     H
H       0.5528   0.8986   0.6908     H
C       0.5548   0.4089  0.15587     C
H       0.5599   0.5504   0.6435     H
H        0.562   0.6958   0.5185     H
O        0.569   0.2031  0.50852     O
H       0.5692   0.6519   0.4275     H
C       0.5702    0.233  0.83303     C
O       0.5751   0.7962  0.47095     O
H       0.5804     0.52   0.4052     H
H       0.5827   0.8237   0.6843     H
C       0.5908   0.4689  0.33183     C
C       0.5911   0.1459   0.4892     C
Co     0.59212  0.27614  0.58388    Co
C       0.5958   0.5435   0.3683     C
O       0.5963    0.134   0.4407     O
C       0.5965   0.8708   0.7636     C
C       0.5981   0.8817   0.7018     C
O       0.6012   0.2738  0.87725     O
O       0.6035   0.3872  0.46352     O
O       0.6058   0.9541  0.15956     O
O       0.6094   0.1321  0.67149     O
C       0.6095    0.092   0.5312     C
H       0.6113   0.9713  0.05307     H
O       0.6128   0.2163  0.79685     O
O       0.6238   0.6847    0.632     O
C       0.6255   0.7055   0.4217     C
O       0.6341    0.431  0.17519     O
H         0.64   0.0287   0.6136     H
C       0.6416   0.7881   0.4425     C
H       0.6496   0.1336   0.5592     H
O       0.6517   0.0459  0.50711     O
H       0.6519   0.5692   0.5725     H
O       0.6524   0.4907  0.29646     O
H       0.6542   0.1014  0.97587     H
O       0.6558   0.9307  0.79056     O
C       0.6628   0.4298   0.4997     C
C       0.6681   0.9986   0.5977     C
C       0.6695   0.0014  0.06897     C
O       0.6726   0.3988  0.54392     O
C       0.6788   0.9984  0.12447     C
C       0.6804   0.0016   0.5422     C
Co     0.68402  0.40788  0.25055    Co
O       0.6847   0.6238    0.368     O
O        0.687   0.9509  0.68565     O
H       0.6873   0.9687   0.4406     H
C       0.6953   0.7027  0.39155     C
H       0.6958    0.562   0.4815     H
C       0.6981   0.9505   0.6293     C
C       0.7027   0.6953  0.60845     C
C       0.7055   0.6255   0.5783     C
C       0.7164   0.1183  0.96487     C
H       0.7186   0.0313  0.22607     H
Co     0.72386  0.31598  0.91722    Co
C       0.7241   0.9567   0.5182     C
O       0.7251   0.0693  0.87611     O
C       0.7254   0.8721   0.4338     C
O       0.7256   0.1992   0.8839     O
C       0.7257   0.1292  0.90307     C
O       0.7262   0.3274  0.21059     O
C         0.73   0.5298   0.4871     C
H       0.7319   0.9002  0.21067     H
H       0.7327   0.8301   0.6751     H
O       0.7361   0.0491  0.98102     O
C       0.7366   0.9606   0.4564     C
C        0.742   0.9067   0.6078     C
Co     0.74518    0.237  0.80195    Co
C       0.7476   0.0495  0.03737     C
C       0.7537   0.9111   0.5519     C
H        0.759   0.1763  0.98237     H
H        0.762   0.5334   0.4536     H
Co       0.763  0.50818  0.13529    Co
C        0.767   0.3372  0.16637     C
C       0.7674   0.0433  0.14847     C
H       0.7714    0.238  0.12027     H
C        0.776   0.0394  0.21027     C
C       0.7778   0.8584   0.6457     C
O       0.7789   0.2038  0.19572     O
C       0.7801   0.7821    0.384     C
H        0.781   0.9487  0.26507     H
C       0.7821   0.7801    0.616     C
C       0.7828   0.9544  0.22617     C
H        0.783   0.8818   0.5364     H
O       0.7837   0.3965  0.13019     O
C       0.7881   0.6416   0.5575     C
C       0.7915   0.8642  0.40486     C
O       0.7962   0.5751  0.52905     O
O       0.7969   0.3659  0.84185     O
C       0.7998     0.27  0.15377     C
O       0.8008   0.5264  0.21723     O
H       0.8237   0.5827   0.3157     H
C       0.8284   0.0456   0.4405     C
H       0.8301   0.7327   0.3249     H
H       0.8317   0.0998    0.456     H
H       0.8323   0.0513   0.4016     H
C       0.8353   0.0933  0.05887     C
O       0.8383   0.3476  0.96313     O
H       0.8398   0.9612  0.21277     H
C       0.8426   0.0889  0.11477     C
H       0.8477   0.9177   0.3988     H
C       0.8533   0.1279  0.23287     C
C       0.8535   0.2119  0.22417     C
C       0.8541   0.4452  0.82253     C
C       0.8584   0.7778   0.3543     C
H       0.8599   0.9751   0.6892     H
C       0.8642   0.7915  0.59514     C
O        0.866   0.4623  0.77403     O
H       0.8662   0.3042  0.14817     H
H       0.8664    0.516  0.89253     H
C       0.8678   0.9285   0.6713     C
O       0.8679   0.4773  0.00483     O
C       0.8708   0.5965   0.2364     C
C       0.8721   0.7254   0.5662     C
C       0.8781   0.4092   0.9985     C
H       0.8786   0.0388   0.4539     H
C       0.8817   0.5981   0.2982     C
H       0.8818    0.783   0.4636     H
H       0.8848   0.0249  0.97747     H
H       0.8867   0.8984   0.6973     H
H       0.8984   0.8867   0.3027     H
H       0.8986   0.5528   0.3092     H
H       0.9002   0.7319  0.78933     H
H       0.9012   0.1182  0.13027     H
H       0.9026   0.1699  0.99157     H
C       0.9067    0.742   0.3922     C
C        0.908   0.5175  0.86453     C
C       0.9111   0.7537   0.4481     C
H       0.9142   0.9567   0.6436     H
H       0.9173   0.3481  0.23917     H
H       0.9177   0.8477   0.6012     H
C       0.9194   0.1416  0.02097     C
C         0.92   0.2945  0.24497     C
C       0.9273   0.1358  0.26181     C
C       0.9285   0.8678   0.3287     C
H         0.93   0.0823  0.26787     H
O       0.9307   0.6558  0.20944     O
O       0.9391   0.3153  0.03467     O
C       0.9393   0.0715  0.99537     C
H       0.9396   0.4196  0.07187     H
C       0.9477   0.4042  0.03497     C
H       0.9487    0.781  0.73493     H
C       0.9505   0.6981   0.3707     C
O       0.9509    0.687  0.31435     O
H       0.9527   0.5046  0.88153     H
O       0.9541   0.6058  0.84044     O
C       0.9544   0.7828  0.77383     C
C       0.9567   0.7241   0.4818     C
H       0.9567   0.9142   0.3564     H
H       0.9575   0.0433  0.02307     H
C       0.9606   0.7366   0.5436     C
H       0.9612   0.8398  0.78723     H
H       0.9687   0.6873   0.5594     H
H       0.9713   0.6113  0.94693     H
H       0.9751   0.8599   0.3108     H
H       0.9883   0.1016  0.96937     H
H       0.9905   0.4401  0.31017     H
C       0.9926   0.2973  0.27512     C
C        0.998   0.2179  0.28267     C
C       0.9984   0.6788  0.87553     C
C       0.9986   0.6681   0.4023     C
