data_I
_chemical_name_common  '/home/zhangsd/repos/MofS-CGCNN/ML/data/SSD/clean_cifs/DOYHUW_clean'
_cell_length_a  9.51370
_cell_length_b 16.11340
_cell_length_c 27.58450
_cell_angle_alpha 91.80200
_cell_angle_beta  91.48900
_cell_angle_gamma 94.44100
_space_group_name_H-M_alt      'P 1'


loop_
_space_group_symop_operation_xyz
  'x, y, z' 

loop_
_atom_site_label
_atom_site_fract_x
_atom_site_fract_y
_atom_site_fract_z
_atom_site_type_symbol
C       0.0089   0.1185  0.56388     C
C       0.0155   0.1864  0.60321     C
C       0.0165   0.3633  0.10474     C
C       0.0208   0.3066  0.67735     C
H       0.0221   0.3484   0.7025     H
C       0.0272   0.6757  0.85308     C
Zn     0.02839  0.98669  0.84837    Zn
H       0.0389   0.2973    0.166     H
O      0.04147  0.90821  0.56011     O
O       0.0537  0.90687  0.79229     O
H        0.054   0.5701   0.9515     H
O       0.0789   0.9403  0.43218     O
C       0.0827   0.5982  0.92323     C
H       0.0867   0.8598   0.2573     H
C       0.0869   0.7558  0.32519     C
C      0.08975  0.81644  0.36212     C
O       0.0926  0.12945  0.53023     O
O       0.1036  0.94803  0.19152     O
C       0.1245   0.2489  0.60663     C
Zn     0.12525   0.0465  0.47407    Zn
C       0.1274   0.3095  0.64385     C
C       0.1298   0.8538  0.81099     C
H       0.1347   0.8365   0.6316     H
O       0.1578  0.85568  0.85537     O
C       0.1609   0.8249  0.25139     C
O      0.16195  0.09627  0.92671     O
H       0.1632     0.86   0.3639     H
C       0.1659   0.6755  0.83855     C
C       0.1679   0.9248  0.55198     C
C       0.1693   0.3662  0.09127     C
C       0.1848   0.7902  0.77692     C
C       0.1878   0.7655  0.28502     C
C       0.1916   0.8994   0.1747     C
H       0.1971   0.2503   0.5836     H
O       0.2019  0.41608  0.05759     O
H       0.2032   0.8692   0.7213     H
O      0.20818  0.05121  0.85216     O
C       0.2094   0.7091  0.79068     C
O      0.21623  0.97435  0.52247     O
C       0.2206   0.8145  0.73056     C
C       0.2229   0.6006  0.91013     C
C       0.2304    0.838  0.62239     C
C       0.2353   0.0981   0.8899     C
C       0.2369   0.8359  0.20964     C
O      0.23804  0.90137  0.13301     O
O       0.2499  0.32219  0.11322     O
C       0.2507   0.3737  0.65133     C
O       0.2605  0.20671  0.40403     O
C       0.2651   0.6394  0.86733     C
O       0.2681  0.41287  0.69045     O
C       0.2687   0.6562  0.75719     C
C       0.2728   0.8809  0.58125     C
C       0.2808   0.7626  0.69732     C
H       0.2837   0.6011   0.7663     H
O       0.2846  0.51966  0.97572     O
C       0.3003   0.7151  0.27762     C
O       0.3014  0.09479  0.44689     O
O       0.3032  0.60857  0.63466     O
C       0.3069   0.6807  0.71092     C
H       0.3184   0.2302   0.9464     H
C       0.3266   0.7974  0.64998     C
C       0.3291  0.56039  0.94054     C
O       0.3307  0.67635   0.3589     O
O      0.33693   0.3844  0.61679     O
C       0.3379   0.1535  0.41934     C
C       0.3463   0.7838  0.20119     C
C       0.3477   0.6569  0.31564     C
H       0.3483    0.675   0.1288     H
C       0.3562   0.6168  0.67624     C
H       0.3608   0.6409   0.8581     H
C       0.3616   0.1584  0.88662     C
C       0.3763   0.7251  0.23553     C
Zn     0.37893  0.46171  0.03075    Zn
C       0.3798   0.2261  0.91996     C
O       0.4043  0.59245  0.30059     O
O       0.4099  0.57762  0.06478     O
C       0.4126   0.8846   0.5689     C
C        0.421   0.7178   0.1246     C
O       0.4242  0.36543  0.98282     O
C       0.4368   0.7859  0.15751     C
H        0.443   0.9167   0.5422     H
H       0.4437    0.107   0.8259     H
O       0.4506  0.57292  0.69314     O
H       0.4514   0.6908   0.2299     H
C        0.455   0.1532   0.8483     C
O       0.4568  0.57176  0.92873     O
C       0.4661    0.797  0.63525     C
H        0.469   0.2338   0.3475     H
Zn     0.47277  0.46764  0.65541    Zn
C       0.4899    0.158  0.40495     C
C         0.49   0.2878  0.91387     C
C       0.4967   0.6353  0.05344     C
C       0.5033   0.3647  0.94656     C
C         0.51   0.7122  0.08613     C
C       0.5101    0.842  0.59505     C
Zn     0.52723  0.53236  0.34459    Zn
H        0.531   0.7662   0.6525     H
C       0.5339    0.203  0.36475     C
O       0.5432  0.42824  0.07127     O
C        0.545   0.8468   0.1517     C
H       0.5486   0.3092   0.7701     H
O       0.5494  0.42708  0.30686     O
H       0.5563    0.893   0.1741     H
H        0.557   0.0833   0.4578     H
C       0.5632   0.2141  0.84249     C
O       0.5758  0.63457  0.01718     O
C        0.579   0.2822   0.8754     C
C       0.5874   0.1154   0.4311     C
O       0.5901  0.42238  0.93522     O
O       0.5957  0.40755  0.69941     O
C       0.6202   0.7739  0.08004     C
Zn     0.62107  0.53829  0.96925    Zn
C       0.6237   0.2749  0.76447     C
C       0.6384   0.8416  0.11338     C
H       0.6392   0.3591   0.1419     H
C       0.6438   0.3832  0.32376     C
H       0.6517    0.325   0.8712     H
C       0.6523   0.3431  0.68436     C
C       0.6537   0.2162  0.79881     C
C       0.6621   0.8465  0.58066     C
O      0.66307   0.6156  0.38321     O
O       0.6693  0.32365   0.6411     O
C       0.6709  0.43961  0.05946     C
C       0.6734   0.2026  0.35002     C
H       0.6816   0.7698   0.0536     H
C       0.6931   0.3193  0.28908     C
O       0.6968  0.39143  0.36534     O
O       0.6986  0.90521  0.55311     O
C       0.6997   0.2849  0.72238     C
O       0.7154  0.48034  0.02428     O
H       0.7163   0.3989   0.2337     H
C       0.7192   0.2374  0.30268     C
C       0.7272   0.1191  0.41875     C
C       0.7313   0.3438  0.24281     C
O       0.7319  0.58713  0.30955     O
C       0.7349   0.3606  0.13267     C
O       0.7395  0.79329  0.59597     O
C       0.7493   0.6263  0.34867     C
O       0.7501  0.67781  0.88678     O
O      0.76196  0.09863  0.86699     O
C       0.7631   0.1641  0.79036     C
C       0.7647   0.9019   0.1101     C
C       0.7696    0.162  0.37761     C
C       0.7771   0.3994  0.08987     C
C       0.7794   0.1855  0.26944     C
O      0.78377  0.02565  0.47753     O
C       0.7906   0.2909  0.20932     C
O      0.79182  0.94879  0.14784     O
H       0.7968   0.1308   0.2787     H
O       0.7981  0.58392  0.94241     O
H       0.8029   0.7497   0.4164     H
C       0.8084   0.1006   0.8253     C
C       0.8122   0.2345  0.71498     C
C       0.8152   0.2098  0.22308     C
C       0.8307   0.6338  0.90873     C
C       0.8321   0.0752  0.44802     C
C       0.8341   0.3245  0.16145     C
H       0.8368     0.14   0.6361     H
O      0.83805  0.90373  0.07329     O
C       0.8391   0.1751  0.74861     C
O       0.8422  0.14432  0.14463     O
H       0.8653   0.1635   0.3684     H
C       0.8702   0.1462  0.18901     C
C       0.8726   0.6905  0.35615     C
Zn     0.87475   0.9535  0.52593    Zn
C       0.8755   0.7511  0.39337     C
O       0.8964  0.05197  0.80848     O
O       0.9074  0.87055  0.46977     O
C      0.91025  0.18356  0.63788     C
C       0.9131   0.2442  0.67481     C
H       0.9133   0.1402   0.7427     H
C       0.9173   0.4018  0.07677     C
O       0.9211   0.0597  0.56782     O
H        0.946   0.4299   0.0485     H
O       0.9463  0.09313  0.20771     O
O      0.95853  0.09179  0.43989     O
H       0.9611   0.7027    0.834     H
Zn     0.97161  0.01331  0.15163    Zn
C       0.9728   0.3243  0.14692     C
H       0.9779   0.6516   0.2975     H
C       0.9792   0.6934  0.32265     C
C       0.9835   0.6367  0.89526     C
C       0.9845   0.8136  0.39679     C
C       0.9911   0.8815  0.43612     C
