data_I
_chemical_name_common  '/home/zhangsd/repos/MofS-CGCNN/ML/data/SSD/clean_cifs/DUKYOZ_clean'
_cell_length_a 15.21590
_cell_length_b  9.06110
_cell_length_c  7.75330
_cell_angle_alpha 90.00000
_cell_angle_beta  90.00000
_cell_angle_gamma 90.00000
_space_group_name_H-M_alt      'P 1'


loop_
_space_group_symop_operation_xyz
  'x, y, z' 

loop_
_atom_site_label
_atom_site_fract_x
_atom_site_fract_y
_atom_site_fract_z
_atom_site_type_symbol
Cd         0.0      0.0     0.25    Cd
Cd         0.0      0.0     0.75    Cd
N      0.08078  0.15019  0.40199     N
N      0.08078  0.84981  0.90199     N
N          0.1  0.09164  0.55904     N
N          0.1  0.90836  0.05904     N
H      0.10125  0.40256  0.18179     H
H      0.10125  0.59744  0.68179     H
C      0.14929  0.23718  0.35346     C
C      0.14929  0.76282  0.85346     C
H      0.15226  0.24715   0.0786     H
H      0.15226  0.75285   0.5786     H
C       0.1558  0.32314  0.18902     C
C       0.1558  0.67686  0.68902     C
C      0.18039  0.14244  0.60757     C
C      0.18039  0.85756  0.10757     C
H      0.18526  0.08529  0.85967     H
H      0.18526  0.91471  0.35967     H
C      0.21085   0.2324  0.48051     C
C      0.21085   0.7676  0.98051     C
H      0.21869  0.38296  0.18569     H
H      0.21869  0.61704  0.68569     H
C      0.22714  0.10578  0.77201     C
C      0.22714  0.89422  0.27201     C
H      0.25078  0.49746  0.87398     H
H      0.25078  0.50254  0.37398     H
H      0.26252   0.1871  0.80606     H
H      0.26252   0.8129  0.30606     H
H      0.26335  0.02165  0.75477     H
H      0.26335  0.97835  0.25477     H
C      0.29682  0.31196  0.48051     C
C      0.29682  0.68804  0.98051     C
C      0.30195  0.45523  0.41723     C
C      0.30195  0.54477  0.91723     C
H      0.36818  0.14482  0.58705     H
H      0.36818  0.85518  0.08705     H
C      0.37169  0.24274   0.5438     C
C      0.37169  0.75726   0.0438     C
C      0.38196  0.47073  0.91723     C
C      0.38196  0.52927  0.41723     C
H      0.38547  0.37281  0.87398     H
H      0.38547  0.62719  0.37398     H
C       0.4517  0.31678   0.5438     C
C       0.4517  0.68322   0.0438     C
C      0.45683  0.46005  0.48051     C
C      0.45683  0.53995  0.98051     C
H      0.49713  0.26947  0.08705     H
H      0.49713  0.73053  0.58705     H
H      0.50287  0.26947  0.58705     H
H      0.50287  0.73053  0.08705     H
C      0.54317  0.46005  0.98051     C
C      0.54317  0.53995  0.48051     C
C       0.5483  0.31678   0.0438     C
C       0.5483  0.68322   0.5438     C
H      0.61453  0.37281  0.37398     H
H      0.61453  0.62719  0.87398     H
C      0.61804  0.47073  0.41723     C
C      0.61804  0.52927  0.91723     C
C      0.62831  0.24274   0.0438     C
C      0.62831  0.75726   0.5438     C
H      0.63182  0.14482  0.08705     H
H      0.63182  0.85518  0.58705     H
C      0.69805  0.45523  0.91723     C
C      0.69805  0.54477  0.41723     C
C      0.70318  0.31196  0.98051     C
C      0.70318  0.68804  0.48051     C
H      0.73665  0.02165  0.25477     H
H      0.73665  0.97835  0.75477     H
H      0.73748   0.1871  0.30606     H
H      0.73748   0.8129  0.80606     H
H      0.74922  0.49746  0.37398     H
H      0.74922  0.50254  0.87398     H
C      0.77286  0.10578  0.27201     C
C      0.77286  0.89422  0.77201     C
H      0.78131  0.38296  0.68569     H
H      0.78131  0.61704  0.18569     H
C      0.78915   0.2324  0.98051     C
C      0.78915   0.7676  0.48051     C
H      0.81474  0.08529  0.35967     H
H      0.81474  0.91471  0.85967     H
C      0.81961  0.14244  0.10757     C
C      0.81961  0.85756  0.60757     C
C       0.8442  0.32314  0.68902     C
C       0.8442  0.67686  0.18902     C
H      0.84774  0.24715   0.5786     H
H      0.84774  0.75285   0.0786     H
C      0.85071  0.23718  0.85346     C
C      0.85071  0.76282  0.35346     C
H      0.89875  0.40256  0.68179     H
H      0.89875  0.59744  0.18179     H
N          0.9  0.09164  0.05904     N
N          0.9  0.90836  0.55904     N
N      0.91922  0.15019  0.90199     N
N      0.91922  0.84981  0.40199     N
