data_I
_chemical_name_common  '/home/zhangsd/repos/MofS-CGCNN/ML/data/SSD/clean_cifs/DUNXUH03_clean'
_cell_length_a 11.22080
_cell_length_b 11.75750
_cell_length_c 16.20140
_cell_angle_alpha 90.00000
_cell_angle_beta  129.17000
_cell_angle_gamma 90.00000
_space_group_name_H-M_alt      'P 1'


loop_
_space_group_symop_operation_xyz
  'x, y, z' 

loop_
_atom_site_label
_atom_site_fract_x
_atom_site_fract_y
_atom_site_fract_z
_atom_site_type_symbol
S      0.02169  0.52621  0.28517     S
S      0.02169  0.97379  0.78517     S
H       0.0226   0.2107   0.3463     H
H       0.0226   0.2893   0.8463     H
O      0.02502  0.14971  0.96658     O
O      0.02502  0.35029  0.46658     O
O       0.0626  0.09157  0.79461     O
O       0.0626  0.40843  0.29461     O
O      0.06269  0.57037  0.38587     O
O      0.06269  0.92963  0.88587     O
C       0.0828  0.69053  0.19552     C
C       0.0828  0.80947  0.69552     C
C       0.1173  0.65266  0.60838     C
C       0.1173  0.84734  0.10838     C
O      0.13445  0.05405  0.30404     O
O      0.13445  0.44595  0.80404     O
C       0.1416  0.60218  0.26806     C
C       0.1416  0.89782  0.76806     C
Zn     0.17659  0.02719  0.01762    Zn
Zn     0.17659  0.47281  0.51762    Zn
C       0.1795  0.74976  0.18415     C
C       0.1795  0.75024  0.68415     C
O       0.2135  0.57976  0.62536     O
O       0.2135  0.92024  0.12536     O
C       0.2959  0.57143  0.32967     C
C       0.2959  0.92857  0.82967     C
C       0.3332  0.71886  0.24468     C
C       0.3332  0.78114  0.74468     C
H       0.3355   0.5113   0.3799     H
H       0.3355   0.9887   0.8799     H
O      0.35844  0.14789  0.13122     O
O      0.35844  0.35211  0.63122     O
C       0.3913  0.62939  0.31703     C
C       0.3913  0.87061  0.81703     C
O      0.39266   0.0141  0.05437     O
O      0.39266   0.4859  0.55437     O
H       0.3989   0.7411   0.7367     H
H       0.3989   0.7589   0.2367     H
C       0.4437  0.09569  0.11921     C
C       0.4437  0.40431  0.61921     C
C       0.5563  0.59569  0.38079     C
C       0.5563  0.90431  0.88079     C
H       0.6011   0.2411   0.7633     H
H       0.6011   0.2589   0.2633     H
O      0.60734   0.5141  0.44563     O
O      0.60734   0.9859  0.94563     O
C       0.6087  0.12939  0.18297     C
C       0.6087  0.37061  0.68297     C
O      0.64156  0.64789  0.36878     O
O      0.64156  0.85211  0.86878     O
H       0.6645   0.0113   0.1201     H
H       0.6645   0.4887   0.6201     H
C       0.6668  0.21886  0.25532     C
C       0.6668  0.28114  0.75532     C
C       0.7041  0.07143  0.17033     C
C       0.7041  0.42857  0.67033     C
O       0.7865  0.07976  0.87464     O
O       0.7865  0.42024  0.37464     O
C       0.8205  0.24976  0.31585     C
C       0.8205  0.25024  0.81585     C
Zn     0.82341  0.52719  0.48238    Zn
Zn     0.82341  0.97281  0.98238    Zn
C       0.8584  0.10218  0.23194     C
C       0.8584  0.39782  0.73194     C
O      0.86555  0.55405  0.19596     O
O      0.86555  0.94595  0.69596     O
C       0.8827  0.15266  0.89162     C
C       0.8827  0.34734  0.39162     C
C       0.9172  0.19053  0.30448     C
C       0.9172  0.30947  0.80448     C
O      0.93731  0.07037  0.11413     O
O      0.93731  0.42963  0.61413     O
O       0.9374  0.59157  0.70539     O
O       0.9374  0.90843  0.20539     O
O      0.97498  0.64971  0.53342     O
O      0.97498  0.85029  0.03342     O
H       0.9774   0.7107   0.1537     H
H       0.9774   0.7893   0.6537     H
S      0.97831  0.02621  0.21483     S
S      0.97831  0.47379  0.71483     S
