data_I
_chemical_name_common  '/home/zhangsd/repos/MofS-CGCNN/ML/data/SSD/clean_cifs/DUNXUH05_clean'
_cell_length_a 11.25820
_cell_length_b 11.88120
_cell_length_c 16.21220
_cell_angle_alpha 90.00000
_cell_angle_beta  129.57200
_cell_angle_gamma 90.00000
_space_group_name_H-M_alt      'P 1'


loop_
_space_group_symop_operation_xyz
  'x, y, z' 

loop_
_atom_site_label
_atom_site_fract_x
_atom_site_fract_y
_atom_site_fract_z
_atom_site_type_symbol
C       0.0558  0.09653  0.37994     C
C       0.0558  0.40347  0.87994     C
H       0.1019   0.7401   0.7626     H
H       0.1019   0.7599   0.2626     H
O      0.10624  0.01572  0.44418     O
O      0.10624  0.48428  0.94418     O
C       0.1091  0.63156  0.18329     C
C       0.1091  0.86844  0.68329     C
O      0.14042   0.1471  0.36765     O
O      0.14042   0.3529  0.86765     O
H       0.1653   0.5152   0.1214     H
H       0.1653   0.9848   0.6214     H
C       0.1669  0.72089  0.25486     C
C       0.1669  0.77911  0.75486     C
C       0.2044  0.57465  0.17074     C
C       0.2044  0.92535  0.67074     C
O      0.28559   0.5793  0.87381     O
O      0.28559   0.9207  0.37381     O
C       0.3205  0.74732  0.81497     C
C       0.3205  0.75268  0.31497     C
Zn     0.32281  0.02597  0.48206    Zn
Zn     0.32281  0.47403  0.98206    Zn
C       0.3582  0.60627  0.23172     C
C       0.3582  0.89373  0.73172     C
O      0.36587  0.06064  0.19641     O
O      0.36587  0.43936  0.69641     O
C       0.3821  0.65035  0.89053     C
C       0.3821  0.84965  0.39053     C
C       0.4168   0.6944  0.30369     C
C       0.4168   0.8056  0.80369     C
O      0.43341  0.57178  0.11299     O
O      0.43341  0.92822  0.61299     O
O         0.44  0.08593  0.70899     O
O         0.44  0.41407  0.20899     O
O      0.47489  0.14646  0.53464     O
O      0.47489  0.35354  0.03464     O
S      0.47779  0.53047   0.2152     S
S      0.47779  0.96953   0.7152     S
H        0.479   0.2149   0.1552     H
H        0.479   0.2851   0.6552     H
H        0.521   0.7149   0.3448     H
H        0.521   0.7851   0.8448     H
S      0.52221  0.03047   0.2848     S
S      0.52221  0.46953   0.7848     S
O      0.52511  0.64646  0.96536     O
O      0.52511  0.85354  0.46536     O
O         0.56  0.58593  0.79101     O
O         0.56  0.91407  0.29101     O
O      0.56659  0.07178  0.38701     O
O      0.56659  0.42822  0.88701     O
C       0.5832   0.1944  0.19631     C
C       0.5832   0.3056  0.69631     C
C       0.6179  0.15035  0.60947     C
C       0.6179  0.34965  0.10947     C
O      0.63413  0.56064  0.30359     O
O      0.63413  0.93936  0.80359     O
C       0.6418  0.10627  0.26828     C
C       0.6418  0.39373  0.76828     C
Zn     0.67719  0.52597  0.01794    Zn
Zn     0.67719  0.97403  0.51794    Zn
C       0.6795  0.24732  0.68503     C
C       0.6795  0.25268  0.18503     C
O      0.71441   0.0793  0.62619     O
O      0.71441   0.4207  0.12619     O
C       0.7956  0.07465  0.32926     C
C       0.7956  0.42535  0.82926     C
C       0.8331  0.22089  0.24514     C
C       0.8331  0.27911  0.74514     C
H       0.8347   0.0152   0.3786     H
H       0.8347   0.4848   0.8786     H
O      0.85958   0.6471  0.13235     O
O      0.85958   0.8529  0.63235     O
C       0.8909  0.13156  0.31671     C
C       0.8909  0.36844  0.81671     C
O      0.89376  0.51572  0.05582     O
O      0.89376  0.98428  0.55582     O
H       0.8981   0.2401   0.7374     H
H       0.8981   0.2599   0.2374     H
C       0.9442  0.59653  0.12006     C
C       0.9442  0.90347  0.62006     C
