data_I
_chemical_name_common  '/home/zhangsd/repos/MofS-CGCNN/ML/data/SSD/clean_cifs/DUPVER_clean'
_cell_length_a 14.40220
_cell_length_b 25.92000
_cell_length_c 17.43950
_cell_angle_alpha 90.00000
_cell_angle_beta  107.38400
_cell_angle_gamma 90.00000
_space_group_name_H-M_alt      'P 1'


loop_
_space_group_symop_operation_xyz
  'x, y, z' 

loop_
_atom_site_label
_atom_site_fract_x
_atom_site_fract_y
_atom_site_fract_z
_atom_site_type_symbol
C       0.0103   0.0724   0.2088     C
C       0.0103   0.2377   0.6811     C
O       0.0127   0.0829   0.2793     O
C       0.0139   0.1843   0.6511     C
C       0.0176   0.8744   0.4623     C
C       0.0208   0.0859     0.59     C
C       0.0209   0.8246   0.4315     C
H       0.0219   0.0527     0.57     H
O       0.0275   0.7271   0.3666     O
N       0.0366   0.6261   0.4292     N
Zn     0.04064  0.31969  0.77347    Zn
C       0.0427   0.4018   0.5919     C
H       0.0436   0.6514   0.3994     H
O       0.0464  0.24519    0.757     O
H       0.0464   0.7974   0.4663     H
N       0.0509   0.4409   0.5436     N
H       0.0534   0.0438   0.0776     H
C       0.0536    0.144   0.7039     C
C       0.0558   0.8824   0.5501     C
C       0.0578   0.0945   0.6719     C
O       0.0621   0.9293    0.573     O
O       0.0637    0.945   0.8431     O
H       0.0767   0.1497   0.7589     H
O       0.0768   0.6416   0.2559     O
O       0.0806   0.8459   0.5973     O
H       0.0817   0.6192   0.4729     H
C       0.0995   0.0502    0.727     C
C       0.0995   0.0817   0.1836     C
Zn     0.10231  0.93402  0.68927    Zn
C       0.1055   0.0621   0.1109     C
O       0.1158     0.01   0.6951     O
O       0.1177   0.0566   0.8011     O
C       0.1201   0.3943   0.6641     C
N       0.1313   0.3614   0.7291     N
C       0.1331   0.4668   0.5611     C
H       0.1361   0.4927   0.5251     H
O       0.1372   0.0158   0.9744     O
C       0.1524   0.6459   0.2346     C
O       0.1605   0.6711   0.1805     O
Zn     0.16534  0.99928   0.8743    Zn
H       0.1742   0.1217   0.2818     H
C       0.1782   0.1084   0.2334     C
H       0.1805   0.6026   0.3773     H
C       0.1885   0.0697   0.0881     C
C       0.1971   0.0493   0.0094     C
C       0.2038   0.4241   0.6754     C
N        0.214   0.4607   0.6244     N
C       0.2202   0.3728   0.7763     C
N       0.2321   0.9095   0.7531     N
C       0.2358   0.5967   0.3615     C
O       0.2376   0.5649   0.5162     O
C       0.2387   0.6154   0.2878     C
H       0.2476   0.3569   0.8257     H
H       0.2524   0.8569   0.6743     H
C       0.2613   0.1154   0.2122     C
O       0.2624   0.0649   0.9838     O
C       0.2642   0.0967   0.1385     C
N       0.2679   0.4095   0.7469     N
C       0.2798   0.8728   0.7237     C
N        0.286   0.9607   0.8756     N
C       0.2962   0.9241   0.8246     C
C       0.3029   0.5493   0.4906     C
C       0.3115   0.5697   0.4119     C
H       0.3195   0.1026   0.1227     H
C       0.3218   0.6084   0.2666     C
H       0.3258   0.6217   0.2182     H
Zn     0.33466  0.49928   0.6257    Zn
O       0.3395   0.1711   0.3195     O
C       0.3476   0.1459   0.2654     C
O       0.3628   0.5158   0.5256     O
H       0.3639   0.9927   0.9749     H
C       0.3669   0.9668   0.9389     C
N       0.3687   0.8614   0.7709     N
C       0.3799   0.8943   0.8359     C
O       0.3823   0.5566   0.6989     O
O       0.3842     0.51   0.8049     O
C       0.3945   0.5621   0.3891     C
Zn     0.39769  0.43402  0.81073    Zn
C       0.4005   0.5502    0.773     C
C       0.4005   0.5817   0.3164     C
H       0.4183   0.1192   0.0271     H
O       0.4194   0.3459   0.9027     O
O       0.4232   0.1416   0.2441     O
H       0.4233   0.6497   0.7411     H
O       0.4363    0.445   0.6569     O
O       0.4379   0.4293    0.927     O
C       0.4422   0.5945   0.8281     C
C       0.4442   0.3824   0.9499     C
C       0.4464    0.644   0.7961     C
H       0.4466   0.5438   0.4224     H
N       0.4491   0.9409   0.9564     N
H       0.4536   0.2974   0.0337     H
O       0.4536  0.74519    0.743     O
H       0.4564   0.1514   0.1006     H
C       0.4573   0.9018   0.9081     C
Zn     0.45936  0.81969  0.72653    Zn
N       0.4634   0.1261   0.0708     N
O       0.4725   0.2271   0.1334     O
H       0.4781   0.5527     0.93     H
C       0.4791   0.3246   0.0685     C
C       0.4792   0.5859     0.91     C
C       0.4824   0.3744   0.0377     C
C       0.4861   0.6843   0.8489     C
O       0.4873   0.5829   0.2207     O
C       0.4897   0.5724   0.2912     C
C       0.4897   0.7377   0.8189     C
C       0.5103   0.2623   0.1811     C
C       0.5103   0.4276   0.7088     C
O       0.5127   0.4171   0.7793     O
C       0.5139   0.3157   0.1511     C
C       0.5176   0.6256   0.9623     C
C       0.5208   0.4141     0.09     C
C       0.5209   0.6754   0.9315     C
H       0.5219   0.4473     0.07     H
O       0.5275   0.7729   0.8666     O
N       0.5366   0.8739   0.9292     N
Zn     0.54064  0.18031  0.27347    Zn
C       0.5427   0.0982   0.0919     C
H       0.5436   0.8486   0.8994     H
O       0.5464  0.25481    0.257     O
H       0.5464   0.7026   0.9663     H
N       0.5509   0.0591   0.0436     N
H       0.5534   0.4562   0.5776     H
C       0.5536    0.356   0.2039     C
C       0.5558   0.6176   0.0501     C
C       0.5578   0.4055   0.1719     C
O       0.5621   0.5707    0.073     O
O       0.5637    0.555   0.3431     O
H       0.5767   0.3503   0.2589     H
O       0.5768   0.8584   0.7559     O
O       0.5806   0.6541   0.0973     O
H       0.5817   0.8808   0.9729     H
C       0.5995   0.4183   0.6836     C
C       0.5995   0.4498    0.227     C
Zn     0.60231  0.56598  0.18927    Zn
C       0.6055   0.4379   0.6109     C
O       0.6158     0.49   0.1951     O
O       0.6177   0.4434   0.3011     O
C       0.6201   0.1057   0.1641     C
N       0.6313   0.1386   0.2291     N
C       0.6331   0.0332   0.0611     C
H       0.6361   0.0073   0.0251     H
O       0.6372   0.4842   0.4744     O
C       0.6524   0.8541   0.7346     C
O       0.6605   0.8289   0.6805     O
Zn     0.66534  0.50072   0.3743    Zn
H       0.6742   0.3783   0.7818     H
C       0.6782   0.3916   0.7334     C
H       0.6805   0.8974   0.8773     H
C       0.6885   0.4303   0.5881     C
C       0.6971   0.4507   0.5094     C
C       0.7038   0.0759   0.1754     C
N        0.714   0.0393   0.1244     N
C       0.7202   0.1272   0.2763     C
N       0.7321   0.5905   0.2531     N
C       0.7358   0.9033   0.8615     C
O       0.7376   0.9351   0.0162     O
C       0.7387   0.8846   0.7878     C
H       0.7476   0.1431   0.3257     H
H       0.7524   0.6431   0.1743     H
C       0.7613   0.3846   0.7122     C
O       0.7624   0.4351   0.4838     O
C       0.7642   0.4033   0.6385     C
N       0.7679   0.0905   0.2469     N
C       0.7798   0.6272   0.2237     C
N        0.786   0.5393   0.3756     N
C       0.7962   0.5759   0.3246     C
C       0.8029   0.9507   0.9906     C
C       0.8115   0.9303   0.9119     C
H       0.8195   0.3974   0.6227     H
C       0.8218   0.8916   0.7666     C
H       0.8258   0.8783   0.7182     H
Zn     0.83466  0.00072   0.1257    Zn
O       0.8395   0.3289   0.8195     O
C       0.8476   0.3541   0.7654     C
O       0.8628   0.9842   0.0256     O
H       0.8639   0.5073   0.4749     H
C       0.8669   0.5332   0.4389     C
N       0.8687   0.6386   0.2709     N
C       0.8799   0.6057   0.3359     C
O       0.8823   0.9434   0.1989     O
O       0.8842     0.99   0.3049     O
C       0.8945   0.9379   0.8891     C
Zn     0.89769  0.06598  0.31073    Zn
C       0.9005   0.9183   0.8164     C
C       0.9005   0.9498    0.273     C
H       0.9183   0.3808   0.5271     H
O       0.9194   0.1541   0.4027     O
O       0.9232   0.3584   0.7441     O
H       0.9233   0.8503   0.2411     H
O       0.9363    0.055   0.1569     O
O       0.9379   0.0707    0.427     O
C       0.9422   0.9055   0.3281     C
C       0.9442   0.1176   0.4499     C
C       0.9464    0.856   0.2961     C
H       0.9466   0.9562   0.9224     H
N       0.9491   0.5591   0.4564     N
H       0.9536   0.2026   0.5337     H
O       0.9536  0.75481    0.243     O
H       0.9564   0.3486   0.6006     H
C       0.9573   0.5982   0.4081     C
Zn     0.95936  0.68031  0.22653    Zn
N       0.9634   0.3739   0.5708     N
O       0.9725   0.2729   0.6334     O
H       0.9781   0.9473     0.43     H
C       0.9791   0.1754   0.5685     C
C       0.9792   0.9141     0.41     C
C       0.9824   0.1256   0.5377     C
C       0.9861   0.8157   0.3489     C
O       0.9873   0.9171   0.7207     O
C       0.9897   0.7623   0.3189     C
C       0.9897   0.9276   0.7912     C
