data_I
_chemical_name_common  '/home/zhangsd/repos/MofS-CGCNN/ML/data/SSD/clean_cifs/EBIJAC_clean'
_cell_length_a 16.61440
_cell_length_b 32.78200
_cell_length_c 17.86620
_cell_angle_alpha 90.00000
_cell_angle_beta  90.00000
_cell_angle_gamma 90.00000
_space_group_name_H-M_alt      'P 1'


loop_
_space_group_symop_operation_xyz
  'x, y, z' 

loop_
_atom_site_label
_atom_site_fract_x
_atom_site_fract_y
_atom_site_fract_z
_atom_site_type_symbol
H       0.0094   0.2176   0.5254     H
H       0.0094   0.2824   0.0254     H
H       0.0094   0.7176   0.4746     H
H       0.0094   0.7824   0.9746     H
H       0.0101   0.1119   0.6274     H
H       0.0101   0.3881   0.1274     H
H       0.0101   0.6119   0.3726     H
H       0.0101   0.8881   0.8726     H
C       0.0117  0.19569   0.4923     C
C       0.0117  0.30431   0.9923     C
C       0.0117  0.69569   0.5077     C
C       0.0117  0.80431   0.0077     C
C        0.021  0.13266   0.3905     C
C        0.021  0.36734   0.8905     C
C        0.021  0.63266   0.6095     C
C        0.021  0.86734   0.1095     C
H        0.025   0.1118   0.3555     H
H        0.025   0.3882   0.8555     H
H        0.025   0.6118   0.6445     H
H        0.025   0.8882   0.1445     H
C       0.0343   0.1637   0.8822     C
C       0.0343   0.3363   0.3822     C
C       0.0343   0.6637   0.1178     C
C       0.0343   0.8363   0.6178     C
C       0.0396  0.19496   0.9323     C
C       0.0396  0.30504   0.4323     C
C       0.0396  0.69496   0.0677     C
C       0.0396  0.80504   0.5677     C
H       0.0411   0.0627   0.0202     H
H       0.0411   0.4373   0.5202     H
H       0.0411   0.5627   0.9798     H
H       0.0411   0.9373   0.4798     H
C       0.0425  0.10363   0.1437     C
C       0.0425  0.39637   0.6437     C
C       0.0425  0.60363   0.8563     C
C       0.0425  0.89637   0.3563     C
H       0.0441   0.1727   0.1895     H
H       0.0441   0.3273   0.6895     H
H       0.0441   0.6727   0.8105     H
H       0.0441   0.8273   0.3105     H
H       0.0478   0.0746   0.1383     H
H       0.0478   0.4254   0.6383     H
H       0.0478   0.5746   0.8617     H
H       0.0478   0.9254   0.3617     H
H       0.0497    0.111   0.1953     H
H       0.0497    0.389   0.6953     H
H       0.0497    0.611   0.8047     H
H       0.0497    0.889   0.3047     H
C       0.0664   0.1651    0.505     C
C       0.0664   0.3349    0.005     C
C       0.0664   0.6651    0.495     C
C       0.0664   0.8349    0.995     C
C       0.0722   0.1338    0.455     C
C       0.0722   0.3662    0.955     C
C       0.0722   0.6338    0.545     C
C       0.0722   0.8662    0.045     C
H       0.0775   0.2155   0.9258     H
H       0.0775   0.2845   0.4258     H
H       0.0775   0.7155   0.0742     H
H       0.0775   0.7845   0.5742     H
H       0.0858   0.0715   0.9445     H
H       0.0858   0.4285   0.4445     H
H       0.0858   0.5715   0.0555     H
H       0.0858   0.9285   0.5555     H
O       0.0861   0.1326   0.7679     O
O       0.0861   0.3674   0.2679     O
O       0.0861   0.6326   0.2321     O
O       0.0861   0.8674   0.7321     O
H       0.0879   0.2129   0.1651     H
H       0.0879   0.2871   0.6651     H
H       0.0879   0.7129   0.8349     H
H       0.0879   0.7871   0.3349     H
C       0.0917  0.16092   0.8173     C
C       0.0917  0.33908   0.3173     C
C       0.0917  0.66092   0.1827     C
C       0.0917  0.83908   0.6827     C
H       0.0924    0.001   0.9286     H
H       0.0924    0.499   0.4286     H
H       0.0924    0.501   0.0714     H
H       0.0924    0.999   0.5714     H
C       0.0935  0.06723   0.9978     C
C       0.0935  0.43277   0.4978     C
C       0.0935  0.56723   0.0022     C
C       0.0935  0.93277   0.5022     C
C       0.0963  0.18464    0.179     C
C       0.0963  0.31536    0.679     C
C       0.0963  0.68464    0.821     C
C       0.0963  0.81536    0.321     C
C       0.1052  0.12453    0.097     C
C       0.1052  0.37547    0.597     C
C       0.1052  0.62453    0.903     C
C       0.1052  0.87547    0.403     C
H       0.1095   0.1131   0.4629     H
H       0.1095   0.3869   0.9629     H
H       0.1095   0.6131   0.5371     H
H       0.1095   0.8869   0.0371     H
O       0.1107  0.19304   0.6196     O
O       0.1107  0.30696   0.1196     O
O       0.1107  0.69304   0.3804     O
O       0.1107  0.80696   0.8804     O
H        0.117   0.2403   0.2797     H
H        0.117   0.2597   0.7797     H
H        0.117   0.7403   0.7203     H
H        0.117   0.7597   0.2203     H
C       0.1182  0.16621   0.5735     C
C       0.1182  0.33379   0.0735     C
C       0.1182  0.66621   0.4265     C
C       0.1182  0.83379   0.9265     C
C       0.1305  0.00149   0.5335     C
C       0.1305  0.49851   0.0335     C
C       0.1305  0.50149   0.4665     C
C       0.1305  0.99851   0.9665     C
C       0.1329  0.10605   0.0329     C
C       0.1329  0.39395   0.5329     C
C       0.1329  0.60605   0.9671     C
C       0.1329  0.89395   0.4671     C
C       0.1338  0.16269   0.1154     C
C       0.1338  0.33731   0.6154     C
C       0.1338  0.66269   0.8846     C
C       0.1338  0.83731   0.3846     C
C       0.1452  0.21736   0.2955     C
C       0.1452  0.28264   0.7955     C
C       0.1452  0.71736   0.7045     C
C       0.1452  0.78264   0.2045     C
N       0.1462  0.02972   0.0102     N
N       0.1462  0.47028   0.5102     N
N       0.1462  0.52972   0.9898     N
N       0.1462  0.97028   0.4898     N
O       0.1466  0.18818    0.809     O
O       0.1466  0.31182    0.309     O
O       0.1466  0.68818    0.191     O
O       0.1466  0.81182    0.691     O
N       0.1481  0.18293   0.2499     N
N       0.1481  0.31707   0.7499     N
N       0.1481  0.68293   0.7501     N
N       0.1481  0.81707   0.2501     N
H       0.1602    0.061   0.5543     H
H       0.1602    0.439   0.0543     H
H       0.1602    0.561   0.4457     H
H       0.1602    0.939   0.9457     H
O       0.1671  0.13638   0.5815     O
O       0.1671  0.36362   0.0815     O
O       0.1671  0.63638   0.4185     O
O       0.1671  0.86362   0.9185     O
C       0.1715    0.039   0.5231     C
C       0.1715    0.461   0.0231     C
C       0.1715    0.539   0.4769     C
C       0.1715    0.961   0.9769     C
H       0.1811   0.2408   0.3933     H
H       0.1811   0.2592   0.8933     H
H       0.1811   0.7408   0.6067     H
H       0.1811   0.7592   0.1067     H
C       0.1837  0.21769   0.3633     C
C       0.1837  0.28231   0.8633     C
C       0.1837  0.71769   0.6367     C
C       0.1837  0.78231   0.1367     C
C       0.1902   0.1258   0.9842     C
C       0.1902   0.3742   0.4842     C
C       0.1902   0.6258   0.0158     C
C       0.1902   0.8742   0.5158     C
C        0.191   0.1818   0.0718     C
C        0.191   0.3182   0.5718     C
C        0.191   0.6818   0.9282     C
C        0.191   0.8182   0.4282     C
C       0.1911   0.1488   0.2743     C
C       0.1911   0.3512   0.7743     C
C       0.1911   0.6488   0.7257     C
C       0.1911   0.8512   0.2257     C
H       0.1928   0.1255   0.2445     H
H       0.1928   0.3745   0.7445     H
H       0.1928   0.6255   0.7555     H
H       0.1928   0.8745   0.2555     H
C       0.2014   0.0271   0.0667     C
C       0.2014   0.4729   0.5667     C
C       0.2014   0.5271   0.9333     C
C       0.2014   0.9729   0.4333     C
H       0.2027   0.1202   0.8707     H
H       0.2027   0.3798   0.3707     H
H       0.2027   0.6202   0.1293     H
H       0.2027   0.8798   0.6293     H
H       0.2033   0.2458    0.069     H
H       0.2033   0.2542    0.569     H
H       0.2033   0.7458    0.931     H
H       0.2033   0.7542    0.431     H
Cd     0.20494  0.16256  0.70299    Cd
Cd     0.20494  0.33744  0.20299    Cd
Cd     0.20494  0.66256  0.29701    Cd
Cd     0.20494  0.83744  0.79701    Cd
H       0.2084   0.0781   0.9122     H
H       0.2084   0.4219   0.4122     H
H       0.2084   0.5781   0.0878     H
H       0.2084   0.9219   0.5878     H
H       0.2104   0.0495   0.0975     H
H       0.2104   0.4505   0.5975     H
H       0.2104   0.5495   0.9025     H
H       0.2104   0.9505   0.4025     H
H       0.2119   0.2286   0.1505     H
H       0.2119   0.2714   0.6505     H
H       0.2119   0.7286   0.8495     H
H       0.2119   0.7714   0.3495     H
C       0.2191  0.16415   0.0095     C
C       0.2191  0.33585   0.5095     C
C       0.2191  0.66415   0.9905     C
C       0.2191  0.83585   0.4905     C
C       0.2237  0.10635   0.9138     C
C       0.2237  0.39365   0.4138     C
C       0.2237  0.60635   0.0862     C
C       0.2237  0.89365   0.5862     C
C       0.2258  0.22434   0.0989     C
C       0.2258  0.27566   0.5989     C
C       0.2258  0.72434   0.9011     C
C       0.2258  0.77566   0.4011     C
C       0.2267  0.18365   0.3877     C
C       0.2267  0.31635   0.8877     C
C       0.2267  0.68365   0.6123     C
C       0.2267  0.81635   0.1123     C
C       0.2289  0.04319    0.466     C
C       0.2289  0.45681    0.966     C
C       0.2289  0.54319    0.534     C
C       0.2289  0.95681    0.034     C
C       0.2306   0.1492   0.3414     C
C       0.2306   0.3508   0.8414     C
C       0.2306   0.6492   0.6586     C
C       0.2306   0.8508   0.1586     C
C       0.2428  0.00744   0.4217     C
C       0.2428  0.49256   0.9217     C
C       0.2428  0.50744   0.5783     C
C       0.2428  0.99256   0.0783     C
O       0.2567  0.18104   0.4538     O
O       0.2567  0.31896   0.9538     O
O       0.2567  0.68104   0.5462     O
O       0.2567  0.81896   0.0462     O
H       0.2576   0.1857   0.9071     H
H       0.2576   0.3143   0.4071     H
H       0.2576   0.6857   0.0929     H
H       0.2576   0.8143   0.5929     H
H       0.2602   0.1265   0.3564     H
H       0.2602   0.3735   0.8564     H
H       0.2602   0.6265   0.6436     H
H       0.2602   0.8735   0.1436     H
O       0.2628  0.07636   0.4565     O
O       0.2628  0.42364   0.9565     O
O       0.2628  0.57636   0.5435     O
O       0.2628  0.92364   0.0435     O
O       0.2761  0.10717   0.7256     O
O       0.2761  0.39283   0.2256     O
O       0.2761  0.60717   0.2744     O
O       0.2761  0.89283   0.7744     O
C       0.2775  0.18725   0.9581     C
C       0.2775  0.31275   0.4581     C
C       0.2775  0.68725   0.0419     C
C       0.2775  0.81275   0.5419     C
H        0.278   0.2158   0.9725     H
H        0.278   0.2842   0.4725     H
H        0.278   0.7158   0.0275     H
H        0.278   0.7842   0.5275     H
H       0.2814   0.0082    0.384     H
H       0.2814   0.1084   0.9141     H
H       0.2814   0.3916   0.4141     H
H       0.2814   0.4918    0.884     H
H       0.2814   0.5082    0.616     H
H       0.2814   0.6084   0.0859     H
H       0.2814   0.8916   0.5859     H
H       0.2814   0.9918    0.116     H
H       0.2833   0.2243   0.0937     H
H       0.2833   0.2757   0.5937     H
H       0.2833   0.7243   0.9063     H
H       0.2833   0.7757   0.4063     H
Cd     0.29722  0.13065  0.52748    Cd
Cd     0.29722  0.36935  0.02748    Cd
Cd     0.29722  0.63065  0.47252    Cd
Cd     0.29722  0.86935  0.97252    Cd
C       0.3064   0.0778   0.6784     C
C       0.3064   0.4222   0.1784     C
C       0.3064   0.5778   0.3216     C
C       0.3064   0.9222   0.8216     C
H       0.3138   0.0559   0.8317     H
O       0.3138  0.20187   0.7202     O
O       0.3138  0.29813   0.2202     O
H       0.3138   0.4441   0.3317     H
H       0.3138   0.5559   0.1683     H
O       0.3138  0.70187   0.2798     O
O       0.3138  0.79813   0.7798     O
H       0.3138   0.9441   0.6683     H
C       0.3168  0.03874   0.7209     C
C       0.3168  0.46126   0.2209     C
C       0.3168  0.53874   0.2791     C
C       0.3168  0.96126   0.7791     C
C       0.3172  0.03361   0.7997     C
C       0.3172  0.46639   0.2997     C
C       0.3172  0.53361   0.2003     C
C       0.3172  0.96639   0.7003     C
C       0.3229   0.0058   0.6722     C
C       0.3229   0.4942   0.1722     C
C       0.3229   0.5058   0.3278     C
C       0.3229   0.9942   0.8278     C
O       0.3267  0.08618   0.6149     O
O       0.3267  0.41382   0.1149     O
O       0.3267  0.58618   0.3851     O
O       0.3267  0.91382   0.8851     O
H       0.3306   0.0101   0.6213     H
H       0.3306   0.4899   0.1213     H
H       0.3306   0.5101   0.3787     H
H       0.3306   0.9899   0.8787     H
O       0.3343  0.18353   0.6042     O
O       0.3343  0.31647   0.1042     O
O       0.3343  0.68353   0.3958     O
O       0.3343  0.81647   0.8958     O
C       0.3528  0.20252   0.6594     C
C       0.3528  0.29748   0.1594     C
C       0.3528  0.70252   0.3406     C
C       0.3528  0.79748   0.8406     C
N       0.3581  0.17205   0.9599     N
N       0.3581  0.32795   0.4599     N
N       0.3581  0.67205   0.0401     N
N       0.3581  0.82795   0.5401     N
H       0.3695   0.1553   0.0702     H
H       0.3695   0.3447   0.5702     H
H       0.3695   0.6553   0.9298     H
H       0.3695   0.8447   0.4298     H
H       0.3803    0.186   0.8513     H
H       0.3803    0.314   0.3513     H
H       0.3803    0.686   0.1487     H
H       0.3803    0.814   0.6487     H
C       0.3957   0.1559   0.0242     C
C       0.3957   0.3441   0.5242     C
C       0.3957   0.6559   0.9758     C
C       0.3957   0.8441   0.4758     C
C       0.4029   0.1756    0.895     C
C       0.4029   0.3244    0.395     C
C       0.4029   0.6756    0.105     C
C       0.4029   0.8244    0.605     C
O       0.4098  0.12982   0.4565     O
O       0.4098  0.37018   0.9565     O
O       0.4098  0.62982   0.5435     O
O       0.4098  0.87018   0.0435     O
C       0.4283  0.22713   0.6597     C
C       0.4283  0.27287   0.1597     C
C       0.4283  0.72713   0.3403     C
C       0.4283  0.77287   0.8403     C
H       0.4422   0.2321   0.7717     H
H       0.4422   0.2679   0.2717     H
H       0.4422   0.7321   0.2283     H
H       0.4422   0.7679   0.7283     H
H       0.4425    0.231   0.5486     H
H       0.4425    0.269   0.0486     H
H       0.4425    0.731   0.4514     H
H       0.4425    0.769   0.9514     H
C       0.4653  0.23872   0.5941     C
C       0.4653  0.26128   0.0941     C
C       0.4653  0.73872   0.4059     C
C       0.4653  0.76128   0.9059     C
C       0.4656   0.2392   0.7262     C
C       0.4656   0.2608   0.2262     C
C       0.4656   0.7392   0.2738     C
C       0.4656   0.7608   0.7738     C
C       0.4755   0.1405    0.016     C
C       0.4755   0.3595    0.516     C
C       0.4755   0.6405    0.984     C
C       0.4755   0.8595    0.484     C
C       0.4822    0.146   0.4581     C
C       0.4822    0.354   0.9581     C
C       0.4822    0.646   0.5419     C
C       0.4822    0.854   0.0419     C
C       0.4842   0.1631   0.8973     C
H       0.4842   0.1668   0.3549     H
H       0.4842   0.3332   0.8549     H
C       0.4842   0.3369   0.3973     C
C       0.4842   0.6631   0.1027     C
H       0.4842   0.6668   0.6451     H
H       0.4842   0.8332   0.1451     H
C       0.4842   0.8369   0.6027     C
H       0.4975   0.1256   0.0553     H
H       0.4975   0.3744   0.5553     H
H       0.4975   0.6256   0.9447     H
H       0.4975   0.8744   0.4447     H
H       0.5025   0.1256   0.5553     H
H       0.5025   0.3744   0.0553     H
H       0.5025   0.6256   0.4447     H
H       0.5025   0.8744   0.9447     H
C       0.5158   0.1631   0.3973     C
H       0.5158   0.1668   0.8549     H
H       0.5158   0.3332   0.3549     H
C       0.5158   0.3369   0.8973     C
C       0.5158   0.6631   0.6027     C
H       0.5158   0.6668   0.1451     H
H       0.5158   0.8332   0.6451     H
C       0.5158   0.8369   0.1027     C
C       0.5178    0.146   0.9581     C
C       0.5178    0.354   0.4581     C
C       0.5178    0.646   0.0419     C
C       0.5178    0.854   0.5419     C
C       0.5245   0.1405    0.516     C
C       0.5245   0.3595    0.016     C
C       0.5245   0.6405    0.484     C
C       0.5245   0.8595    0.984     C
C       0.5344   0.2392   0.2262     C
C       0.5344   0.2608   0.7262     C
C       0.5344   0.7392   0.7738     C
C       0.5344   0.7608   0.2738     C
C       0.5347  0.23872   0.0941     C
C       0.5347  0.26128   0.5941     C
C       0.5347  0.73872   0.9059     C
C       0.5347  0.76128   0.4059     C
H       0.5575    0.231   0.0486     H
H       0.5575    0.269   0.5486     H
H       0.5575    0.731   0.9514     H
H       0.5575    0.769   0.4514     H
H       0.5578   0.2321   0.2717     H
H       0.5578   0.2679   0.7717     H
H       0.5578   0.7321   0.7283     H
H       0.5578   0.7679   0.2283     H
C       0.5717  0.22713   0.1597     C
C       0.5717  0.27287   0.6597     C
C       0.5717  0.72713   0.8403     C
C       0.5717  0.77287   0.3403     C
O       0.5902  0.12982   0.9565     O
O       0.5902  0.37018   0.4565     O
O       0.5902  0.62982   0.0435     O
O       0.5902  0.87018   0.5435     O
C       0.5971   0.1756    0.395     C
C       0.5971   0.3244    0.895     C
C       0.5971   0.6756    0.605     C
C       0.5971   0.8244    0.105     C
C       0.6043   0.1559   0.5242     C
C       0.6043   0.3441   0.0242     C
C       0.6043   0.6559   0.4758     C
C       0.6043   0.8441   0.9758     C
H       0.6197    0.186   0.3513     H
H       0.6197    0.314   0.8513     H
H       0.6197    0.686   0.6487     H
H       0.6197    0.814   0.1487     H
H       0.6305   0.1553   0.5702     H
H       0.6305   0.3447   0.0702     H
H       0.6305   0.6553   0.4298     H
H       0.6305   0.8447   0.9298     H
N       0.6419  0.17205   0.4599     N
N       0.6419  0.32795   0.9599     N
N       0.6419  0.67205   0.5401     N
N       0.6419  0.82795   0.0401     N
C       0.6472  0.20252   0.1594     C
C       0.6472  0.29748   0.6594     C
C       0.6472  0.70252   0.8406     C
C       0.6472  0.79748   0.3406     C
O       0.6657  0.18353   0.1042     O
O       0.6657  0.31647   0.6042     O
O       0.6657  0.68353   0.8958     O
O       0.6657  0.81647   0.3958     O
H       0.6694   0.0101   0.1213     H
H       0.6694   0.4899   0.6213     H
H       0.6694   0.5101   0.8787     H
H       0.6694   0.9899   0.3787     H
O       0.6733  0.08618   0.1149     O
O       0.6733  0.41382   0.6149     O
O       0.6733  0.58618   0.8851     O
O       0.6733  0.91382   0.3851     O
C       0.6771   0.0058   0.1722     C
C       0.6771   0.4942   0.6722     C
C       0.6771   0.5058   0.8278     C
C       0.6771   0.9942   0.3278     C
C       0.6828  0.03361   0.2997     C
C       0.6828  0.46639   0.7997     C
C       0.6828  0.53361   0.7003     C
C       0.6828  0.96639   0.2003     C
C       0.6832  0.03874   0.2209     C
C       0.6832  0.46126   0.7209     C
C       0.6832  0.53874   0.7791     C
C       0.6832  0.96126   0.2791     C
H       0.6862   0.0559   0.3317     H
O       0.6862  0.20187   0.2202     O
O       0.6862  0.29813   0.7202     O
H       0.6862   0.4441   0.8317     H
H       0.6862   0.5559   0.6683     H
O       0.6862  0.70187   0.7798     O
O       0.6862  0.79813   0.2798     O
H       0.6862   0.9441   0.1683     H
C       0.6936   0.0778   0.1784     C
C       0.6936   0.4222   0.6784     C
C       0.6936   0.5778   0.8216     C
C       0.6936   0.9222   0.3216     C
Cd     0.70278  0.13065  0.02748    Cd
Cd     0.70278  0.36935  0.52748    Cd
Cd     0.70278  0.63065  0.97252    Cd
Cd     0.70278  0.86935  0.47252    Cd
H       0.7167   0.2243   0.5937     H
H       0.7167   0.2757   0.0937     H
H       0.7167   0.7243   0.4063     H
H       0.7167   0.7757   0.9063     H
H       0.7186   0.0082    0.884     H
H       0.7186   0.1084   0.4141     H
H       0.7186   0.3916   0.9141     H
H       0.7186   0.4918    0.384     H
H       0.7186   0.5082    0.116     H
H       0.7186   0.6084   0.5859     H
H       0.7186   0.8916   0.0859     H
H       0.7186   0.9918    0.616     H
H        0.722   0.2158   0.4725     H
H        0.722   0.2842   0.9725     H
H        0.722   0.7158   0.5275     H
H        0.722   0.7842   0.0275     H
C       0.7225  0.18725   0.4581     C
C       0.7225  0.31275   0.9581     C
C       0.7225  0.68725   0.5419     C
C       0.7225  0.81275   0.0419     C
O       0.7239  0.10717   0.2256     O
O       0.7239  0.39283   0.7256     O
O       0.7239  0.60717   0.7744     O
O       0.7239  0.89283   0.2744     O
O       0.7372  0.07636   0.9565     O
O       0.7372  0.42364   0.4565     O
O       0.7372  0.57636   0.0435     O
O       0.7372  0.92364   0.5435     O
H       0.7398   0.1265   0.8564     H
H       0.7398   0.3735   0.3564     H
H       0.7398   0.6265   0.1436     H
H       0.7398   0.8735   0.6436     H
H       0.7424   0.1857   0.4071     H
H       0.7424   0.3143   0.9071     H
H       0.7424   0.6857   0.5929     H
H       0.7424   0.8143   0.0929     H
O       0.7433  0.18104   0.9538     O
O       0.7433  0.31896   0.4538     O
O       0.7433  0.68104   0.0462     O
O       0.7433  0.81896   0.5462     O
C       0.7572  0.00744   0.9217     C
C       0.7572  0.49256   0.4217     C
C       0.7572  0.50744   0.0783     C
C       0.7572  0.99256   0.5783     C
C       0.7694   0.1492   0.8414     C
C       0.7694   0.3508   0.3414     C
C       0.7694   0.6492   0.1586     C
C       0.7694   0.8508   0.6586     C
C       0.7711  0.04319    0.966     C
C       0.7711  0.45681    0.466     C
C       0.7711  0.54319    0.034     C
C       0.7711  0.95681    0.534     C
C       0.7733  0.18365   0.8877     C
C       0.7733  0.31635   0.3877     C
C       0.7733  0.68365   0.1123     C
C       0.7733  0.81635   0.6123     C
C       0.7742  0.22434   0.5989     C
C       0.7742  0.27566   0.0989     C
C       0.7742  0.72434   0.4011     C
C       0.7742  0.77566   0.9011     C
C       0.7763  0.10635   0.4138     C
C       0.7763  0.39365   0.9138     C
C       0.7763  0.60635   0.5862     C
C       0.7763  0.89365   0.0862     C
C       0.7809  0.16415   0.5095     C
C       0.7809  0.33585   0.0095     C
C       0.7809  0.66415   0.4905     C
C       0.7809  0.83585   0.9905     C
H       0.7881   0.2286   0.6505     H
H       0.7881   0.2714   0.1505     H
H       0.7881   0.7286   0.3495     H
H       0.7881   0.7714   0.8495     H
H       0.7896   0.0495   0.5975     H
H       0.7896   0.4505   0.0975     H
H       0.7896   0.5495   0.4025     H
H       0.7896   0.9505   0.9025     H
H       0.7916   0.0781   0.4122     H
H       0.7916   0.4219   0.9122     H
H       0.7916   0.5781   0.5878     H
H       0.7916   0.9219   0.0878     H
Cd     0.79506  0.16256  0.20299    Cd
Cd     0.79506  0.33744  0.70299    Cd
Cd     0.79506  0.66256  0.79701    Cd
Cd     0.79506  0.83744  0.29701    Cd
H       0.7967   0.2458    0.569     H
H       0.7967   0.2542    0.069     H
H       0.7967   0.7458    0.431     H
H       0.7967   0.7542    0.931     H
H       0.7973   0.1202   0.3707     H
H       0.7973   0.3798   0.8707     H
H       0.7973   0.6202   0.6293     H
H       0.7973   0.8798   0.1293     H
C       0.7986   0.0271   0.5667     C
C       0.7986   0.4729   0.0667     C
C       0.7986   0.5271   0.4333     C
C       0.7986   0.9729   0.9333     C
H       0.8072   0.1255   0.7445     H
H       0.8072   0.3745   0.2445     H
H       0.8072   0.6255   0.2555     H
H       0.8072   0.8745   0.7555     H
C       0.8089   0.1488   0.7743     C
C       0.8089   0.3512   0.2743     C
C       0.8089   0.6488   0.2257     C
C       0.8089   0.8512   0.7257     C
C        0.809   0.1818   0.5718     C
C        0.809   0.3182   0.0718     C
C        0.809   0.6818   0.4282     C
C        0.809   0.8182   0.9282     C
C       0.8098   0.1258   0.4842     C
C       0.8098   0.3742   0.9842     C
C       0.8098   0.6258   0.5158     C
C       0.8098   0.8742   0.0158     C
C       0.8163  0.21769   0.8633     C
C       0.8163  0.28231   0.3633     C
C       0.8163  0.71769   0.1367     C
C       0.8163  0.78231   0.6367     C
H       0.8189   0.2408   0.8933     H
H       0.8189   0.2592   0.3933     H
H       0.8189   0.7408   0.1067     H
H       0.8189   0.7592   0.6067     H
C       0.8285    0.039   0.0231     C
C       0.8285    0.461   0.5231     C
C       0.8285    0.539   0.9769     C
C       0.8285    0.961   0.4769     C
O       0.8329  0.13638   0.0815     O
O       0.8329  0.36362   0.5815     O
O       0.8329  0.63638   0.9185     O
O       0.8329  0.86362   0.4185     O
H       0.8398    0.061   0.0543     H
H       0.8398    0.439   0.5543     H
H       0.8398    0.561   0.9457     H
H       0.8398    0.939   0.4457     H
N       0.8519  0.18293   0.7499     N
N       0.8519  0.31707   0.2499     N
N       0.8519  0.68293   0.2501     N
N       0.8519  0.81707   0.7501     N
O       0.8534  0.18818    0.309     O
O       0.8534  0.31182    0.809     O
O       0.8534  0.68818    0.691     O
O       0.8534  0.81182    0.191     O
N       0.8538  0.02972   0.5102     N
N       0.8538  0.47028   0.0102     N
N       0.8538  0.52972   0.4898     N
N       0.8538  0.97028   0.9898     N
C       0.8548  0.21736   0.7955     C
C       0.8548  0.28264   0.2955     C
C       0.8548  0.71736   0.2045     C
C       0.8548  0.78264   0.7045     C
C       0.8662  0.16269   0.6154     C
C       0.8662  0.33731   0.1154     C
C       0.8662  0.66269   0.3846     C
C       0.8662  0.83731   0.8846     C
C       0.8671  0.10605   0.5329     C
C       0.8671  0.39395   0.0329     C
C       0.8671  0.60605   0.4671     C
C       0.8671  0.89395   0.9671     C
C       0.8695  0.00149   0.0335     C
C       0.8695  0.49851   0.5335     C
C       0.8695  0.50149   0.9665     C
C       0.8695  0.99851   0.4665     C
C       0.8818  0.16621   0.0735     C
C       0.8818  0.33379   0.5735     C
C       0.8818  0.66621   0.9265     C
C       0.8818  0.83379   0.4265     C
H        0.883   0.2403   0.7797     H
H        0.883   0.2597   0.2797     H
H        0.883   0.7403   0.2203     H
H        0.883   0.7597   0.7203     H
O       0.8893  0.19304   0.1196     O
O       0.8893  0.30696   0.6196     O
O       0.8893  0.69304   0.8804     O
O       0.8893  0.80696   0.3804     O
H       0.8905   0.1131   0.9629     H
H       0.8905   0.3869   0.4629     H
H       0.8905   0.6131   0.0371     H
H       0.8905   0.8869   0.5371     H
C       0.8948  0.12453    0.597     C
C       0.8948  0.37547    0.097     C
C       0.8948  0.62453    0.403     C
C       0.8948  0.87547    0.903     C
C       0.9037  0.18464    0.679     C
C       0.9037  0.31536    0.179     C
C       0.9037  0.68464    0.321     C
C       0.9037  0.81536    0.821     C
C       0.9065  0.06723   0.4978     C
C       0.9065  0.43277   0.9978     C
C       0.9065  0.56723   0.5022     C
C       0.9065  0.93277   0.0022     C
H       0.9076    0.001   0.4286     H
H       0.9076    0.499   0.9286     H
H       0.9076    0.501   0.5714     H
H       0.9076    0.999   0.0714     H
C       0.9083  0.16092   0.3173     C
C       0.9083  0.33908   0.8173     C
C       0.9083  0.66092   0.6827     C
C       0.9083  0.83908   0.1827     C
H       0.9121   0.2129   0.6651     H
H       0.9121   0.2871   0.1651     H
H       0.9121   0.7129   0.3349     H
H       0.9121   0.7871   0.8349     H
O       0.9139   0.1326   0.2679     O
O       0.9139   0.3674   0.7679     O
O       0.9139   0.6326   0.7321     O
O       0.9139   0.8674   0.2321     O
H       0.9142   0.0715   0.4445     H
H       0.9142   0.4285   0.9445     H
H       0.9142   0.5715   0.5555     H
H       0.9142   0.9285   0.0555     H
H       0.9225   0.2155   0.4258     H
H       0.9225   0.2845   0.9258     H
H       0.9225   0.7155   0.5742     H
H       0.9225   0.7845   0.0742     H
C       0.9278   0.1338    0.955     C
C       0.9278   0.3662    0.455     C
C       0.9278   0.6338    0.045     C
C       0.9278   0.8662    0.545     C
C       0.9336   0.1651    0.005     C
C       0.9336   0.3349    0.505     C
C       0.9336   0.6651    0.995     C
C       0.9336   0.8349    0.495     C
H       0.9503    0.111   0.6953     H
H       0.9503    0.389   0.1953     H
H       0.9503    0.611   0.3047     H
H       0.9503    0.889   0.8047     H
H       0.9522   0.0746   0.6383     H
H       0.9522   0.4254   0.1383     H
H       0.9522   0.5746   0.3617     H
H       0.9522   0.9254   0.8617     H
H       0.9559   0.1727   0.6895     H
H       0.9559   0.3273   0.1895     H
H       0.9559   0.6727   0.3105     H
H       0.9559   0.8273   0.8105     H
C       0.9575  0.10363   0.6437     C
C       0.9575  0.39637   0.1437     C
C       0.9575  0.60363   0.3563     C
C       0.9575  0.89637   0.8563     C
H       0.9589   0.0627   0.5202     H
H       0.9589   0.4373   0.0202     H
H       0.9589   0.5627   0.4798     H
H       0.9589   0.9373   0.9798     H
C       0.9604  0.19496   0.4323     C
C       0.9604  0.30504   0.9323     C
C       0.9604  0.69496   0.5677     C
C       0.9604  0.80504   0.0677     C
C       0.9657   0.1637   0.3822     C
C       0.9657   0.3363   0.8822     C
C       0.9657   0.6637   0.6178     C
C       0.9657   0.8363   0.1178     C
H        0.975   0.1118   0.8555     H
H        0.975   0.3882   0.3555     H
H        0.975   0.6118   0.1445     H
H        0.975   0.8882   0.6445     H
C        0.979  0.13266   0.8905     C
C        0.979  0.36734   0.3905     C
C        0.979  0.63266   0.1095     C
C        0.979  0.86734   0.6095     C
C       0.9883  0.19569   0.9923     C
C       0.9883  0.30431   0.4923     C
C       0.9883  0.69569   0.0077     C
C       0.9883  0.80431   0.5077     C
H       0.9899   0.1119   0.1274     H
H       0.9899   0.3881   0.6274     H
H       0.9899   0.6119   0.8726     H
H       0.9899   0.8881   0.3726     H
H       0.9906   0.2176   0.0254     H
H       0.9906   0.2824   0.5254     H
H       0.9906   0.7176   0.9746     H
H       0.9906   0.7824   0.4746     H
