data_I
_chemical_name_common  '/home/zhangsd/repos/MofS-CGCNN/ML/data/SSD/clean_cifs/ECAHEX_clean'
_cell_length_a  7.75540
_cell_length_b 15.64080
_cell_length_c 15.64080
_cell_angle_alpha 62.67590
_cell_angle_beta  80.48640
_cell_angle_gamma 99.51360
_space_group_name_H-M_alt      'P 1'


loop_
_space_group_symop_operation_xyz
  'x, y, z' 

loop_
_atom_site_label
_atom_site_fract_x
_atom_site_fract_y
_atom_site_fract_z
_atom_site_type_symbol
Cu         0.0      0.5      0.5    Cu
H       0.0164   0.4691   0.2988     H
C      0.02446  0.30704  0.53216     C
H       0.0453   0.1841   0.3355     H
C      0.04915  0.23517  0.27272     C
C      0.05764  0.14975  0.52943     C
H       0.0678   0.8739   0.4563     H
C      0.07558  0.38632  0.09288     C
H       0.0832   0.4393   0.0303     H
C      0.09211  0.67918  0.85025     C
C       0.0936  0.51494  0.69514     C
C      0.10829   0.7591  0.75773     C
O      0.11014  0.39845  0.49343     O
H       0.1135   0.0303   0.5304     H
H        0.132   0.6722   0.0576     H
C      0.13398  0.24227  0.51683     C
H       0.1388   0.5196   0.8159     H
N      0.15198  0.50013  0.62009     N
C      0.15456  0.73715  0.41027     C
C      0.16846  0.09288   0.5208     C
C      0.18602  0.50789  0.76483     C
H       0.1896   0.0576   0.2702     H
H       0.1939   0.6698   0.8739     H
H       0.2064   0.8024   0.3947     H
C      0.21126  0.30486  0.21008     C
O      0.22232    0.602  0.39554     O
N      0.22793  0.37991  0.12022     N
H       0.2471   0.7107   0.1126     H
C       0.2528   0.6993   0.0571     C
C      0.26438  0.69226  0.37342     C
C      0.28258   0.8392  0.69296     C
O      0.28831  0.89188  0.60155     O
H       0.3049   0.9958   0.2429     H
H       0.3091   0.7613   0.9958     H
C       0.3099   0.0571   0.2436     C
C      0.31074   0.4792  0.61368     C
H       0.3152   0.2988   0.2321     H
C      0.32187  0.27272  0.49211     C
N      0.34815  0.12022  0.49987     N
C      0.34919  0.48317   0.7591     C
H       0.3561   0.4696   0.5607     H
H       0.3597   0.1126   0.1767     H
C       0.3622  0.62658  0.06568     C
O      0.37968  0.99754    0.398     O
H       0.3808   0.3355   0.4804     H
O      0.38214  0.60446  0.99754     O
O      0.39643  0.50657  0.89188     O
H       0.3989   0.6053   0.1971     H
H        0.404   0.8029   0.8024     H
C      0.41293  0.47057  0.67918     C
C      0.41741  0.85258  0.73715     C
C      0.42134  0.21008  0.48506     C
C      0.42788  0.06568  0.30774     C
C      0.43517  0.58973  0.14742     C
C      0.44338  0.46784   0.8392     C
C       0.4465   0.7564   0.3007     C
H       0.4522   0.7571   0.2387     H
H       0.4527   0.7679   0.5309     H
H       0.4598   0.2702   0.6722     H
H       0.4636   0.8233   0.2893     H
H       0.4759   0.5437   0.3302     H
Cu         0.5      0.0      0.5    Cu
Cu         0.5      0.5      0.0    Cu
H       0.5241   0.4563   0.6698     H
H       0.5364   0.1767   0.7107     H
H       0.5402   0.7298   0.3278     H
H       0.5473   0.2321   0.4691     H
H       0.5478   0.2429   0.7613     H
C       0.5535   0.2436   0.6993     C
C      0.55662  0.53216   0.1608     C
C      0.56483  0.41027  0.85258     C
C      0.57212  0.93432  0.69226     C
C      0.57866  0.78992  0.51494     C
C      0.58259  0.14742  0.26285     C
C      0.58707  0.52943  0.32082     C
H        0.596   0.1971   0.1976     H
H       0.6011   0.3947   0.8029     H
O      0.60357  0.49343  0.10812     O
O      0.61786  0.39554  0.00246     O
H       0.6192   0.6645   0.5196     H
O      0.62032  0.00246    0.602     O
C       0.6378  0.37342  0.93432     C
H       0.6403   0.8874   0.8233     H
H       0.6439   0.5304   0.4393     H
C      0.65081  0.51683   0.2409     C
N      0.65185  0.87978  0.50013     N
C      0.67813  0.72728  0.50789     C
H       0.6848   0.7012   0.7679     H
C      0.68926   0.5208  0.38632     C
C       0.6901   0.9429   0.7564     C
H       0.6909   0.2387   0.0042     H
H       0.6951   0.0042   0.7571     H
O      0.71169  0.10812  0.39845     O
C      0.71742   0.1608  0.30704     C
C      0.73562  0.30774  0.62658     C
C       0.7472   0.3007   0.9429     C
H       0.7529   0.2893   0.8874     H
N      0.77207  0.62009  0.87978     N
O      0.77768    0.398  0.60446     O
C      0.78874  0.69514  0.78992     C
H       0.7936   0.1976   0.6053     H
H       0.8061   0.3302   0.1261     H
H       0.8104   0.9424   0.7298     H
C      0.81398  0.49211  0.23517     C
C      0.83154  0.90712   0.4792     C
C      0.84544  0.26285  0.58973     C
N      0.84802  0.49987  0.37991     N
H       0.8612   0.4804   0.1841     H
C      0.86602  0.75773  0.48317     C
H        0.868   0.3278   0.9424     H
H       0.8865   0.9697   0.4696     H
O      0.88986  0.60155  0.50657     O
C      0.89171   0.2409  0.24227     C
C       0.9064  0.48506  0.30486     C
C      0.90789  0.32082  0.14975     C
H       0.9168   0.5607   0.9697     H
C      0.92442  0.61368  0.90712     C
H       0.9322   0.1261   0.5437     H
C      0.94236  0.85025  0.47057     C
C      0.95085  0.76483  0.72728     C
H       0.9547   0.8159   0.6645     H
C      0.97554  0.69296  0.46784     C
H       0.9836   0.5309   0.7012     H
