data_I
_chemical_name_common  '/home/zhangsd/repos/MofS-CGCNN/ML/data/SSD/clean_cifs/ECAHOH_clean'
_cell_length_a  7.74100
_cell_length_b 15.59670
_cell_length_c 15.59670
_cell_angle_alpha 62.68100
_cell_angle_beta  80.47720
_cell_angle_gamma 99.52280
_space_group_name_H-M_alt      'P 1'


loop_
_space_group_symop_operation_xyz
  'x, y, z' 

loop_
_atom_site_label
_atom_site_fract_x
_atom_site_fract_y
_atom_site_fract_z
_atom_site_type_symbol
Cu         0.0      0.5      0.5    Cu
H       0.0161   0.7014   0.5315     H
C      0.02322  0.46916   0.6933     C
H       0.0439   0.6642    0.816     H
C      0.04863  0.72711  0.76452     C
C      0.05563  0.47113  0.85154     C
H       0.0699   0.5429   0.1249     H
C      0.07605   0.9087  0.61215     C
H       0.0844   0.9715   0.5593     H
C      0.09283  0.14846  0.32267     C
C       0.0938   0.3049   0.4847     C
O      0.10919  0.50654  0.60207     O
C      0.10928  0.24154   0.2425     C
H       0.1129   0.4692   0.9715     H
C      0.13226  0.48404  0.75846     C
H        0.138   0.9562   0.3213     H
H       0.1401    0.184   0.4802     H
N      0.15169  0.38071  0.49994     N
C      0.15755  0.58818  0.26273     C
C      0.16735  0.47915   0.9087     C
H       0.1818   0.7225   0.9562     H
C      0.18685  0.23548  0.49163     C
H       0.1948   0.1249   0.3322     H
H       0.2108   0.6027   0.1979     H
C       0.2111   0.7896   0.6951     C
H       0.2212   0.8801   0.3007     H
O       0.2227  0.60464  0.39784     O
N      0.22902  0.88065  0.61929     N
C       0.2492   0.9423   0.3011     C
C      0.26621  0.62611  0.30768     C
C      0.28348   0.3067  0.16246     C
O      0.28874  0.39793  0.10861     O
C       0.3069   0.7566   0.9423     C
C       0.3118  0.38785  0.52085     C
H       0.3147   0.7671   0.7014     H
H       0.3176   0.9956    0.235     H
C      0.32152  0.50837  0.72711     C
H        0.322   0.7694   0.9956     H
H       0.3411   0.8192   0.8801     H
N      0.34837  0.50006  0.88065     N
C      0.35178   0.2425  0.51596     C
H       0.3563   0.4407   0.5308     H
C       0.3599  0.93379  0.37389     C
O      0.37946  0.60216  0.00248     O
H       0.3797   0.5198   0.6642     H
O      0.38194  0.00248  0.39536     O
H       0.3919   0.8006   0.3973     H
O      0.39735  0.10861  0.49346     O
H       0.4087   0.1979   0.1994     H
C       0.4155  0.32267  0.52887     C
C      0.42028  0.26273  0.14909     C
C       0.4215   0.5153   0.7896     C
C      0.42611  0.69232  0.93379     C
C      0.43063  0.85091  0.41182     C
C      0.44594  0.16246  0.53084     C
H       0.4474    0.765   0.2306     H
C       0.4497   0.6989   0.2434     C
H       0.4524   0.4685   0.2329     H
H       0.4593   0.3213   0.7225     H
H        0.473   0.6678   0.4571     H
H       0.4781   0.6993   0.1808     H
Cu         0.5      0.0      0.5    Cu
Cu         0.5      0.5     -0.0    Cu
H       0.5219   0.3007   0.8192     H
H        0.527   0.3322   0.5429     H
H       0.5407   0.6787   0.2775     H
H       0.5476   0.5315   0.7671     H
C       0.5503   0.3011   0.7566     C
H       0.5526    0.235   0.7694     H
C      0.55406  0.83754  0.46916     C
C      0.56937  0.14909  0.58818     C
C      0.57389  0.30768  0.06621     C
C       0.5785   0.4847   0.2104     C
C      0.57972  0.73727  0.85091     C
C       0.5845  0.67733  0.47113     C
H       0.5913   0.8021   0.8006     H
O      0.60265  0.89139  0.50654     O
H       0.6081   0.1994   0.6027     H
O      0.61806  0.99752  0.60464     O
H       0.6203   0.4802   0.3358     H
O      0.62054  0.39784  0.99752     O
C       0.6401  0.06621  0.62611     C
H       0.6437   0.5593   0.4692     H
C      0.64822   0.7575  0.48404     C
N      0.65163  0.49994  0.11935     N
H       0.6589   0.1808   0.1199     H
H        0.678   0.2306   0.0044     H
C      0.67848  0.49163  0.27289     C
H       0.6824   0.0044    0.765     H
H       0.6853   0.2329   0.2986     H
C       0.6882  0.61215  0.47915     C
C       0.6931   0.2434   0.0577     C
O      0.71126  0.60207  0.89139     O
C      0.71652   0.6933  0.83754     C
C      0.73379  0.37389  0.69232     C
C       0.7508   0.0577   0.6989     C
N      0.77098  0.11935  0.38071     N
O       0.7773  0.39536  0.60216     O
H       0.7788   0.1199   0.6993     H
C       0.7889   0.2104   0.3049     C
H       0.7892   0.3973   0.8021     H
H       0.8052   0.8751   0.6678     H
C      0.81315  0.76452  0.50837     C
H       0.8182   0.2775   0.0438     H
C      0.83265  0.52085   0.0913     C
C      0.84245  0.41182  0.73727     C
N      0.84831  0.61929  0.50006     N
H       0.8599    0.816   0.5198     H
H        0.862   0.0438   0.6787     H
C      0.86774  0.51596  0.24154     C
H       0.8871   0.5308   0.0285     H
C      0.89072  0.75846   0.7575     C
O      0.89081  0.49346  0.39793     O
C       0.9062   0.6951   0.5153     C
C      0.90717  0.85154  0.67733     C
H       0.9156   0.0285   0.4407     H
C      0.92395   0.0913  0.38785     C
H       0.9301   0.4571   0.8751     H
C      0.94437  0.52887  0.14846     C
C      0.95137  0.27289  0.23548     C
H       0.9561   0.3358    0.184     H
C      0.97678  0.53084   0.3067     C
H       0.9839   0.2986   0.4685     H
