data_I
_chemical_name_common  '/home/zhangsd/repos/MofS-CGCNN/ML/data/SSD/clean_cifs/ECEZAO01_clean'
_cell_length_a  6.37220
_cell_length_b  9.99920
_cell_length_c 11.22340
_cell_angle_alpha 116.45300
_cell_angle_beta  96.34090
_cell_angle_gamma 90.00000
_space_group_name_H-M_alt      'P 1'


loop_
_space_group_symop_operation_xyz
  'x, y, z' 

loop_
_atom_site_label
_atom_site_fract_x
_atom_site_fract_y
_atom_site_fract_z
_atom_site_type_symbol
Ni         0.0      0.0      0.0    Ni
O       0.0112  0.07506  0.85492     O
O       0.0112  0.77986  0.85492     O
C       0.0703  0.03157  0.63574     C
C       0.0703  0.60417  0.63574     C
H       0.0766   0.1383   0.6586     H
H       0.0766   0.5203   0.6586     H
C       0.1481  0.42216  0.40652     C
C       0.1481  0.98436  0.40652     C
C       0.1497  0.06102  0.77724     C
C       0.1497  0.71622  0.77724     C
H       0.2033   0.0718   0.4014     H
H       0.2033   0.3296   0.4014     H
H       0.2122   0.4435    0.342     H
H       0.2122   0.8985    0.342     H
C       0.2238  0.54401  0.54322     C
C       0.2238  0.99921  0.54322     C
H       0.2864   0.6257   0.5324     H
H       0.2864   0.9067   0.5324     H
O        0.317  0.02899  0.05798     O
H       0.3354   0.0778   0.5838     H
H       0.3354    0.506   0.5838     H
O       0.3451  0.07019  0.80978     O
O       0.3451  0.73959  0.80978     O
Ni         0.5  0.15118      0.0    Ni
Ni         0.5  0.84882      0.0    Ni
O       0.6549  0.26041  0.19022     O
O       0.6549  0.92981  0.19022     O
H       0.6646    0.494   0.4162     H
H       0.6646   0.9222   0.4162     H
O        0.683  0.97101  0.94202     O
H       0.7136   0.0933   0.4676     H
H       0.7136   0.3743   0.4676     H
C       0.7762  0.00079  0.45678     C
C       0.7762  0.45599  0.45678     C
H       0.7878   0.1015    0.658     H
H       0.7878   0.5565    0.658     H
H       0.7967   0.6704   0.5986     H
H       0.7967   0.9282   0.5986     H
C       0.8503  0.28378  0.22276     C
C       0.8503  0.93898  0.22276     C
C       0.8519  0.01564  0.59348     C
C       0.8519  0.57784  0.59348     C
H       0.9234   0.4797   0.3414     H
H       0.9234   0.8617   0.3414     H
C       0.9297  0.39583  0.36426     C
C       0.9297  0.96843  0.36426     C
O       0.9888  0.22014  0.14508     O
O       0.9888  0.92494  0.14508     O
