data_I
_chemical_name_common  '/home/zhangsd/repos/MofS-CGCNN/ML/data/SSD/clean_cifs/ECOGEI_clean'
_cell_length_a 12.38040
_cell_length_b 12.38040
_cell_length_c 46.50500
_cell_angle_alpha 90.00000
_cell_angle_beta  90.00000
_cell_angle_gamma 90.00000
_space_group_name_H-M_alt      'P 1'


loop_
_space_group_symop_operation_xyz
  'x, y, z' 

loop_
_atom_site_label
_atom_site_fract_x
_atom_site_fract_y
_atom_site_fract_z
_atom_site_type_symbol
C       0.0044   0.3908   0.1348     C
C       0.0054   0.8547   0.5999     C
C       0.0069   0.6641    0.686     C
H        0.008   0.7504   0.2947     H
H       0.0095   0.3087   0.5133     H
C       0.0096   0.9133   0.2124     C
C       0.0116   0.4688   0.0912     C
C       0.0131   0.5881   0.0475     C
C       0.0164   0.8262    0.299     C
H        0.017   0.3032   0.3288     H
C       0.0222   0.0244   0.8295     C
C       0.0238   0.9293   0.6441     C
C       0.0244   0.0222   0.1705     C
C       0.0249   0.6567   0.8157     C
C       0.0269   0.5458   0.8172     C
C       0.0273   0.2185   0.0499     C
C       0.0312   0.5116   0.3412     C
H       0.0341   0.6958   0.7279     H
H        0.035    0.128   0.7254     H
C       0.0365   0.1331   0.8228     C
C       0.0372   0.0402   0.3111     C
N       0.0398   0.6196     0.34     N
C       0.0402   0.0372   0.6889     C
H       0.0432   0.1183   0.3145     H
N       0.0449   0.1049  0.12341     N
C       0.0458   0.4731   0.5672     C
C       0.0472   0.3507   0.5272     C
H       0.0494   0.7802   0.5467     H
N       0.0516   0.5656  0.61256     N
C       0.0599   0.6396   0.6605     C
N       0.0656   0.4484  0.36256     N
H       0.0673   0.2784   0.0117     H
C       0.0683   0.1794   0.0763     C
H       0.0702   0.3336   0.1866     H
C       0.0706   0.6859   0.7101     C
C       0.0707   0.9762   0.8559     C
N       0.0744   0.8688   0.8577     N
N        0.079   0.8854   0.2818     N
H       0.0826   0.1779    0.834     H
C       0.0867   0.9904   0.2876     C
H        0.087   0.7821   0.7942     H
C       0.0875   0.6616   0.3626     C
C       0.0881   0.4869   0.7975     C
C       0.0882   0.7061   0.7953     C
H       0.0894   0.4105   0.7976     H
H       0.0895   0.5894   0.0476     H
C       0.0968   0.2526   0.0295     C
H       0.0989   0.7393   0.3624     H
N       0.1049   0.0449  0.87659     N
C       0.1092   0.5044   0.3848     C
N       0.1113   0.8467   0.5956     N
N        0.112   0.3779   0.1359     N
N       0.1146    0.921   0.2182     N
H       0.1183   0.0432   0.6855     H
N       0.1196   0.4602     0.09     N
C       0.1199   0.8294    0.882     C
N       0.1221    0.612   0.3859     N
H       0.1252   0.2878   0.3935     H
H        0.128    0.035   0.2746     H
H       0.1282   0.7518   0.8836     H
N       0.1312   0.9256   0.6423     N
C       0.1331   0.0365   0.1772     C
C       0.1396   0.4401   0.4105     C
C       0.1428    0.327   0.4104     C
C       0.1453   0.9946   0.9001     C
N       0.1482   0.6534   0.7761     N
C       0.1493   0.5472   0.7772     C
N       0.1533   0.8887   0.9044     N
N       0.1534   0.3518   0.5261     N
C       0.1567   0.4751   0.5657     C
H        0.157   0.2117   0.9026     H
C       0.1616   0.4125   0.1126     C
C       0.1641   0.4931    0.436     C
H       0.1664   0.5702   0.4366     H
C       0.1668   0.2725   0.4357     C
H       0.1682   0.1966   0.4356     H
C       0.1706   0.8801    0.618     C
C        0.173   0.6428   0.6604     C
C       0.1738   0.9836    0.201     C
N       0.1773   0.6888  0.71064     N
H       0.1778   0.7157   0.1897     H
H       0.1779   0.0826    0.166     H
C       0.1794   0.0683   0.9237     C
C         0.18   0.1803   0.0798     C
C       0.1803     0.18   0.9202     C
Zn     0.18518  0.81482     0.25    Zn
C       0.1859   0.4294   0.4601     C
N       0.1888   0.3227  0.46064     N
H       0.1913   0.5095   0.7633     H
H       0.1958   0.4659   0.4779     H
H       0.1966   0.1682   0.5644     H
H       0.1968    0.517   0.5788     H
N       0.2048   0.2531  0.03223     N
C       0.2061   0.4118   0.5453     C
H       0.2117    0.157   0.0974     H
H       0.2122   0.6252   0.6435     H
H       0.2157   0.3222   0.9397     H
C       0.2168   0.2472   0.9426     C
H       0.2179    0.913   0.7058     H
C       0.2185   0.0273   0.9501     C
H       0.2198   0.9506   0.9533     H
H       0.2216   0.5673   0.2617     H
C       0.2275   0.6668   0.6857     C
H       0.2393   0.4011   0.1124     H
Zn     0.24361  0.24361      0.5    Zn
N       0.2469   0.7048  0.28223     N
C       0.2472   0.2168   0.0574     C
C       0.2474   0.5968   0.2795     C
H       0.2482   0.8718   0.6164     H
H       0.2496    0.992   0.2053     H
H       0.2504    0.492   0.0447     H
H       0.2518   0.3718   0.6336     H
C       0.2526   0.0968   0.9705     C
C       0.2528   0.7168   0.1926     C
N       0.2531   0.2048  0.96777     N
Zn     0.25639  0.74361     0.75    Zn
H       0.2607   0.9011   0.1376     H
C       0.2725   0.1668   0.5643     C
H       0.2784   0.0673   0.9883     H
H       0.2802   0.4506   0.2967     H
C       0.2815   0.5273   0.2999     C
H       0.2821    0.413   0.5442     H
C       0.2832   0.7472   0.3074     C
H       0.2843   0.8222   0.3103     H
H       0.2878   0.1252   0.6065     H
H       0.2883    0.657   0.1526     H
C       0.2939   0.9118   0.7047     C
N       0.2952   0.7531  0.21777     N
H       0.3032    0.017   0.6712     H
H       0.3034   0.6682   0.6856     H
H       0.3042   0.9659   0.7721     H
H       0.3087   0.0095   0.4867     H
N       0.3112   0.8227  0.78936     N
C       0.3141   0.9294   0.7899     C
Zn     0.31482  0.31482      0.0    Zn
C       0.3197     0.68   0.3298     C
C         0.32   0.6803   0.1702     C
C       0.3206   0.5683   0.3263     C
H       0.3221   0.5826    0.084     H
H       0.3222   0.2157   0.0603     H
N       0.3227   0.1888  0.53936     N
C       0.3262   0.4836    0.049     C
C        0.327   0.1428   0.5896     C
C       0.3294   0.3801    0.632     C
H       0.3318   0.6966   0.8144     H
C       0.3332   0.7725   0.8143     C
H       0.3336   0.0702   0.8134     H
C       0.3359   0.9931    0.814     C
C       0.3384   0.9125   0.1374     C
H        0.343   0.7117   0.3474     H
C       0.3433   0.9751   0.6843     C
N       0.3466   0.8518   0.7239     N
N       0.3467   0.3887   0.3456     N
C       0.3507   0.0472   0.4728     C
N       0.3518   0.1534   0.4739     N
C       0.3547   0.4946   0.3499     C
C       0.3572    0.827   0.8396     C
C       0.3604   0.9401   0.8395     C
C       0.3669   0.5365   0.0728     C
N       0.3688   0.4256   0.6077     N
H       0.3718   0.2518   0.3664     H
H        0.372    0.535   0.9754     H
H       0.3748   0.7878   0.8565     H
N       0.3779    0.112   0.8641     N
C       0.3801   0.3294    0.368     C
N       0.3804   0.9602     0.16     N
H       0.3817   0.5432   0.5645     H
N       0.3854    0.421   0.0318     N
N        0.388   0.8779   0.1141     N
N       0.3887   0.3467   0.6544     N
C       0.3908   0.0044   0.8652     C
N       0.3951   0.5449  0.37341     N
H       0.4011   0.2393   0.8876     H
C       0.4032   0.7526   0.2205     C
H       0.4105   0.0894   0.2024     H
H       0.4106   0.9105   0.4524     H
C       0.4118   0.2061   0.4547     C
C       0.4119   0.9869   0.4525     C
C       0.4125   0.1616   0.8874     C
H        0.413   0.2821   0.4558     H
C       0.4133   0.4904   0.9624     C
H       0.4174   0.6779    0.416     H
N        0.421   0.3854   0.9682     N
N       0.4256   0.3688   0.3923     N
C       0.4293   0.4762   0.3941     C
C       0.4294   0.1859   0.5399     C
H       0.4298   0.8336   0.0634     H
C       0.4317   0.6794   0.1737     C
H       0.4327   0.7784   0.2383     H
N       0.4344   0.9484  0.88744     N
C       0.4401   0.1396   0.5895     C
N       0.4484   0.0656  0.63744     N
H       0.4506   0.2802   0.7033     H
C       0.4528   0.8507   0.7228     C
C       0.4542   0.9731   0.6828     C
N       0.4551   0.6049  0.12659     N
H       0.4568   0.6183   0.9355     H
C       0.4598   0.5372   0.5611     C
N       0.4602   0.1196     0.91     N
C       0.4628   0.5402   0.9389     C
C       0.4635   0.6331   0.4272     C
H        0.465    0.628   0.5246     H
H       0.4659   0.1958   0.5221     H
C       0.4688   0.0116   0.9088     C
C       0.4727   0.7185   0.2001     C
C       0.4731   0.0458   0.4328     C
C       0.4751   0.1567   0.4343     C
C       0.4756   0.5222   0.0795     C
C       0.4762   0.4293   0.6059     C
C       0.4778   0.5244   0.4205     C
H        0.483   0.8032   0.9212     H
C       0.4836   0.3262    0.951     C
C       0.4869   0.0881   0.2025     C
C       0.4884   0.9688   0.1588     C
C       0.4904   0.4133   0.0376     C
H       0.4905   0.8087   0.7367     H
H        0.492   0.2504   0.9553     H
C       0.4931   0.1641    0.564     C
C       0.4946   0.3547   0.6501     C
C       0.4956   0.8908   0.1152     C
C       0.5044   0.1092   0.6152     C
C       0.5054   0.6453   0.1501     C
C       0.5069   0.8359    0.064     C
H        0.508   0.7496   0.4553     H
H       0.5095   0.1913   0.2367     H
C       0.5096   0.5867   0.5376     C
C       0.5116   0.0312   0.6588     C
C       0.5131   0.9119   0.7025     C
C       0.5164   0.6738    0.451     C
H        0.517   0.1968   0.4212     H
C       0.5222   0.4756   0.9205     C
C       0.5238   0.5707   0.1059     C
C       0.5244   0.4778   0.5795     C
C       0.5249   0.8433   0.9343     C
C       0.5269   0.9542   0.9328     C
C       0.5273   0.2815   0.7001     C
C       0.5312   0.9884   0.4088     C
H       0.5341   0.8042   0.0221     H
H        0.535    0.372   0.0246     H
C       0.5365   0.3669   0.9272     C
C       0.5372   0.4598   0.4389     C
N       0.5398   0.8804     0.41     N
C       0.5402   0.4628   0.0611     C
H       0.5432   0.3817   0.4355     H
N       0.5449   0.3951  0.62659     N
C       0.5458   0.0269   0.1828     C
C       0.5472   0.1493   0.2228     C
H       0.5494   0.7198   0.2033     H
N       0.5516   0.9344  0.13744     N
C       0.5599   0.8604   0.0895     C
N       0.5656   0.0516  0.38744     N
H       0.5673   0.2216   0.7383     H
C       0.5683   0.3206   0.6737     C
H       0.5702   0.1664   0.5634     H
C       0.5706   0.8141   0.0399     C
C       0.5707   0.5238   0.8941     C
N       0.5744   0.6312   0.8923     N
N        0.579   0.6146   0.4682     N
H       0.5826   0.3221    0.916     H
C       0.5867   0.5096   0.4624     C
H        0.587   0.7179   0.9558     H
C       0.5875   0.8384   0.3874     C
C       0.5881   0.0131   0.9525     C
C       0.5882   0.7939   0.9547     C
H       0.5894   0.0895   0.9524     H
H       0.5895   0.9106   0.7024     H
C       0.5968   0.2474   0.7205     C
H       0.5989   0.7607   0.3876     H
N       0.6049   0.4551  0.87341     N
C       0.6092   0.9956   0.3652     C
N       0.6113   0.6533   0.1544     N
N        0.612   0.1221   0.6141     N
N       0.6146    0.579   0.5318     N
H       0.6183   0.4568   0.0645     H
N       0.6196   0.0398     0.66     N
C       0.6199   0.6706    0.868     C
N       0.6221    0.888   0.3641     N
H       0.6252   0.2122   0.3565     H
H        0.628    0.465   0.4754     H
H       0.6282   0.7482   0.8664     H
N       0.6312   0.5744   0.1077     N
C       0.6331   0.4635   0.5728     C
C       0.6396   0.0599   0.3395     C
C       0.6428    0.173   0.3396     C
C       0.6453   0.5054   0.8499     C
N       0.6482   0.8466   0.9739     N
C       0.6493   0.9528   0.9728     C
N       0.6533   0.6113   0.8456     N
N       0.6534   0.1482   0.2239     N
C       0.6567   0.0249   0.1843     C
H        0.657   0.2883   0.8474     H
C       0.6616   0.0875   0.6374     C
C       0.6641   0.0069    0.314     C
H       0.6664   0.9298   0.3134     H
C       0.6668   0.2275   0.3143     C
H       0.6682   0.3034   0.3144     H
C       0.6706   0.6199    0.132     C
C        0.673   0.8572   0.0896     C
C       0.6738   0.5164    0.549     C
N       0.6773   0.8112  0.03936     N
H       0.6778   0.7843   0.5603     H
H       0.6779   0.4174    0.584     H
C       0.6794   0.4317   0.8263     C
C         0.68   0.3197   0.6702     C
C       0.6803     0.32   0.8298     C
Zn     0.68518  0.68518      0.5    Zn
C       0.6859   0.0706   0.2899     C
N       0.6888   0.1773  0.28936     N
H       0.6913   0.9905   0.9867     H
H       0.6958   0.0341   0.2721     H
H       0.6966   0.3318   0.1856     H
H       0.6968    0.983   0.1712     H
N       0.7048   0.2469  0.71777     N
C       0.7061   0.0882   0.2047     C
H       0.7117    0.343   0.6526     H
H       0.7122   0.8748   0.1065     H
H       0.7157   0.1778   0.8103     H
C       0.7168   0.2528   0.8074     C
H       0.7179    0.587   0.0442     H
C       0.7185   0.4727   0.7999     C
H       0.7198   0.5494   0.7967     H
H       0.7216   0.9327   0.4883     H
C       0.7275   0.8332   0.0643     C
H       0.7393   0.0989   0.6376     H
Zn     0.74361  0.25639     0.25    Zn
N       0.7469   0.7952  0.46777     N
C       0.7472   0.2832   0.6926     C
C       0.7474   0.9032   0.4705     C
H       0.7482   0.6282   0.1336     H
H       0.7496    0.508   0.5447     H
H       0.7504    0.008   0.7053     H
H       0.7518   0.1282   0.1164     H
C       0.7526   0.4032   0.7795     C
C       0.7528   0.7832   0.5574     C
N       0.7531   0.2952  0.78223     N
Zn     0.75639  0.75639      0.0    Zn
H       0.7607   0.5989   0.6124     H
C       0.7725   0.3332   0.1857     C
H       0.7784   0.4327   0.7617     H
H       0.7802   0.0494   0.4533     H
C       0.7815   0.9727   0.4501     C
H       0.7821    0.087   0.2058     H
C       0.7832   0.7528   0.4426     C
H       0.7843   0.6778   0.4397     H
H       0.7878   0.3748   0.1435     H
H       0.7883    0.843   0.5974     H
C       0.7939   0.5882   0.0453     C
N       0.7952   0.7469  0.53223     N
H       0.8032    0.483   0.0788     H
H       0.8034   0.8318   0.0644     H
H       0.8042   0.5341   0.9779     H
H       0.8087   0.4905   0.2633     H
N       0.8112   0.6773  0.96064     N
C       0.8141   0.5706   0.9601     C
Zn     0.81482  0.18518     0.75    Zn
C       0.8197     0.82   0.4202     C
C         0.82   0.8197   0.5798     C
C       0.8206   0.9317   0.4237     C
H       0.8221   0.9174    0.666     H
H       0.8222   0.2843   0.6897     H
N       0.8227   0.3112  0.21064     N
C       0.8262   0.0164    0.701     C
C        0.827   0.3572   0.1604     C
C       0.8294   0.1199    0.118     C
H       0.8318   0.8034   0.9356     H
C       0.8332   0.7275   0.9357     C
H       0.8336   0.4298   0.9366     H
C       0.8359   0.5069    0.936     C
C       0.8384   0.5875   0.6126     C
H        0.843   0.7883   0.4026     H
C       0.8433   0.5249   0.0657     C
N       0.8466   0.6482   0.0261     N
N       0.8467   0.1113   0.4044     N
C       0.8507   0.4528   0.2772     C
N       0.8518   0.3466   0.2761     N
C       0.8547   0.0054   0.4001     C
C       0.8572    0.673   0.9104     C
C       0.8604   0.5599   0.9105     C
C       0.8669   0.9635   0.6772     C
N       0.8688   0.0744   0.1423     N
H       0.8718   0.2482   0.3836     H
H        0.872    0.965   0.7746     H
H       0.8748   0.7122   0.8935     H
N       0.8779    0.388   0.8859     N
C       0.8801   0.1706    0.382     C
N       0.8804   0.5398     0.59     N
H       0.8817   0.9568   0.1855     H
N       0.8854    0.079   0.7182     N
N        0.888   0.6221   0.6359     N
N       0.8887   0.1533   0.0956     N
C       0.8908   0.4956   0.8848     C
N       0.8951   0.9551  0.37659     N
H       0.9011   0.2607   0.8624     H
C       0.9032   0.7474   0.5295     C
H       0.9105   0.4106   0.5476     H
H       0.9106   0.5895   0.2976     H
C       0.9118   0.2939   0.2953     C
C       0.9119   0.5131   0.2975     C
C       0.9125   0.3384   0.8626     C
H        0.913   0.2179   0.2942     H
C       0.9133   0.0096   0.7876     C
H       0.9174   0.8221    0.334     H
N        0.921   0.1146   0.7818     N
N       0.9256   0.1312   0.3577     N
C       0.9293   0.0238   0.3559     C
C       0.9294   0.3141   0.2101     C
H       0.9298   0.6664   0.6866     H
C       0.9317   0.8206   0.5763     C
H       0.9327   0.7216   0.5117     H
N       0.9344   0.5516  0.86256     N
C       0.9401   0.3604   0.1605     C
N       0.9484   0.4344  0.11256     N
H       0.9506   0.2198   0.0467     H
C       0.9528   0.6493   0.0272     C
C       0.9542   0.5269   0.0672     C
N       0.9551   0.8951  0.62341     N
H       0.9568   0.8817   0.8145     H
C       0.9598   0.9628   0.1889     C
N       0.9602   0.3804     0.84     N
C       0.9628   0.9598   0.8111     C
C       0.9635   0.8669   0.3228     C
H        0.965    0.872   0.2254     H
H       0.9659   0.3042   0.2279     H
C       0.9688   0.4884   0.8412     C
C       0.9727   0.7815   0.5499     C
C       0.9731   0.4542   0.3172     C
C       0.9751   0.3433   0.3157     C
C       0.9756   0.9778   0.6705     C
C       0.9762   0.0707   0.1441     C
C       0.9778   0.9756   0.3295     C
H        0.983   0.6968   0.8288     H
C       0.9836   0.1738    0.799     C
C       0.9869   0.4119   0.5475     C
C       0.9884   0.5312   0.5912     C
C       0.9904   0.0867   0.7124     C
H       0.9905   0.6913   0.0133     H
H        0.992   0.2496   0.7947     H
C       0.9931   0.3359    0.186     C
C       0.9946   0.1453   0.0999     C
C       0.9956   0.6092   0.6348     C
