data_I
_chemical_name_common  '/home/zhangsd/repos/MofS-CGCNN/ML/data/SSD/clean_cifs/EDAPIK_clean_h'
_cell_length_a  8.99500
_cell_length_b 23.48500
_cell_length_c 23.48500
_cell_angle_alpha 90.00000
_cell_angle_beta  90.00000
_cell_angle_gamma 90.00000
_space_group_name_H-M_alt      'P 1'


loop_
_space_group_symop_operation_xyz
  'x, y, z' 

loop_
_atom_site_label
_atom_site_fract_x
_atom_site_fract_y
_atom_site_fract_z
_atom_site_type_symbol
Cu         0.0  0.32336  0.67664    Cu
C          0.0  0.35881  0.35881     C
C          0.0  0.64119  0.64119     C
Cu         0.0  0.67664  0.32336    Cu
H      0.01755  0.15219  0.06546     H
H      0.01755  0.84781  0.93454     H
H      0.03795  0.21674  0.60368     H
H      0.03795  0.78326  0.39632     H
O        0.044  0.35917   0.4587     O
O        0.044  0.64083   0.5413     O
H      0.04657  0.40635  0.27551     H
H      0.04657  0.59365  0.72449     H
C       0.0532  0.34649  0.55599     C
C       0.0532  0.65351  0.44401     C
C        0.073  0.36702  0.30209     C
C        0.073  0.63298  0.69791     C
H      0.07342  0.44281  0.65183     H
H      0.07342  0.55719  0.34817     H
C       0.1061   0.2092   0.6439     C
N       0.1061  0.24804   0.6877     N
N       0.1061  0.75196   0.3123     N
C       0.1061   0.7908   0.3561     C
C       0.1158  0.36402  0.40768     C
C       0.1158  0.63598  0.59232     C
N       0.1211  0.33843  0.60624     N
N       0.1211  0.66157  0.39376     N
C       0.1267  0.35255  0.50526     C
C       0.1267  0.64745  0.49474     C
C       0.1434   0.1542  0.06011     C
C       0.1434   0.8458  0.93989     C
H      0.14429  0.14075  0.96696     H
H      0.14429  0.85925  0.03304     H
H      0.16148  0.39093  0.20372     H
H      0.16148  0.60907  0.79628     H
O       0.1711  0.31727  0.29356     O
O       0.1711  0.68273  0.70644     O
H      0.17264  0.27069  0.76954     H
H      0.17264  0.72931  0.23046     H
C       0.1769   0.2377  0.73397     C
C       0.1769   0.7623  0.26603     C
H      0.18092  0.17546   0.1494     H
H      0.18092  0.82454   0.8506     H
C         0.19   0.1607   0.6492     C
C         0.19   0.8393   0.3508     C
H      0.19636  0.12907  0.61246     H
H      0.19636  0.87093  0.38754     H
C       0.2138   0.1469  0.00708     C
C       0.2138   0.8531  0.99292     C
C       0.2311  0.35055  0.19983     C
C       0.2311  0.64945  0.80017     C
C       0.2328   0.1641  0.10659     C
C       0.2328   0.8359  0.89341     C
H      0.23832  0.37077  0.39725     H
H      0.23832  0.62923  0.60275     H
C       0.2399  0.31391  0.24158     C
C       0.2399  0.68609  0.75842     C
C       0.2601  0.18609  0.74158     C
C       0.2601  0.81391  0.25842     C
H      0.26168  0.12923  0.89725     H
H      0.26168  0.87077  0.10275     H
C       0.2672   0.3359  0.60659     C
C       0.2672   0.6641  0.39341     C
C       0.2689  0.14945  0.69983     C
C       0.2689  0.85055  0.30017     C
C       0.2862   0.3531  0.50708     C
C       0.2862   0.6469  0.49292     C
H      0.30364  0.37093  0.11246     H
H      0.30364  0.62907  0.88754     H
C         0.31   0.3393   0.1492     C
C         0.31   0.6607   0.8508     C
C       0.3231   0.2623  0.23397     C
C       0.3231   0.7377  0.76603     C
H      0.32736  0.22931  0.26954     H
H      0.32736  0.77069  0.73046     H
O       0.3289  0.18273  0.79356     O
O       0.3289  0.81727  0.20644     O
H      0.33852  0.10907  0.70372     H
H      0.33852  0.89093  0.29628     H
C       0.3566   0.3458  0.56011     C
C       0.3566   0.6542  0.43989     C
C       0.3733  0.14745  0.00526     C
C       0.3733  0.85255  0.99474     C
N       0.3789  0.16157  0.10624     N
N       0.3789  0.83843  0.89376     N
C       0.3842  0.13598  0.90768     C
C       0.3842  0.86402  0.09232     C
N       0.3939  0.25196   0.1877     N
C       0.3939   0.2908   0.1439     C
C       0.3939   0.7092   0.8561     C
N       0.3939  0.74804   0.8123     N
H      0.42658  0.05719  0.15183     H
H      0.42658  0.94281  0.84817     H
C        0.427  0.13298  0.80209     C
C        0.427  0.86702  0.19791     C
C       0.4468  0.15351  0.05599     C
C       0.4468  0.84649  0.94401     C
H      0.45343  0.09365  0.77551     H
H      0.45343  0.90635  0.22449     H
O        0.456  0.14083   0.9587     O
O        0.456  0.85917   0.0413     O
H      0.46205  0.28326  0.10368     H
H      0.46205  0.71674  0.89632     H
C          0.5  0.14119  0.85881     C
Cu         0.5  0.17664  0.17664    Cu
Cu         0.5  0.82336  0.82336    Cu
C          0.5  0.85881  0.14119     C
H      0.51755  0.43454  0.65219     H
H      0.51755  0.56546  0.34781     H
H      0.53795  0.10368  0.28326     H
H      0.53795  0.89632  0.71674     H
O        0.544   0.0413  0.85917     O
O        0.544   0.9587  0.14083     O
H      0.54657  0.22449  0.90635     H
H      0.54657  0.77551  0.09365     H
C       0.5532  0.05599  0.15351     C
C       0.5532  0.94401  0.84649     C
C        0.573  0.19791  0.86702     C
C        0.573  0.80209  0.13298     C
H      0.57342  0.15183  0.05719     H
H      0.57342  0.84817  0.94281     H
C       0.6061   0.1439   0.2908     C
N       0.6061   0.1877  0.25196     N
N       0.6061   0.8123  0.74804     N
C       0.6061   0.8561   0.7092     C
C       0.6158  0.09232  0.86402     C
C       0.6158  0.90768  0.13598     C
N       0.6211  0.10624  0.16157     N
N       0.6211  0.89376  0.83843     N
C       0.6267  0.00526  0.14745     C
C       0.6267  0.99474  0.85255     C
C       0.6434  0.43989   0.6542     C
C       0.6434  0.56011   0.3458     C
H      0.64429  0.46696  0.35925     H
H      0.64429  0.53304  0.64075     H
H      0.66148  0.29628  0.89093     H
H      0.66148  0.70372  0.10907     H
O       0.6711  0.20644  0.81727     O
O       0.6711  0.79356  0.18273     O
H      0.67264  0.26954  0.22931     H
H      0.67264  0.73046  0.77069     H
C       0.6769  0.23397   0.2623     C
C       0.6769  0.76603   0.7377     C
H      0.68092   0.3506  0.67546     H
H      0.68092   0.6494  0.32454     H
C         0.69   0.1492   0.3393     C
C         0.69   0.8508   0.6607     C
H      0.69636  0.11246  0.37093     H
H      0.69636  0.88754  0.62907     H
C       0.7138  0.49292   0.6469     C
C       0.7138  0.50708   0.3531     C
C       0.7311  0.30017  0.85055     C
C       0.7311  0.69983  0.14945     C
C       0.7328  0.39341   0.6641     C
C       0.7328  0.60659   0.3359     C
H      0.73832  0.10275  0.87077     H
H      0.73832  0.89725  0.12923     H
C       0.7399  0.25842  0.81391     C
C       0.7399  0.74158  0.18609     C
C       0.7601  0.24158  0.31391     C
C       0.7601  0.75842  0.68609     C
H      0.76168  0.39725  0.37077     H
H      0.76168  0.60275  0.62923     H
C       0.7672  0.10659   0.1641     C
C       0.7672  0.89341   0.8359     C
C       0.7689  0.19983  0.35055     C
C       0.7689  0.80017  0.64945     C
C       0.7862  0.00708   0.1469     C
C       0.7862  0.99292   0.8531     C
H      0.80364  0.38754  0.87093     H
H      0.80364  0.61246  0.12907     H
C         0.81   0.3508   0.8393     C
C         0.81   0.6492   0.1607     C
H      0.81908   0.1494  0.17546     H
H      0.81908   0.8506  0.82454     H
C       0.8231  0.26603   0.7623     C
C       0.8231  0.73397   0.2377     C
H      0.82736  0.23046  0.72931     H
H      0.82736  0.76954  0.27069     H
O       0.8289  0.29356  0.31727     O
O       0.8289  0.70644  0.68273     O
H      0.83852  0.20372  0.39093     H
H      0.83852  0.79628  0.60907     H
H      0.85571  0.03304  0.85925     H
H      0.85571  0.96696  0.14075     H
C       0.8566  0.06011   0.1542     C
C       0.8566  0.93989   0.8458     C
C       0.8733  0.49474  0.64745     C
C       0.8733  0.50526  0.35255     C
N       0.8789  0.39376  0.66157     N
N       0.8789  0.60624  0.33843     N
C       0.8842  0.40768  0.36402     C
C       0.8842  0.59232  0.63598     C
N       0.8939   0.3123  0.75196     N
C       0.8939   0.3561   0.7908     C
C       0.8939   0.6439   0.2092     C
N       0.8939   0.6877  0.24804     N
H      0.92658  0.34817  0.55719     H
H      0.92658  0.65183  0.44281     H
C        0.927  0.30209  0.36702     C
C        0.927  0.69791  0.63298     C
C       0.9468  0.44401  0.65351     C
C       0.9468  0.55599  0.34649     C
H      0.95343  0.27551  0.40635     H
H      0.95343  0.72449  0.59365     H
O        0.956   0.4587  0.35917     O
O        0.956   0.5413  0.64083     O
H      0.96205  0.39632  0.78326     H
H      0.96205  0.60368  0.21674     H
H      0.98245  0.06546  0.15219     H
H      0.98245  0.93454  0.84781     H
