data_I
_chemical_name_common  '/home/zhangsd/repos/MofS-CGCNN/ML/data/SSD/clean_cifs/EHAFOK_clean'
_cell_length_a 10.88600
_cell_length_b 11.47370
_cell_length_c 13.47340
_cell_angle_alpha 69.54400
_cell_angle_beta  80.14900
_cell_angle_gamma 62.65200
_space_group_name_H-M_alt      'P 1'


loop_
_space_group_symop_operation_xyz
  'x, y, z' 

loop_
_atom_site_label
_atom_site_fract_x
_atom_site_fract_y
_atom_site_fract_z
_atom_site_type_symbol
U          0.0      0.5      0.5     U
C       0.0093    0.337   0.8449     C
C       0.0323   0.2578     0.78     C
C       0.0814   0.7235   0.2828     C
H       0.0979   0.3616   0.9507     H
O       0.1001   0.6443   0.3774     O
C       0.1166   0.3116   0.9041     C
C       0.1282   0.5454   0.1504     C
O       0.1417   0.2488   0.5228     O
O       0.1419   0.4705   0.0944     O
O       0.1472   0.7925   0.2389     O
C       0.1674   0.1555   0.7744     C
H       0.1834   0.0991   0.7336     H
O       0.2257   0.5158   0.2052     O
C       0.2511   0.2139   0.8961     C
C       0.2559   0.2549   0.4937     C
O       0.2609   0.3683    0.465     O
C       0.2774   0.1355   0.8271     C
H       0.2975   0.9968   0.5813     H
O       0.3124   0.2133   0.0545     O
C       0.3561   0.1983   0.9632     C
U      0.36829  0.29747  0.16664     U
C       0.3795    0.998   0.5485     C
Pr     0.38025  0.78428  0.22531    Pr
C       0.3831   0.1245   0.4959     C
C       0.4184   0.0292   0.8082     C
O        0.427   0.9089   0.8274     O
O       0.4284   0.6962   0.5697     O
O       0.4756    0.175   0.9315     O
C       0.4777   0.7443   0.6144     C
O       0.4849   0.9394   0.2252     O
O        0.492    0.309   0.2872     O
C       0.4936   0.8739   0.5538     C
C       0.5064   0.1261   0.4462     C
O        0.508    0.691   0.7128     O
O       0.5151   0.0606   0.7748     O
C       0.5223   0.2557   0.3856     C
O       0.5244    0.825   0.0685     O
O       0.5716   0.3038   0.4303     O
O        0.573   0.0911   0.1726     O
C       0.5816   0.9708   0.1918     C
C       0.6169   0.8755   0.5041     C
Pr     0.61975  0.21572  0.77469    Pr
C       0.6205    0.002   0.4515     C
U      0.63171  0.70253  0.83336     U
C       0.6439   0.8017   0.0368     C
O       0.6876   0.7867   0.9455     O
H       0.7025   0.0032   0.4187     H
C       0.7226   0.8645   0.1729     C
O       0.7391   0.6317    0.535     O
C       0.7441   0.7451   0.5063     C
C       0.7489   0.7861   0.1039     C
O       0.7743   0.4842   0.7948     O
H       0.8166   0.9009   0.2664     H
C       0.8326   0.8445   0.2256     C
O       0.8528   0.2075   0.7611     O
O       0.8581   0.5295   0.9056     O
O       0.8583   0.7512   0.4772     O
C       0.8718   0.4546   0.8496     C
C       0.8834   0.6884   0.0959     C
O       0.8999   0.3557   0.6226     O
H       0.9021   0.6384   0.0493     H
C       0.9186   0.2765   0.7172     C
C       0.9677   0.7422     0.22     C
C       0.9907    0.663   0.1551     C
