data_I
_chemical_name_common  '/home/zhangsd/repos/MofS-CGCNN/ML/data/SSD/clean_cifs/EJETAQ_clean'
_cell_length_a 25.72300
_cell_length_b 21.97400
_cell_length_c 31.24300
_cell_angle_alpha 90.00000
_cell_angle_beta  107.02400
_cell_angle_gamma 90.00000
_space_group_name_H-M_alt      'P 1'


loop_
_space_group_symop_operation_xyz
  'x, y, z' 

loop_
_atom_site_label
_atom_site_fract_x
_atom_site_fract_y
_atom_site_fract_z
_atom_site_type_symbol
Na     0.00265  0.01441  0.74848    Na
O       0.0122   0.0577  0.19889     O
O       0.0141   0.0065  0.06528     O
O        0.019   0.9929  0.56512     O
Eu      0.0204  0.05365  0.38077    Eu
O       0.0265   0.9389  0.70191     O
O       0.0308   0.0992   0.7058     O
O        0.034   0.0402  0.62954     O
Eu     0.03542  0.95711  0.88499    Eu
O       0.0395   0.9657  0.13086     O
C       0.0396   0.0369   0.5914     C
C       0.0444   0.9704   0.0935     C
C       0.0453   0.0934   0.1906     C
O       0.0467   0.1025   0.1519     O
O        0.063   0.9918   0.3357     O
O       0.0642   0.1332   0.3564     O
C       0.0683   0.9166   0.6953     C
O       0.0717   0.0257   0.8397     O
C       0.0717   0.0844   0.5743     C
O       0.0723   0.0676   0.7171     O
C       0.0736   0.0836   0.5312     C
O       0.0742   0.9134   0.6577     O
O        0.077   0.0622  0.90605     O
C       0.0796   0.1242   0.2727     C
C       0.0841   0.1283    0.228     C
C       0.0843    0.068   0.8673     C
O       0.0872   0.9694  0.40552     O
C       0.0873   0.9345   0.0802     C
O       0.0897    0.081  0.44721     O
C       0.0907   0.9401   0.0356     C
C       0.0913   0.9623   0.3675     C
O       0.0936   0.8898    0.863     O
C       0.0988   0.1301   0.6082     C
C       0.1032   0.1282   0.5177     C
C       0.1037   0.1339   0.8093     C
C       0.1053   0.1267   0.8544     C
C       0.1059   0.8964   0.7777     C
C       0.1088   0.1258   0.4704     C
O       0.1104   0.9517  0.95163     O
C       0.1131   0.1494   0.3514     C
C        0.114    0.893   0.7352     C
N       0.1149   0.1915   0.7491     N
C       0.1155   0.1567   0.3046     C
C       0.1225   0.1671   0.2197     C
C       0.1232   0.8993   0.1117     C
C       0.1233   0.1879   0.7955     C
C       0.1267   0.1734   0.8872     C
C       0.1296   0.1727   0.5895     C
C       0.1312   0.9081   0.3164     C
C       0.1313   0.9079   0.0246     C
O       0.1318   0.1707   0.4587     O
C       0.1322   0.1735   0.5469     C
C       0.1332   0.9187     0.36     C
C       0.1351   0.9115   0.9774     C
N       0.1358    0.204   0.6838     N
C       0.1391   0.8796   0.8596     C
C       0.1435   0.2359   0.8268     C
C       0.1457   0.2265   0.8707     C
O       0.1465   0.1734   0.3842     O
C       0.1467   0.2212   0.7276     C
C       0.1492   0.8753   0.8129     C
C       0.1547    0.196   0.2987     C
C       0.1582   0.1994   0.2531     C
C       0.1602   0.8718   0.7275     C
N       0.1609   0.2196     0.62     N
C       0.1635   0.8672   0.0997     C
N       0.1644   0.8642   0.2602     N
C       0.1652   0.2768   0.9037     C
C       0.1677   0.8709   0.0552     C
C       0.1686   0.2323   0.6626     C
O       0.1702   0.8746   0.9681     O
C       0.1717   0.8712   0.3064     C
O       0.1722    0.268   0.9444     O
C       0.1751   0.8946   0.3952     C
O       0.1758   0.3284    0.891     O
N       0.1801   0.8442   0.1947     N
O        0.182    0.871   0.8936     O
N       0.1849   0.2609   0.7495     N
Eu     0.19273  0.37477  0.96462    Eu
N       0.1939   0.2364   0.2402     N
C       0.1961   0.8362   0.2388     C
C       0.1973   0.8527   0.8081     C
O       0.1986   0.3147   0.0832     O
C       0.2022    0.848    0.765     C
N       0.2027   0.8284   0.1285     N
N       0.2071   0.2733   0.6789     N
C       0.2118   0.8188    0.172     C
C        0.212   0.8449   0.3422     C
C       0.2128    0.283   0.7229     C
C       0.2139   0.8597   0.3873     C
C        0.235   0.2732   0.2643     C
N       0.2391   0.8017   0.2626     N
C       0.2394   0.3371   0.0769     C
O       0.2433   0.3445   0.0365     O
N       0.2447    0.282    0.309     N
N       0.2477   0.8238   0.7531     N
N       0.2523   0.3238   0.7469     N
N       0.2553    0.782    0.191     N
O       0.2567   0.8445   0.4635     O
C       0.2606   0.8371   0.4231     C
N       0.2609   0.3017   0.2374     N
C        0.265   0.7732   0.2357     C
C       0.2861   0.3597   0.1127     C
C       0.2872    0.783   0.7771     C
C        0.288   0.3449   0.1578     C
C       0.2882   0.3188    0.328     C
N       0.2929   0.7733   0.8211     N
N       0.2973   0.3284   0.3715     N
C       0.2978    0.348    0.735     C
O       0.3014   0.8147   0.4168     O
C       0.3027   0.3527   0.6919     C
C       0.3039   0.3362   0.2612     C
N       0.3061   0.7364   0.2598     N
Eu     0.30727  0.87477  0.53538    Eu
N       0.3151   0.7609   0.7505     N
O        0.318    0.371   0.6064     O
N       0.3199   0.3442   0.3053     N
O       0.3242   0.8284    0.609     O
C       0.3249   0.3946   0.1048     C
O       0.3278    0.768   0.5556     O
C       0.3283   0.3712   0.1936     C
O       0.3298   0.3746   0.5319     O
C       0.3314   0.7323   0.8374     C
C       0.3323   0.3709   0.4448     C
C       0.3348   0.7768   0.5963     C
N       0.3356   0.3642   0.2398     N
C       0.3365   0.3672   0.4003     C
N       0.3391   0.7196     0.88     N
C       0.3398   0.3718   0.7725     C
C       0.3418   0.6994   0.2469     C
C       0.3453    0.696   0.2013     C
C       0.3508   0.3753   0.6871     C
C       0.3533   0.7212   0.7724     C
O       0.3535   0.6734   0.1158     O
C       0.3543   0.7265   0.6293     C
C       0.3565   0.7359   0.6732     C
C       0.3609   0.3796   0.6404     C
N       0.3642    0.704   0.8162     N
C       0.3649   0.4115   0.5226     C
C       0.3668   0.4187     0.14     C
C       0.3678   0.6735   0.9531     C
O       0.3682   0.6707   0.0413     O
C       0.3687   0.4079   0.4754     C
C       0.3688   0.4081   0.1836     C
C       0.3704   0.6727   0.9105     C
C       0.3733   0.6734   0.6128     C
C       0.3767   0.6879   0.7045     C
C       0.3768   0.3993   0.3883     C
C       0.3775   0.6671   0.2803     C
C       0.3845   0.6567   0.1954     C
N       0.3851   0.6915   0.7509     N
C        0.386    0.393   0.7648     C
C       0.3869   0.6494   0.1486     C
O       0.3896   0.4517  0.54837     O
C       0.3912   0.6258   0.0296     C
C       0.3941   0.3964   0.7223     C
C       0.3947   0.6267   0.6456     C
C       0.3963   0.6339   0.6907     C
C       0.3968   0.6282   0.9823     C
C       0.4012   0.6301   0.8918     C
O       0.4064   0.3898    0.637     O
C       0.4087   0.4623   0.1325     C
C       0.4093   0.4401   0.4644     C
O       0.4103    0.581  0.05279     O
C       0.4127   0.4345   0.4198     C
O       0.4128   0.4694  0.09448     O
C       0.4157    0.568   0.6327     C
C       0.4159   0.6283    0.272     C
C       0.4204   0.6242   0.2273     C
O        0.423   0.5622  0.59395     O
O       0.4258   0.4134   0.8423     O
C       0.4264   0.5836   0.9688     C
O       0.4277   0.5676   0.7829     O
O       0.4283   0.5257   0.6603     O
C       0.4283   0.5844   0.9257     C
C       0.4317   0.4166   0.8047     C
O       0.4358   0.6332   0.1436     O
O        0.437   0.4918   0.1643     O
O       0.4533   0.6025   0.3481     O
C       0.4547   0.5934   0.3094     C
C       0.4556   0.4704   0.4065     C
C       0.4604   0.5369   0.9086     C
O       0.4605   0.4657  0.36914     O
Eu     0.46458  0.45711  0.61501    Eu
O        0.466   0.5402  0.87046     O
O       0.4692   0.5992   0.7942     O
O       0.4735   0.4389  0.79809     O
Eu      0.4796  0.55365  0.11923    Eu
O        0.481   0.4929  0.93488     O
O       0.4859   0.5065  0.43472     O
O       0.4878   0.5577  0.30111     O
Na     0.49735  0.51441  0.75152    Na
Na     0.50265  0.48559  0.24848    Na
O       0.5122   0.4423  0.69889     O
O       0.5141   0.4935  0.56528     O
O        0.519   0.5071  0.06512     O
Eu      0.5204  0.44635  0.88077    Eu
O       0.5265   0.5611  0.20191     O
O       0.5308   0.4008   0.2058     O
O        0.534   0.4598  0.12954     O
Eu     0.53542  0.54289  0.38499    Eu
O       0.5395   0.5343  0.63086     O
C       0.5396   0.4631   0.0914     C
C       0.5444   0.5296   0.5935     C
C       0.5453   0.4066   0.6906     C
O       0.5467   0.3975   0.6519     O
O        0.563   0.5082   0.8357     O
O       0.5642   0.3668   0.8564     O
C       0.5683   0.5834   0.1953     C
C       0.5717   0.4156   0.0743     C
O       0.5717   0.4743   0.3397     O
O       0.5723   0.4324   0.2171     O
C       0.5736   0.4164   0.0312     C
O       0.5742   0.5866   0.1577     O
O        0.577   0.4378  0.40605     O
C       0.5796   0.3758   0.7727     C
C       0.5841   0.3717    0.728     C
C       0.5843    0.432   0.3673     C
O       0.5872   0.5306  0.90552     O
C       0.5873   0.5655   0.5802     C
O       0.5897    0.419  0.94721     O
C       0.5907   0.5599   0.5356     C
C       0.5913   0.5377   0.8675     C
O       0.5936   0.6102    0.363     O
C       0.5988   0.3699   0.1082     C
C       0.6032   0.3718   0.0177     C
C       0.6037   0.3661   0.3093     C
C       0.6053   0.3733   0.3544     C
C       0.6059   0.6036   0.2777     C
C       0.6088   0.3742   0.9704     C
O       0.6104   0.5483  0.45163     O
C       0.6131   0.3506   0.8514     C
C        0.614    0.607   0.2352     C
N       0.6149   0.3085   0.2491     N
C       0.6155   0.3433   0.8046     C
C       0.6225   0.3329   0.7197     C
C       0.6232   0.6007   0.6117     C
C       0.6233   0.3121   0.2955     C
C       0.6267   0.3266   0.3872     C
C       0.6296   0.3273   0.0895     C
C       0.6312   0.5919   0.8164     C
C       0.6313   0.5921   0.5246     C
O       0.6318   0.3293   0.9587     O
C       0.6322   0.3265   0.0469     C
C       0.6332   0.5813     0.86     C
C       0.6351   0.5885   0.4774     C
N       0.6358    0.296   0.1838     N
C       0.6391   0.6204   0.3596     C
C       0.6435   0.2641   0.3268     C
C       0.6457   0.2735   0.3707     C
O       0.6465   0.3266   0.8842     O
C       0.6467   0.2788   0.2276     C
C       0.6492   0.6247   0.3129     C
C       0.6547    0.304   0.7987     C
C       0.6582   0.3006   0.7531     C
C       0.6602   0.6282   0.2275     C
N       0.6609   0.2804     0.12     N
C       0.6635   0.6328   0.5997     C
N       0.6644   0.6358   0.7602     N
C       0.6652   0.2232   0.4037     C
C       0.6677   0.6291   0.5552     C
C       0.6686   0.2677   0.1626     C
O       0.6702   0.6254   0.4681     O
C       0.6717   0.6288   0.8064     C
O       0.6722    0.232   0.4444     O
C       0.6751   0.6054   0.8952     C
O       0.6758   0.1716    0.391     O
N       0.6801   0.6558   0.6947     N
O        0.682    0.629   0.3936     O
N       0.6849   0.2391   0.2495     N
Eu     0.69273  0.12523  0.46462    Eu
N       0.6939   0.2636   0.7402     N
C       0.6961   0.6638   0.7388     C
C       0.6973   0.6473   0.3081     C
O       0.6986   0.1853   0.5832     O
C       0.7022    0.652    0.265     C
N       0.7027   0.6716   0.6285     N
N       0.7071   0.2267   0.1789     N
C       0.7118   0.6812    0.672     C
C        0.712   0.6551   0.8422     C
C       0.7128    0.217   0.2229     C
C       0.7139   0.6403   0.8873     C
C        0.735   0.2268   0.7643     C
N       0.7391   0.6983   0.7626     N
C       0.7394   0.1629   0.5769     C
O       0.7433   0.1555   0.5365     O
N       0.7447    0.218    0.809     N
N       0.7477   0.6762   0.2531     N
N       0.7523   0.1762   0.2469     N
N       0.7553    0.718    0.691     N
O       0.7567   0.6555   0.9635     O
C       0.7606   0.6629   0.9231     C
N       0.7609   0.1983   0.7374     N
C        0.765   0.7268   0.7357     C
C       0.7861   0.1403   0.6127     C
C       0.7872    0.717   0.2771     C
C        0.788   0.1551   0.6578     C
C       0.7882   0.1812    0.828     C
N       0.7929   0.7267   0.3211     N
N       0.7973   0.1716   0.8715     N
C       0.7978    0.152    0.235     C
O       0.8014   0.6853   0.9168     O
C       0.8027   0.1473   0.1919     C
C       0.8039   0.1638   0.7612     C
N       0.8061   0.7636   0.7598     N
Eu     0.80727  0.62523  0.03538    Eu
N       0.8151   0.7391   0.2505     N
O        0.818    0.129   0.1064     O
N       0.8199   0.1558   0.8053     N
O       0.8242   0.6716    0.109     O
C       0.8249   0.1054   0.6048     C
O       0.8278    0.732   0.0556     O
C       0.8283   0.1288   0.6936     C
O       0.8298   0.1254   0.0319     O
C       0.8314   0.7677   0.3374     C
C       0.8323   0.1291   0.9448     C
C       0.8348   0.7232   0.0963     C
N       0.8356   0.1358   0.7398     N
C       0.8365   0.1328   0.9003     C
N       0.8391   0.7804     0.38     N
C       0.8398   0.1282   0.2725     C
C       0.8418   0.8006   0.7469     C
C       0.8453    0.804   0.7013     C
C       0.8508   0.1247   0.1871     C
C       0.8533   0.7788   0.2724     C
O       0.8535   0.8266   0.6158     O
C       0.8543   0.7735   0.1293     C
C       0.8565   0.7641   0.1732     C
C       0.8609   0.1204   0.1404     C
N       0.8642    0.796   0.3162     N
C       0.8649   0.0885   0.0226     C
C       0.8668   0.0813     0.64     C
C       0.8678   0.8265   0.4531     C
O       0.8682   0.8293   0.5413     O
C       0.8687   0.0921   0.9754     C
C       0.8688   0.0919   0.6836     C
C       0.8704   0.8273   0.4105     C
C       0.8733   0.8266   0.1128     C
C       0.8767   0.8121   0.2045     C
C       0.8768   0.1007   0.8883     C
C       0.8775   0.8329   0.7803     C
C       0.8845   0.8433   0.6954     C
N       0.8851   0.8085   0.2509     N
C        0.886    0.107   0.2648     C
C       0.8869   0.8506   0.6486     C
O       0.8896   0.0483  0.04837     O
C       0.8912   0.8742   0.5296     C
C       0.8941   0.1036   0.2223     C
C       0.8947   0.8733   0.1456     C
C       0.8963   0.8661   0.1907     C
C       0.8968   0.8718   0.4823     C
C       0.9012   0.8699   0.3918     C
O       0.9064   0.1102    0.137     O
C       0.9087   0.0377   0.6325     C
C       0.9093   0.0599   0.9644     C
O       0.9103    0.919  0.55279     O
C       0.9127   0.0655   0.9198     C
O       0.9128   0.0306  0.59448     O
C       0.9157    0.932   0.1327     C
C       0.9159   0.8717    0.772     C
C       0.9204   0.8758   0.7273     C
O        0.923   0.9378  0.09395     O
O       0.9258   0.0866   0.3423     O
C       0.9264   0.9164   0.4688     C
O       0.9277   0.9324   0.2829     O
C       0.9283   0.9156   0.4257     C
O       0.9283   0.9743   0.1603     O
C       0.9317   0.0834   0.3047     C
O       0.9358   0.8668   0.6436     O
O        0.937   0.0082   0.6643     O
O       0.9533   0.8975   0.8481     O
C       0.9547   0.9066   0.8094     C
C       0.9556   0.0296   0.9065     C
C       0.9604   0.9631   0.4086     C
O       0.9605   0.0343  0.86914     O
Eu     0.96458  0.04289  0.11501    Eu
O        0.966   0.9598  0.37046     O
O       0.9692   0.9008   0.2942     O
O       0.9735   0.0611  0.29809     O
Eu      0.9796  0.94635  0.61923    Eu
O        0.981   0.0071  0.43488     O
O       0.9859   0.9935  0.93472     O
O       0.9878   0.9423  0.80111     O
Na     0.99735  0.98559  0.25152    Na
