data_I
_chemical_name_common  '/home/zhangsd/repos/MofS-CGCNN/ML/data/SSD/clean_cifs/ELUJEC_clean'
_cell_length_a 13.36800
_cell_length_b 23.92200
_cell_length_c 13.09200
_cell_angle_alpha 90.00000
_cell_angle_beta  90.00000
_cell_angle_gamma 90.00000
_space_group_name_H-M_alt      'P 1'


loop_
_space_group_symop_operation_xyz
  'x, y, z' 

loop_
_atom_site_label
_atom_site_fract_x
_atom_site_fract_y
_atom_site_fract_z
_atom_site_type_symbol
Zn         0.0      0.5   0.1094    Zn
Zn         0.0      0.5   0.6094    Zn
O       0.0161   0.2399   0.6182     O
O       0.0161   0.7601   0.1182     O
N       0.0169    0.024   0.5811     N
N       0.0169    0.976   0.0811     N
N       0.0233   0.0222   0.3306     N
N       0.0233   0.9778   0.8306     N
C       0.0295   0.1208   0.0992     C
C       0.0295   0.8792   0.5992     C
H        0.038   0.1291   0.6071     H
H        0.038   0.8709   0.1071     H
Tb     0.05756   0.3435  0.11083    Tb
Tb     0.05756   0.6565  0.61083    Tb
C       0.0606   0.0652   0.0851     C
C       0.0606   0.9348   0.5851     C
O       0.0657   0.4383   0.2063     O
O       0.0657   0.5617   0.7063     O
O       0.0706   0.4247   0.9972     O
O       0.0706   0.5753   0.4972     O
C       0.0732    0.225   0.1111     C
C       0.0732    0.775   0.6111     C
H        0.094   0.4912   0.8485     H
H        0.094   0.5088   0.3485     H
O       0.1009   0.3761   0.6049     O
O       0.1009   0.6239   0.1049     O
C       0.1015   0.1635   0.1011     C
C       0.1015   0.8365   0.6011     C
C        0.129   0.0165   0.3321     C
C        0.129   0.9835   0.8321     C
O       0.1307   0.4666   0.5841     O
O       0.1307   0.5334   0.0841     O
O        0.145   0.2595   0.1092     O
O        0.145   0.7405   0.6092     O
H       0.1451   0.0555   0.7491     H
H       0.1451   0.9445   0.2491     H
H       0.1487   0.0865   0.4148     H
H       0.1487   0.9135   0.9148     H
C       0.1559   0.4283   0.2261     C
C       0.1559   0.5717   0.7261     C
C       0.1564    0.417   0.5956     C
C       0.1564    0.583   0.0956     C
C       0.1578   0.4108    0.965     C
C       0.1578   0.5892    0.465     C
C       0.1628   0.0523    0.082     C
C       0.1628   0.9477    0.582     C
C       0.1634   0.4892   0.8451     C
C       0.1634   0.5108   0.3451     C
C       0.1802   0.0273   0.7825     C
C       0.1802   0.9727   0.2825     C
C       0.1823   0.0562   0.3865     C
C       0.1823   0.9438   0.8865     C
H       0.1837   0.0156    0.072     H
H       0.1837   0.9844    0.572     H
O       0.1959    0.384   0.2047     O
O       0.1959    0.616   0.7047     O
O       0.1964   0.3643   0.9933     O
O       0.1964   0.6357   0.4933     O
C       0.2003   0.1503   0.1003     C
C       0.2003   0.8497   0.6003     C
C       0.2131   0.4485   0.8999     C
C       0.2131   0.5515   0.3999     C
C       0.2162   0.4724   0.2843     C
C       0.2162   0.5276   0.7843     C
C        0.232   0.0945   0.0939     C
C        0.232   0.9055   0.5939     C
H       0.2476   0.1787    0.104     H
H       0.2476   0.8213    0.604     H
H       0.2524   0.3213    0.604     H
H       0.2524   0.6787    0.104     H
C        0.268   0.4055   0.5939     C
C        0.268   0.5945   0.0939     C
C       0.2838   0.0276   0.7843     C
C       0.2838   0.9724   0.2843     C
C       0.2869   0.0515   0.3999     C
C       0.2869   0.9485   0.8999     C
C       0.2997   0.3497   0.6003     C
C       0.2997   0.6503   0.1003     C
O       0.3036   0.1357   0.4933     O
O       0.3036   0.8643   0.9933     O
O       0.3041    0.116   0.7047     O
O       0.3041    0.884   0.2047     O
H       0.3163   0.4844    0.572     H
H       0.3163   0.5156    0.072     H
C       0.3177   0.4438   0.8865     C
C       0.3177   0.5562   0.3865     C
C       0.3198   0.4727   0.2825     C
C       0.3198   0.5273   0.7825     C
C       0.3366   0.0108   0.3451     C
C       0.3366   0.9892   0.8451     C
C       0.3372   0.4477    0.582     C
C       0.3372   0.5523    0.082     C
C       0.3422   0.0892    0.465     C
C       0.3422   0.9108    0.965     C
C       0.3436    0.083   0.0956     C
C       0.3436    0.917   0.5956     C
C       0.3441   0.0717   0.7261     C
C       0.3441   0.9283   0.2261     C
H       0.3513   0.4135   0.9148     H
H       0.3513   0.5865   0.4148     H
H       0.3549   0.4445   0.2491     H
H       0.3549   0.5555   0.7491     H
O        0.355   0.2405   0.6092     O
O        0.355   0.7595   0.1092     O
O       0.3693   0.0334   0.0841     O
O       0.3693   0.9666   0.5841     O
C        0.371   0.4835   0.8321     C
C        0.371   0.5165   0.3321     C
C       0.3985   0.3365   0.6011     C
C       0.3985   0.6635   0.1011     C
O       0.3991   0.1239   0.1049     O
O       0.3991   0.8761   0.6049     O
H        0.406   0.0088   0.3485     H
H        0.406   0.9912   0.8485     H
C       0.4268    0.275   0.6111     C
C       0.4268    0.725   0.1111     C
O       0.4294   0.0753   0.4972     O
O       0.4294   0.9247   0.9972     O
O       0.4343   0.0617   0.7063     O
O       0.4343   0.9383   0.2063     O
C       0.4394   0.4348   0.5851     C
C       0.4394   0.5652   0.0851     C
Tb     0.44244   0.1565  0.61083    Tb
Tb     0.44244   0.8435  0.11083    Tb
H        0.462   0.3709   0.1071     H
H        0.462   0.6291   0.6071     H
C       0.4705   0.3792   0.5992     C
C       0.4705   0.6208   0.0992     C
N       0.4767   0.4778   0.8306     N
N       0.4767   0.5222   0.3306     N
N       0.4831    0.476   0.0811     N
N       0.4831    0.524   0.5811     N
O       0.4839   0.2601   0.1182     O
O       0.4839   0.7399   0.6182     O
Zn         0.5      0.0   0.1094    Zn
Zn         0.5      0.0   0.6094    Zn
O       0.5161   0.2601   0.6182     O
O       0.5161   0.7399   0.1182     O
N       0.5169    0.476   0.5811     N
N       0.5169    0.524   0.0811     N
N       0.5233   0.4778   0.3306     N
N       0.5233   0.5222   0.8306     N
C       0.5295   0.3792   0.0992     C
C       0.5295   0.6208   0.5992     C
H        0.538   0.3709   0.6071     H
H        0.538   0.6291   0.1071     H
Tb     0.55756   0.1565  0.11083    Tb
Tb     0.55756   0.8435  0.61083    Tb
C       0.5606   0.4348   0.0851     C
C       0.5606   0.5652   0.5851     C
O       0.5657   0.0617   0.2063     O
O       0.5657   0.9383   0.7063     O
O       0.5706   0.0753   0.9972     O
O       0.5706   0.9247   0.4972     O
C       0.5732    0.275   0.1111     C
C       0.5732    0.725   0.6111     C
H        0.594   0.0088   0.8485     H
H        0.594   0.9912   0.3485     H
O       0.6009   0.1239   0.6049     O
O       0.6009   0.8761   0.1049     O
C       0.6015   0.3365   0.1011     C
C       0.6015   0.6635   0.6011     C
C        0.629   0.4835   0.3321     C
C        0.629   0.5165   0.8321     C
O       0.6307   0.0334   0.5841     O
O       0.6307   0.9666   0.0841     O
O        0.645   0.2405   0.1092     O
O        0.645   0.7595   0.6092     O
H       0.6451   0.4445   0.7491     H
H       0.6451   0.5555   0.2491     H
H       0.6487   0.4135   0.4148     H
H       0.6487   0.5865   0.9148     H
C       0.6559   0.0717   0.2261     C
C       0.6559   0.9283   0.7261     C
C       0.6564    0.083   0.5956     C
C       0.6564    0.917   0.0956     C
C       0.6578   0.0892    0.965     C
C       0.6578   0.9108    0.465     C
C       0.6628   0.4477    0.082     C
C       0.6628   0.5523    0.582     C
C       0.6634   0.0108   0.8451     C
C       0.6634   0.9892   0.3451     C
C       0.6802   0.4727   0.7825     C
C       0.6802   0.5273   0.2825     C
C       0.6823   0.4438   0.3865     C
C       0.6823   0.5562   0.8865     C
H       0.6837   0.4844    0.072     H
H       0.6837   0.5156    0.572     H
O       0.6959    0.116   0.2047     O
O       0.6959    0.884   0.7047     O
O       0.6964   0.1357   0.9933     O
O       0.6964   0.8643   0.4933     O
C       0.7003   0.3497   0.1003     C
C       0.7003   0.6503   0.6003     C
C       0.7131   0.0515   0.8999     C
C       0.7131   0.9485   0.3999     C
C       0.7162   0.0276   0.2843     C
C       0.7162   0.9724   0.7843     C
C        0.732   0.4055   0.0939     C
C        0.732   0.5945   0.5939     C
H       0.7476   0.3213    0.104     H
H       0.7476   0.6787    0.604     H
H       0.7524   0.1787    0.604     H
H       0.7524   0.8213    0.104     H
C        0.768   0.0945   0.5939     C
C        0.768   0.9055   0.0939     C
C       0.7838   0.4724   0.7843     C
C       0.7838   0.5276   0.2843     C
C       0.7869   0.4485   0.3999     C
C       0.7869   0.5515   0.8999     C
C       0.7997   0.1503   0.6003     C
C       0.7997   0.8497   0.1003     C
O       0.8036   0.3643   0.4933     O
O       0.8036   0.6357   0.9933     O
O       0.8041    0.384   0.7047     O
O       0.8041    0.616   0.2047     O
H       0.8163   0.0156    0.572     H
H       0.8163   0.9844    0.072     H
C       0.8177   0.0562   0.8865     C
C       0.8177   0.9438   0.3865     C
C       0.8198   0.0273   0.2825     C
C       0.8198   0.9727   0.7825     C
C       0.8366   0.4892   0.3451     C
C       0.8366   0.5108   0.8451     C
C       0.8372   0.0523    0.582     C
C       0.8372   0.9477    0.082     C
C       0.8422   0.4108    0.465     C
C       0.8422   0.5892    0.965     C
C       0.8436    0.417   0.0956     C
C       0.8436    0.583   0.5956     C
C       0.8441   0.4283   0.7261     C
C       0.8441   0.5717   0.2261     C
H       0.8513   0.0865   0.9148     H
H       0.8513   0.9135   0.4148     H
H       0.8549   0.0555   0.2491     H
H       0.8549   0.9445   0.7491     H
O        0.855   0.2595   0.6092     O
O        0.855   0.7405   0.1092     O
O       0.8693   0.4666   0.0841     O
O       0.8693   0.5334   0.5841     O
C        0.871   0.0165   0.8321     C
C        0.871   0.9835   0.3321     C
C       0.8985   0.1635   0.6011     C
C       0.8985   0.8365   0.1011     C
O       0.8991   0.3761   0.1049     O
O       0.8991   0.6239   0.6049     O
H        0.906   0.4912   0.3485     H
H        0.906   0.5088   0.8485     H
C       0.9268    0.225   0.6111     C
C       0.9268    0.775   0.1111     C
O       0.9294   0.4247   0.4972     O
O       0.9294   0.5753   0.9972     O
O       0.9343   0.4383   0.7063     O
O       0.9343   0.5617   0.2063     O
C       0.9394   0.0652   0.5851     C
C       0.9394   0.9348   0.0851     C
Tb     0.94244   0.3435  0.61083    Tb
Tb     0.94244   0.6565  0.11083    Tb
H        0.962   0.1291   0.1071     H
H        0.962   0.8709   0.6071     H
C       0.9705   0.1208   0.5992     C
C       0.9705   0.8792   0.0992     C
N       0.9767   0.0222   0.8306     N
N       0.9767   0.9778   0.3306     N
N       0.9831    0.024   0.0811     N
N       0.9831    0.976   0.5811     N
O       0.9839   0.2399   0.1182     O
O       0.9839   0.7601   0.6182     O
