data_I
_chemical_name_common  '/home/zhangsd/repos/MofS-CGCNN/ML/data/SSD/clean_cifs/EMIGIR_charged'
_cell_length_a 22.56290
_cell_length_b 22.66170
_cell_length_c 33.70150
_cell_angle_alpha 90.00000
_cell_angle_beta  90.00000
_cell_angle_gamma 90.00000
_space_group_name_H-M_alt      'P 1'


loop_
_space_group_symop_operation_xyz
  'x, y, z' 

loop_
_atom_site_label
_atom_site_fract_x
_atom_site_fract_y
_atom_site_fract_z
_atom_site_type_symbol
S       0.0101    0.442  0.13159     S
S       0.0101    0.942  0.36841     S
In     0.02785  0.46374  0.84427    In
In     0.02785  0.96374  0.65573    In
H       0.0298   0.4722   0.5357     H
H       0.0298   0.9722   0.9643     H
H       0.0401   0.4603   0.4894     H
H       0.0401   0.9603   0.0106     H
N       0.0537   0.0824   0.3276     N
N       0.0537   0.5824   0.1724     N
H        0.055    0.359   0.5664     H
H        0.055    0.859   0.9336     H
S       0.0561   0.2041   0.5869     S
S       0.0561   0.7041   0.9131     S
C       0.0598   0.4664    0.515     C
C       0.0598   0.9664    0.985     C
S       0.0721   0.4003  0.89367     S
S       0.0721   0.9003  0.60633     S
S       0.0749   0.4692  0.77948     S
S       0.0749   0.9692  0.72052     S
H        0.076   0.0343   0.2811     H
H        0.076   0.5343   0.2189     H
C       0.0802   0.1304    0.342     C
C       0.0802   0.6304    0.158     C
In     0.08024  0.11008  0.61569    In
In     0.08024  0.61008  0.88431    In
H       0.0854   0.0013   0.9865     H
H       0.0854   0.5013   0.5135     H
C        0.086   0.0667   0.2977     C
C        0.086   0.5667   0.2023     C
C       0.0884   0.3646   0.5496     C
C       0.0884   0.8646   0.9504     C
C       0.0978   0.4115   0.5252     C
C       0.0978   0.9115   0.9748     C
S       0.1254   0.4625  0.40647     S
S       0.1254   0.9625  0.09353     S
S       0.1274   0.0295  0.20014     S
S       0.1274   0.5295  0.29986     S
C       0.1298   0.1385   0.3191     C
C       0.1298   0.6385   0.1809     C
N       0.1332   0.0986   0.2921     N
N       0.1332   0.5986   0.2079     N
N       0.1358   0.3266   0.5459     N
N       0.1358   0.8266   0.9541     N
S       0.1388   0.0531  0.56566     S
S       0.1388   0.5531  0.93434     S
S       0.1391   0.1228  0.67808     S
S       0.1391   0.6228  0.82192     S
N       0.1477   0.4031   0.5067     N
N       0.1477   0.9031   0.9933     N
In     0.15416  0.24394  0.57532    In
In     0.15416  0.74394  0.92468    In
H       0.1578   0.1694   0.3227     H
H       0.1578   0.6694   0.1773     H
In     0.16287  0.45365  0.90667    In
In     0.16287  0.95365  0.59333    In
In      0.1642  0.02342  0.70617    In
In      0.1642  0.52342  0.79383    In
C       0.1691    0.353   0.5203     C
C       0.1691    0.853   0.9797     C
In     0.18414  0.01842  0.14032    In
In     0.18414  0.51842  0.35968    In
In     0.19295  0.08883  0.24125    In
In     0.19295  0.58883  0.25875    In
In     0.19297  0.45843  0.46269    In
In     0.19297  0.95843  0.03731    In
H       0.2062   0.3375   0.5119     H
H       0.2062   0.8375   0.9881     H
S       0.2074   0.0512  0.00285     S
S       0.2074   0.5512  0.49715     S
S       0.2075    0.118  0.11279     S
S       0.2075    0.618  0.38721     S
S       0.2092   0.1899   0.2212     S
S       0.2092   0.6899   0.2788     S
S       0.2097    0.272   0.6341     S
S       0.2097    0.772   0.8659     S
S       0.2132   0.2011  0.52245     S
S       0.2132   0.7011  0.97755     S
S       0.2201   0.3971   0.9535     S
S       0.2201   0.8971   0.5465     S
S       0.2215   0.0361  0.76601     S
S       0.2215   0.5361  0.73399     S
S       0.2216   0.4653  0.84424     S
S       0.2216   0.9653  0.65576     S
In     0.23332  0.17693  0.66178    In
In     0.23332  0.67693  0.83822    In
In     0.23413  0.10556  0.54997    In
In     0.23413  0.60556  0.95003    In
In     0.26587  0.10556  0.04997    In
In     0.26587  0.60556  0.45003    In
In     0.26668  0.17693  0.16178    In
In     0.26668  0.67693  0.33822    In
S       0.2784   0.4653  0.34424     S
S       0.2784   0.9653  0.15576     S
S       0.2785   0.0361  0.26601     S
S       0.2785   0.5361  0.23399     S
S       0.2799   0.3971   0.4535     S
S       0.2799   0.8971   0.0465     S
S       0.2868   0.2011  0.02245     S
S       0.2868   0.7011  0.47755     S
S       0.2903    0.272   0.1341     S
S       0.2903    0.772   0.3659     S
S       0.2908   0.1899   0.7212     S
S       0.2908   0.6899   0.7788     S
S       0.2925    0.118  0.61279     S
S       0.2925    0.618  0.88721     S
S       0.2926   0.0512  0.50285     S
S       0.2926   0.5512  0.99715     S
H       0.2938   0.3375   0.0119     H
H       0.2938   0.8375   0.4881     H
In     0.30703  0.45843  0.96269    In
In     0.30703  0.95843  0.53731    In
In     0.30705  0.08883  0.74125    In
In     0.30705  0.58883  0.75875    In
In     0.31586  0.01842  0.64032    In
In     0.31586  0.51842  0.85968    In
C       0.3309    0.353   0.0203     C
C       0.3309    0.853   0.4797     C
In      0.3358  0.02342  0.20617    In
In      0.3358  0.52342  0.29383    In
In     0.33713  0.45365  0.40667    In
In     0.33713  0.95365  0.09333    In
H       0.3422   0.1694   0.8227     H
H       0.3422   0.6694   0.6773     H
In     0.34584  0.24394  0.07532    In
In     0.34584  0.74394  0.42468    In
N       0.3523   0.4031   0.0067     N
N       0.3523   0.9031   0.4933     N
S       0.3609   0.1228  0.17808     S
S       0.3609   0.6228  0.32192     S
S       0.3612   0.0531  0.06566     S
S       0.3612   0.5531  0.43434     S
N       0.3642   0.3266   0.0459     N
N       0.3642   0.8266   0.4541     N
N       0.3668   0.0986   0.7921     N
N       0.3668   0.5986   0.7079     N
C       0.3702   0.1385   0.8191     C
C       0.3702   0.6385   0.6809     C
S       0.3726   0.0295  0.70014     S
S       0.3726   0.5295  0.79986     S
S       0.3746   0.4625  0.90647     S
S       0.3746   0.9625  0.59353     S
C       0.4022   0.4115   0.0252     C
C       0.4022   0.9115   0.4748     C
C       0.4116   0.3646   0.0496     C
C       0.4116   0.8646   0.4504     C
C        0.414   0.0667   0.7977     C
C        0.414   0.5667   0.7023     C
H       0.4146   0.0013   0.4865     H
H       0.4146   0.5013   0.0135     H
In     0.41976  0.11008  0.11569    In
In     0.41976  0.61008  0.38431    In
C       0.4198   0.1304    0.842     C
C       0.4198   0.6304    0.658     C
H        0.424   0.0343   0.7811     H
H        0.424   0.5343   0.7189     H
S       0.4251   0.4692  0.27948     S
S       0.4251   0.9692  0.22052     S
S       0.4279   0.4003  0.39367     S
S       0.4279   0.9003  0.10633     S
C       0.4402   0.4664    0.015     C
C       0.4402   0.9664    0.485     C
S       0.4439   0.2041   0.0869     S
S       0.4439   0.7041   0.4131     S
H        0.445    0.359   0.0664     H
H        0.445    0.859   0.4336     H
N       0.4463   0.0824   0.8276     N
N       0.4463   0.5824   0.6724     N
H       0.4599   0.4603   0.9894     H
H       0.4599   0.9603   0.5106     H
H       0.4702   0.4722   0.0357     H
H       0.4702   0.9722   0.4643     H
In     0.47215  0.46374  0.34427    In
In     0.47215  0.96374  0.15573    In
S       0.4899    0.442  0.63159     S
S       0.4899    0.942  0.86841     S
S       0.5101    0.058  0.13159     S
S       0.5101    0.558  0.36841     S
In     0.52785  0.03626  0.84427    In
In     0.52785  0.53626  0.65573    In
H       0.5298   0.0278   0.5357     H
H       0.5298   0.5278   0.9643     H
H       0.5401   0.0397   0.4894     H
H       0.5401   0.5397   0.0106     H
N       0.5537   0.4176   0.3276     N
N       0.5537   0.9176   0.1724     N
H        0.555    0.141   0.5664     H
H        0.555    0.641   0.9336     H
S       0.5561   0.2959   0.5869     S
S       0.5561   0.7959   0.9131     S
C       0.5598   0.0336    0.515     C
C       0.5598   0.5336    0.985     C
S       0.5721   0.0997  0.89367     S
S       0.5721   0.5997  0.60633     S
S       0.5749   0.0308  0.77948     S
S       0.5749   0.5308  0.72052     S
H        0.576   0.4657   0.2811     H
H        0.576   0.9657   0.2189     H
C       0.5802   0.3696    0.342     C
C       0.5802   0.8696    0.158     C
In     0.58024  0.38992  0.61569    In
In     0.58024  0.88992  0.88431    In
H       0.5854   0.4987   0.9865     H
H       0.5854   0.9987   0.5135     H
C        0.586   0.4333   0.2977     C
C        0.586   0.9333   0.2023     C
C       0.5884   0.1354   0.5496     C
C       0.5884   0.6354   0.9504     C
C       0.5978   0.0885   0.5252     C
C       0.5978   0.5885   0.9748     C
S       0.6254   0.0375  0.40647     S
S       0.6254   0.5375  0.09353     S
S       0.6274   0.4705  0.20014     S
S       0.6274   0.9705  0.29986     S
C       0.6298   0.3615   0.3191     C
C       0.6298   0.8615   0.1809     C
N       0.6332   0.4014   0.2921     N
N       0.6332   0.9014   0.2079     N
N       0.6358   0.1734   0.5459     N
N       0.6358   0.6734   0.9541     N
S       0.6388   0.4469  0.56566     S
S       0.6388   0.9469  0.93434     S
S       0.6391   0.3772  0.67808     S
S       0.6391   0.8772  0.82192     S
N       0.6477   0.0969   0.5067     N
N       0.6477   0.5969   0.9933     N
In     0.65416  0.25606  0.57532    In
In     0.65416  0.75606  0.92468    In
H       0.6578   0.3306   0.3227     H
H       0.6578   0.8306   0.1773     H
In     0.66287  0.04635  0.90667    In
In     0.66287  0.54635  0.59333    In
In      0.6642  0.47658  0.70617    In
In      0.6642  0.97658  0.79383    In
C       0.6691    0.147   0.5203     C
C       0.6691    0.647   0.9797     C
In     0.68414  0.48158  0.14032    In
In     0.68414  0.98158  0.35968    In
In     0.69295  0.41117  0.24125    In
In     0.69295  0.91117  0.25875    In
In     0.69297  0.04157  0.46269    In
In     0.69297  0.54157  0.03731    In
H       0.7062   0.1625   0.5119     H
H       0.7062   0.6625   0.9881     H
S       0.7074   0.4488  0.00285     S
S       0.7074   0.9488  0.49715     S
S       0.7075    0.382  0.11279     S
S       0.7075    0.882  0.38721     S
S       0.7092   0.3101   0.2212     S
S       0.7092   0.8101   0.2788     S
S       0.7097    0.228   0.6341     S
S       0.7097    0.728   0.8659     S
S       0.7132   0.2989  0.52245     S
S       0.7132   0.7989  0.97755     S
S       0.7201   0.1029   0.9535     S
S       0.7201   0.6029   0.5465     S
S       0.7215   0.4639  0.76601     S
S       0.7215   0.9639  0.73399     S
S       0.7216   0.0347  0.84424     S
S       0.7216   0.5347  0.65576     S
In     0.73332  0.32307  0.66178    In
In     0.73332  0.82307  0.83822    In
In     0.73413  0.39444  0.54997    In
In     0.73413  0.89444  0.95003    In
In     0.76587  0.39444  0.04997    In
In     0.76587  0.89444  0.45003    In
In     0.76668  0.32307  0.16178    In
In     0.76668  0.82307  0.33822    In
S       0.7784   0.0347  0.34424     S
S       0.7784   0.5347  0.15576     S
S       0.7785   0.4639  0.26601     S
S       0.7785   0.9639  0.23399     S
S       0.7799   0.1029   0.4535     S
S       0.7799   0.6029   0.0465     S
S       0.7868   0.2989  0.02245     S
S       0.7868   0.7989  0.47755     S
S       0.7903    0.228   0.1341     S
S       0.7903    0.728   0.3659     S
S       0.7908   0.3101   0.7212     S
S       0.7908   0.8101   0.7788     S
S       0.7925    0.382  0.61279     S
S       0.7925    0.882  0.88721     S
S       0.7926   0.4488  0.50285     S
S       0.7926   0.9488  0.99715     S
H       0.7938   0.1625   0.0119     H
H       0.7938   0.6625   0.4881     H
In     0.80703  0.04157  0.96269    In
In     0.80703  0.54157  0.53731    In
In     0.80705  0.41117  0.74125    In
In     0.80705  0.91117  0.75875    In
In     0.81586  0.48158  0.64032    In
In     0.81586  0.98158  0.85968    In
C       0.8309    0.147   0.0203     C
C       0.8309    0.647   0.4797     C
In      0.8358  0.47658  0.20617    In
In      0.8358  0.97658  0.29383    In
In     0.83713  0.04635  0.40667    In
In     0.83713  0.54635  0.09333    In
H       0.8422   0.3306   0.8227     H
H       0.8422   0.8306   0.6773     H
In     0.84584  0.25606  0.07532    In
In     0.84584  0.75606  0.42468    In
N       0.8523   0.0969   0.0067     N
N       0.8523   0.5969   0.4933     N
S       0.8609   0.3772  0.17808     S
S       0.8609   0.8772  0.32192     S
S       0.8612   0.4469  0.06566     S
S       0.8612   0.9469  0.43434     S
N       0.8642   0.1734   0.0459     N
N       0.8642   0.6734   0.4541     N
N       0.8668   0.4014   0.7921     N
N       0.8668   0.9014   0.7079     N
C       0.8702   0.3615   0.8191     C
C       0.8702   0.8615   0.6809     C
S       0.8726   0.4705  0.70014     S
S       0.8726   0.9705  0.79986     S
S       0.8746   0.0375  0.90647     S
S       0.8746   0.5375  0.59353     S
C       0.9022   0.0885   0.0252     C
C       0.9022   0.5885   0.4748     C
C       0.9116   0.1354   0.0496     C
C       0.9116   0.6354   0.4504     C
C        0.914   0.4333   0.7977     C
C        0.914   0.9333   0.7023     C
H       0.9146   0.4987   0.4865     H
H       0.9146   0.9987   0.0135     H
In     0.91976  0.38992  0.11569    In
In     0.91976  0.88992  0.38431    In
C       0.9198   0.3696    0.842     C
C       0.9198   0.8696    0.658     C
H        0.924   0.4657   0.7811     H
H        0.924   0.9657   0.7189     H
S       0.9251   0.0308  0.27948     S
S       0.9251   0.5308  0.22052     S
S       0.9279   0.0997  0.39367     S
S       0.9279   0.5997  0.10633     S
C       0.9402   0.0336    0.015     C
C       0.9402   0.5336    0.485     C
S       0.9439   0.2959   0.0869     S
S       0.9439   0.7959   0.4131     S
H        0.945    0.141   0.0664     H
H        0.945    0.641   0.4336     H
N       0.9463   0.4176   0.8276     N
N       0.9463   0.9176   0.6724     N
H       0.9599   0.0397   0.9894     H
H       0.9599   0.5397   0.5106     H
H       0.9702   0.0278   0.0357     H
H       0.9702   0.5278   0.4643     H
In     0.97215  0.03626  0.34427    In
In     0.97215  0.53626  0.15573    In
S       0.9899    0.058  0.63159     S
S       0.9899    0.558  0.86841     S
