data_I
_chemical_name_common  '/home/zhangsd/repos/MofS-CGCNN/ML/data/SSD/clean_cifs/EMIGAJ_charged'
_cell_length_a 25.59070
_cell_length_b 42.31400
_cell_length_c 42.31400
_cell_angle_alpha 107.58500
_cell_angle_beta  90.68460
_cell_angle_gamma 90.68460
_space_group_name_H-M_alt      'P 1'


loop_
_space_group_symop_operation_xyz
  'x, y, z' 

loop_
_atom_site_label
_atom_site_fract_x
_atom_site_fract_y
_atom_site_fract_z
_atom_site_type_symbol
H       0.0023   0.8754   0.6438     H
In     0.00379  0.33519  0.85871    In
In     0.00406  0.90101  0.29267    In
S       0.0045  0.34512  0.54356     S
S       0.0076  0.29005  0.44977     S
S       0.0089  0.21488  0.21054     S
In     0.01027  0.34846  0.48788    In
S       0.0121  0.23601  0.35385     S
S       0.0133  0.88209  0.23131     S
In      0.0136  0.29132  0.39132    In
S       0.0152  0.31554  0.79742     S
S       0.0164  0.15647  0.03955     S
S       0.0164  0.39688  0.87904     S
H       0.0168   0.4431   0.1659     H
S        0.017   0.9627  0.31378     S
In     0.01703  0.19472  0.09452    In
C       0.0197   0.5644   0.8342     C
H       0.0208   0.5856   0.8294     H
S       0.0213  0.25279  0.09191     S
In     0.02284  0.29304  0.14946    In
H       0.0229   0.3745   0.6311     H
S       0.0272  0.34851  0.14591     S
S       0.0314  0.40656  0.40822     S
C       0.0343   0.1303   0.3625     C
S       0.0362  0.59601  0.20935     S
H       0.0364   0.1514   0.3804     H
S       0.0366  0.94987  0.69195     S
C        0.037   0.8601   0.0645     C
S       0.0386  0.67604  0.28958     S
H       0.0389   0.5479   0.8171     H
S        0.039  0.51677  0.12885     S
S       0.0391  0.02869  0.77365     S
S       0.0436  0.10843  0.85443     S
C        0.044   0.5684   0.8672     C
In     0.04433  0.62429  0.58249    In
In     0.04518  0.90894  0.13946    In
In       0.049  0.00918   0.7122    In
S       0.0497  0.68127  0.94411     S
In      0.0498  0.57633  0.14803    In
H       0.0499   0.1128   0.3702     H
In     0.05022  0.49067  0.85567    In
In     0.05024   0.9863  0.21168    In
In     0.05029   0.6577  0.23024    In
In     0.05046  0.34234  0.70586    In
In     0.05059  0.64912  0.88604    In
In     0.05147  0.05678  0.29036    In
In     0.05293  0.09033  0.79515    In
In     0.05356  0.41961  0.77787    In
N       0.0548    0.598    0.889     N
In     0.05573  0.73684  0.94042    In
S       0.0582  0.67869  0.62197     S
S       0.0588  0.77557  0.99555     S
N        0.059   0.5444   0.8774     N
N       0.0593   0.8936   0.0856     N
S       0.0594  0.71485  0.82169     S
C       0.0598   0.3683   0.6303     C
S       0.0607  0.96807  0.15239     S
S        0.061   0.6208   0.5252     S
N       0.0614   0.3211   0.6523     N
H       0.0617   0.5525   0.5987     H
S        0.062  0.04561  0.23121     S
In      0.0624  0.82857  0.98459    In
C       0.0625   0.1334   0.3342     C
N       0.0629   0.8646    0.035     N
C       0.0635   0.3321   0.6265     C
S       0.0644  0.81315  0.87667     S
In     0.06467  0.77317  0.81909    In
S       0.0647  0.47917  0.79679     S
S       0.0671  0.40122  0.71858     S
S       0.0674  0.31003  0.88603     S
S       0.0678  0.87474  0.31818     S
C        0.068   0.2885   0.6391     C
N       0.0682     0.11   0.3066     N
H       0.0682   0.2728   0.6512     H
N        0.072   0.3089   0.5983     N
C       0.0755    0.591   0.9162     C
C       0.0756   0.2811   0.6071     C
H       0.0763   0.3731   0.6115     H
H       0.0776    0.381    0.651     H
S       0.0783   0.2549   0.5177     S
In     0.08004  0.31338  0.54858    In
C       0.0807   0.5582   0.9094     C
In     0.08155  0.22558  0.17878    In
S       0.0818  0.20239  0.42479     S
H       0.0823   0.2597   0.5925     H
In     0.08276  0.25818  0.46186    In
S       0.0828  0.11334  0.69408     S
S       0.0829  0.67947  0.12897     S
H       0.0846    0.607   0.9368     H
N       0.0853   0.1624   0.3346     N
In     0.08722  0.21166  0.37138    In
C        0.089   0.9116    0.072     C
C       0.0914   0.1257   0.2879     C
S       0.0932  0.18529  0.12487     S
C        0.094   0.8888   0.0382     C
S      0.09471  0.37626  0.48162     S
C       0.0951   0.5631   0.6013     C
H       0.0959   0.5467   0.9231     H
S       0.0976  0.28272  0.18048     S
H       0.0984    0.116    0.265     H
S       0.0989  0.31901  0.38581     S
In     0.10297  0.37727  0.42279    In
In     0.10316  0.89724  0.21712    In
H       0.1035   0.9333   0.0813     H
C        0.104    0.158   0.3056     C
N       0.1049   0.5929   0.5959     N
In     0.10514  0.33064    0.784    In
In     0.10695  0.41249  0.86609    In
In     0.10695  0.97828  0.29976    In
S       0.1128  0.87818  0.15788     S
S       0.1166  0.95876   0.2381     S
H        0.117   0.8916   0.0216     H
S       0.1182  0.31272  0.72514     S
S       0.1182  0.47185  0.88573     S
S       0.1189  0.39233  0.80463     S
S       0.1192  0.03725  0.32017     S
H       0.1227   0.1737   0.2979     H
S       0.1328  0.65006   0.8589     S
C       0.1354   0.5517   0.6101     C
S       0.1356  0.02356  0.69834     S
In     0.13597  0.70513  0.85449    In
S       0.1369  0.59073  0.13539     S
S       0.1369  0.74533  0.91169     S
In      0.1374  0.08297  0.72179    In
In     0.13768  0.65058  0.15802    In
S       0.1377  0.67147  0.21821     S
H       0.1379   0.5316   0.6156     H
S       0.1395  0.10423  0.78153     S
In     0.14249  0.80337  0.90829    In
C       0.1426   0.2154   0.2182     C
S       0.1435  0.84227  0.96317     S
S       0.1439  0.78071  0.79173     S
In     0.14822  0.32822   0.8681    In
In     0.14881  0.89386  0.30076    In
C       0.1558   0.5979   0.6017     C
H       0.1631   0.2845   0.9151     H
S       0.1648  0.34073  0.55075     S
H       0.1665   0.6479   0.6101     H
H       0.1665   0.8387   0.3417     H
S       0.1669  0.30373  0.80975     S
S       0.1672   0.2864  0.45666     S
S       0.1677  0.87141  0.24253     S
In     0.16969  0.34453  0.49525    In
S       0.1707    0.952  0.32552     S
S       0.1708  0.38651  0.89177     S
H       0.1709   0.1952   0.2694     H
S       0.1716  0.23178  0.35932     S
In     0.17422  0.28691  0.39795    In
N       0.1754   0.5733   0.6105     N
H       0.1768   0.6867   0.1103     H
C        0.177   0.1996    0.249     C
H       0.1782   0.1367   0.6875     H
N        0.181   0.2059   0.2047     N
S       0.1829  0.40431  0.41481     S
C       0.1866   0.6279   0.6001     C
H       0.1939    0.626    0.577     H
C       0.1977   0.2888   0.9096     C
C       0.1998   0.8462   0.3372     C
N        0.208   0.3053   0.8909     N
N       0.2087   0.8689   0.3233     N
In     0.21035  0.76843  0.82695    In
H       0.2123   0.1223   0.6549     H
C       0.2138   0.1328    0.679     C
C       0.2139   0.6849   0.1047     C
S       0.2154   0.7112  0.82642     S
N       0.2156    0.198   0.2274     N
H       0.2181   0.6685   0.0829     H
N       0.2188   0.6628   0.1494     N
C        0.219   0.2099   0.1775     C
H       0.2197   0.6293   0.6125     H
N       0.2207   0.0938   0.7122     N
S       0.2217  0.80975  0.88057     S
H       0.2273   0.7066    0.104     H
H       0.2329   0.1541   0.6839     H
C       0.2408   0.1111   0.6949     C
C       0.2423    0.675    0.129     C
C       0.2425   0.2772    0.922     C
C       0.2447   0.8355   0.3437     C
H       0.2452    0.265   0.9374     H
In     0.24548  0.36946  0.43114    In
S       0.2458  0.60783  0.68533     S
S       0.2471  0.37464  0.48974     S
H       0.2484   0.8176   0.3528     H
H       0.2516   0.6472   0.1824     H
S       0.2529  0.51026  0.62536     S
S       0.2542  0.31467  0.39217     S
In     0.25452  0.56886  0.63054    In
H       0.2548   0.0626    0.735     H
C       0.2553   0.6563   0.1645     C
C       0.2575    0.078   0.7228     C
C       0.2577    0.871    0.325     C
C       0.2592   0.3051   0.8889     C
H       0.2671   0.3161   0.8459     H
H       0.2727    0.896   0.2934     H
S       0.2783  0.11943  0.19025     S
N       0.2793   0.2878   0.9062     N
H       0.2803   0.3875   0.3707     H
C        0.281   0.8225   0.7901     C
N       0.2812   0.8506   0.3372     N
H       0.2819   0.9171   0.3315     H
N       0.2844   0.7726    0.802     N
S       0.2846  0.17358   0.2888     S
C       0.2861   0.8953   0.3151     C
C       0.2862    0.321   0.8672     C
H       0.2877   0.3451   0.8777     H
In     0.28965  0.17305  0.23157    In
N       0.2913   0.6767   0.1311     N
N        0.292   0.1091   0.6947     N
C       0.3002   0.6628   0.1538     C
C       0.3023   0.0904   0.7112     C
H       0.3061    0.423    0.374     H
C       0.3134   0.3999   0.3721     C
S       0.3171  0.58519  0.59569     S
N        0.319   0.7953   0.7941     N
H       0.3218   0.3125   0.8633     H
C        0.323    0.751   0.8004     C
H       0.3232   0.8897   0.3133     H
N       0.3246   0.3895   0.4267     N
In     0.32578  0.60205  0.71309    In
S       0.3284  0.64068  0.76822     S
H       0.3291   0.7306   0.8048     H
S       0.3292  0.10823  0.61349     S
S       0.3293  0.67448    0.048     S
In     0.33031  0.50475  0.65547    In
S       0.3323  0.75747  0.12859     S
S       0.3328  0.54334   0.7136     S
S       0.3331  0.19025  0.69627     S
H       0.3335   0.3899   0.3521     H
H       0.3335   0.6583   0.1613     H
S       0.3352  0.44925  0.65927     S
H       0.3369   0.0849   0.7155     H
C       0.3442   0.3983   0.4021     C
In     0.35119  0.69924  0.10614    In
In     0.35178   0.1319  0.67178    In
S       0.3561  0.20827  0.21929     S
S       0.3565  0.03683  0.15773     S
C       0.3574   0.7818   0.7846     C
In     0.35751  0.09171  0.19663    In
S       0.3605  0.21847  0.89577     S
H       0.3621   0.3844   0.4684     H
S       0.3623  0.78179  0.32853     S
In     0.36232  0.84198  0.34942    In
In      0.3626  0.27821  0.91703    In
S       0.3631  0.08831  0.25467     S
S       0.3631  0.86461  0.40927     S
In     0.36403  0.14551  0.29487    In
S       0.3644  0.30166  0.97644     S
C       0.3646   0.3899   0.4483     C
S       0.3672   0.1411  0.34994     S
H       0.3773   0.7021   0.8263     H
S       0.3808  0.67983  0.96275     S
S       0.3811  0.19537  0.60767     S
S       0.3818  0.11427  0.52815     S
S       0.3818  0.27486  0.68728     S
H        0.383   0.9784   0.1084     H
S       0.3834   0.7619  0.04124     S
S       0.3872  0.84212  0.12182     S
In     0.39305  0.13391  0.58751    In
In     0.39305  0.70024  0.02172    In
In     0.39486    0.216  0.66936    In
N       0.3951   0.4041   0.4071     N
C        0.396   0.6944    0.842     C
H       0.3965   0.9187   0.0667     H
In     0.39684  0.78288  0.10276    In
In     0.39703  0.57721  0.62273    In
S       0.4011  0.61419  0.68099     S
H       0.4016    0.735    0.884     H
S       0.4024  0.81952  0.71728     S
H       0.4041   0.0769   0.4533     H
C       0.4049   0.3987   0.4369     C
S      0.40529  0.51838  0.62374     S
C        0.406   0.9618   0.1112     C
S       0.4068  0.87513  0.81471     S
C       0.4086   0.7121   0.8743     C
C        0.411    0.928   0.0884     C
In     0.41278  0.62862  0.78834    In
N       0.4147   0.6654   0.8376     N
H       0.4154   0.0632    0.393     H
S       0.4171  0.87103  0.32053     S
S       0.4172  0.30592  0.88666     S
In     0.41724  0.53814  0.74182    In
H       0.4177   0.4075   0.7403     H
S       0.4182  0.57521  0.79761     S
In     0.41845  0.82122  0.77442    In
C       0.4193   0.0906   0.4418     C
In     0.41996  0.45142  0.68662    In
S       0.4217   0.4823   0.7451     S
H       0.4224    0.349    0.619     H
H       0.4237   0.3885   0.6269     H
C       0.4244   0.3929   0.7189     C
C       0.4245   0.0838    0.409     C
N        0.428   0.4017   0.6911     N
H       0.4318   0.3488   0.7272     H
N       0.4318   0.6934     0.89     N
C        0.432   0.3609   0.7115     C
S       0.4322  0.68182  0.12526     S
S       0.4326  0.11397  0.68997     S
S       0.4329  0.28142  0.59878     S
S       0.4353  0.20321  0.52083     S
In     0.43533  0.18091  0.22683    In
S       0.4356  0.12333  0.18685     S
C       0.4365   0.3735   0.6679     C
N       0.4371    0.965   0.1354     N
C       0.4375   0.6658   0.8666     C
In      0.4376  0.01541  0.17143    In
S        0.438  0.76879  0.95439     S
H       0.4383   0.4013   0.4475     H
N       0.4386   0.3477   0.6789     N
S        0.439   0.4748   0.3792     S
S       0.4393  0.84761  0.03193     S
C       0.4402   0.3697   0.6317     C
S       0.4406  0.17831  0.28515     S
N       0.4407   0.9144   0.1064     N
N        0.441   0.1226   0.4556     N
S       0.4412  0.00445  0.22443     S
S       0.4418  0.37803  0.32131     S
In     0.44427  0.05958  0.26316    In
N       0.4452    0.111    0.402     N
In     0.44644  0.22213  0.58039    In
In     0.44707  0.20485  0.90967    In
In     0.44853  0.70964  0.94322    In
In     0.44941  0.11396  0.35088    In
In     0.44954  0.29414  0.65766    In
In     0.44971  0.76976   0.3423    In
In     0.44976  0.78832   0.0137    In
In     0.44978  0.14433  0.50933    In
H       0.4501   0.6298   0.8872     H
In      0.4502  0.85197  0.42367    In
S       0.4503  0.05589  0.31873     S
In       0.451   0.2878  0.99082    In
In     0.45482  0.86054  0.09106    In
In     0.45567  0.41751  0.37571    In
C        0.456   0.1328   0.4316     C
S       0.4564  0.14557  0.89157     S
S       0.4609  0.22635  0.97131     S
S        0.461  0.87115  0.48323     S
H       0.4611   0.1829   0.4521     H
S       0.4614  0.71042  0.32396     S
C        0.463   0.9355   0.1399     C
S       0.4634  0.30805  0.05013     S
H       0.4636   0.6196   0.8486     H
S       0.4638  0.79065  0.40399     S
C       0.4657   0.6375   0.8697     C
S       0.4686  0.59178  0.59344     S
S       0.4728  0.85409  0.65149     S
H       0.4771   0.3689   0.6255     H
In     0.47716  0.85054  0.70696    In
S       0.4787  0.90809  0.74721     S
H       0.4792   0.1706   0.4144     H
C       0.4803   0.1658   0.4356     C
In     0.48297  0.90548  0.80528    In
S        0.483  0.68622   0.0373     S
H       0.4832   0.8341   0.5569     H
S       0.4836  0.12096  0.60312     S
S       0.4836  0.96045  0.84353     S
S       0.4848  0.20258  0.68446     S
In      0.4864  0.60868  0.70868    In
S       0.4867  0.76869  0.11791     S
S       0.4879  0.64615  0.76399     S
In     0.48973  0.51212  0.65154    In
S       0.4911  0.78946  0.78512     S
S       0.4924  0.55023  0.70995     S
S       0.4955  0.45644  0.65488     S
In     0.49594  0.70733  0.09899    In
In     0.49621  0.14129  0.66481    In
H       0.4977   0.3562   0.1246     H
H       0.5023   0.6438   0.8754     H
In     0.50379  0.85871  0.33519    In
In     0.50406  0.29267  0.90101    In
S       0.5045  0.54356  0.34512     S
S       0.5076  0.44977  0.29005     S
S       0.5089  0.21054  0.21488     S
In     0.51027  0.48788  0.34846    In
S       0.5121  0.35385  0.23601     S
S       0.5133  0.23131  0.88209     S
In      0.5136  0.39132  0.29132    In
S       0.5152  0.79742  0.31554     S
S       0.5164  0.03955  0.15647     S
S       0.5164  0.87904  0.39688     S
H       0.5168   0.1659   0.4431     H
S        0.517  0.31378   0.9627     S
In     0.51703  0.09452  0.19472    In
C       0.5197   0.8342   0.5644     C
H       0.5208   0.8294   0.5856     H
S       0.5213  0.09191  0.25279     S
In     0.52284  0.14946  0.29304    In
H       0.5229   0.6311   0.3745     H
S       0.5272  0.14591  0.34851     S
S       0.5314  0.40822  0.40656     S
C       0.5343   0.3625   0.1303     C
S       0.5362  0.20935  0.59601     S
H       0.5364   0.3804   0.1514     H
S       0.5366  0.69195  0.94987     S
C        0.537   0.0645   0.8601     C
S       0.5386  0.28958  0.67604     S
H       0.5389   0.8171   0.5479     H
S        0.539  0.12885  0.51677     S
S       0.5391  0.77365  0.02869     S
S       0.5436  0.85443  0.10843     S
C        0.544   0.8672   0.5684     C
In     0.54433  0.58249  0.62429    In
In     0.54518  0.13946  0.90894    In
In       0.549   0.7122  0.00918    In
S       0.5497  0.94411  0.68127     S
In      0.5498  0.14803  0.57633    In
H       0.5499   0.3702   0.1128     H
In     0.55022  0.85567  0.49067    In
In     0.55024  0.21168   0.9863    In
In     0.55029  0.23024   0.6577    In
In     0.55046  0.70586  0.34234    In
In     0.55059  0.88604  0.64912    In
In     0.55147  0.29036  0.05678    In
In     0.55293  0.79515  0.09033    In
In     0.55356  0.77787  0.41961    In
N       0.5548    0.889    0.598     N
In     0.55573  0.94042  0.73684    In
S       0.5582  0.62197  0.67869     S
S       0.5588  0.99555  0.77557     S
N        0.559   0.8774   0.5444     N
N       0.5593   0.0856   0.8936     N
S       0.5594  0.82169  0.71485     S
C       0.5598   0.6303   0.3683     C
S       0.5607  0.15239  0.96807     S
S        0.561   0.5252   0.6208     S
N       0.5614   0.6523   0.3211     N
H       0.5617   0.5987   0.5525     H
S        0.562  0.23121  0.04561     S
In      0.5624  0.98459  0.82857    In
C       0.5625   0.3342   0.1334     C
N       0.5629    0.035   0.8646     N
C       0.5635   0.6265   0.3321     C
S       0.5644  0.87667  0.81315     S
In     0.56467  0.81909  0.77317    In
S       0.5647  0.79679  0.47917     S
S       0.5671  0.71858  0.40122     S
S       0.5674  0.88603  0.31003     S
S       0.5678  0.31818  0.87474     S
C        0.568   0.6391   0.2885     C
N       0.5682   0.3066     0.11     N
H       0.5682   0.6512   0.2728     H
N        0.572   0.5983   0.3089     N
C       0.5755   0.9162    0.591     C
C       0.5756   0.6071   0.2811     C
H       0.5763   0.6115   0.3731     H
H       0.5776    0.651    0.381     H
S       0.5783   0.5177   0.2549     S
In     0.58004  0.54858  0.31338    In
C       0.5807   0.9094   0.5582     C
In     0.58155  0.17878  0.22558    In
S       0.5818  0.42479  0.20239     S
H       0.5823   0.5925   0.2597     H
In     0.58276  0.46186  0.25818    In
S       0.5828  0.69408  0.11334     S
S       0.5829  0.12897  0.67947     S
H       0.5846   0.9368    0.607     H
N       0.5853   0.3346   0.1624     N
In     0.58722  0.37138  0.21166    In
C        0.589    0.072   0.9116     C
C       0.5914   0.2879   0.1257     C
S       0.5932  0.12487  0.18529     S
C        0.594   0.0382   0.8888     C
S      0.59471  0.48162  0.37626     S
C       0.5951   0.6013   0.5631     C
H       0.5959   0.9231   0.5467     H
S       0.5976  0.18048  0.28272     S
H       0.5984    0.265    0.116     H
S       0.5989  0.38581  0.31901     S
In     0.60297  0.42279  0.37727    In
In     0.60316  0.21712  0.89724    In
H       0.6035   0.0813   0.9333     H
C        0.604   0.3056    0.158     C
N       0.6049   0.5959   0.5929     N
In     0.60514    0.784  0.33064    In
In     0.60695  0.29976  0.97828    In
In     0.60695  0.86609  0.41249    In
S       0.6128  0.15788  0.87818     S
S       0.6166   0.2381  0.95876     S
H        0.617   0.0216   0.8916     H
S       0.6182  0.72514  0.31272     S
S       0.6182  0.88573  0.47185     S
S       0.6189  0.80463  0.39233     S
S       0.6192  0.32017  0.03725     S
H       0.6227   0.2979   0.1737     H
S       0.6328   0.8589  0.65006     S
C       0.6354   0.6101   0.5517     C
S       0.6356  0.69834  0.02356     S
In     0.63597  0.85449  0.70513    In
S       0.6369  0.13539  0.59073     S
S       0.6369  0.91169  0.74533     S
In      0.6374  0.72179  0.08297    In
In     0.63768  0.15802  0.65058    In
S       0.6377  0.21821  0.67147     S
H       0.6379   0.6156   0.5316     H
S       0.6395  0.78153  0.10423     S
In     0.64249  0.90829  0.80337    In
C       0.6426   0.2182   0.2154     C
S       0.6435  0.96317  0.84227     S
S       0.6439  0.79173  0.78071     S
In     0.64822   0.8681  0.32822    In
In     0.64881  0.30076  0.89386    In
C       0.6558   0.6017   0.5979     C
H       0.6631   0.9151   0.2845     H
S       0.6648  0.55075  0.34073     S
H       0.6665   0.3417   0.8387     H
H       0.6665   0.6101   0.6479     H
S       0.6669  0.80975  0.30373     S
S       0.6672  0.45666   0.2864     S
S       0.6677  0.24253  0.87141     S
In     0.66969  0.49525  0.34453    In
S       0.6707  0.32552    0.952     S
S       0.6708  0.89177  0.38651     S
H       0.6709   0.2694   0.1952     H
S       0.6716  0.35932  0.23178     S
In     0.67422  0.39795  0.28691    In
N       0.6754   0.6105   0.5733     N
H       0.6768   0.1103   0.6867     H
C        0.677    0.249   0.1996     C
H       0.6782   0.6875   0.1367     H
N        0.681   0.2047   0.2059     N
S       0.6829  0.41481  0.40431     S
C       0.6866   0.6001   0.6279     C
H       0.6939    0.577    0.626     H
C       0.6977   0.9096   0.2888     C
C       0.6998   0.3372   0.8462     C
N        0.708   0.8909   0.3053     N
N       0.7087   0.3233   0.8689     N
In     0.71035  0.82695  0.76843    In
H       0.7123   0.6549   0.1223     H
C       0.7138    0.679   0.1328     C
C       0.7139   0.1047   0.6849     C
S       0.7154  0.82642   0.7112     S
N       0.7156   0.2274    0.198     N
H       0.7181   0.0829   0.6685     H
N       0.7188   0.1494   0.6628     N
C        0.719   0.1775   0.2099     C
H       0.7197   0.6125   0.6293     H
N       0.7207   0.7122   0.0938     N
S       0.7217  0.88057  0.80975     S
H       0.7273    0.104   0.7066     H
H       0.7329   0.6839   0.1541     H
C       0.7408   0.6949   0.1111     C
C       0.7423    0.129    0.675     C
C       0.7425    0.922   0.2772     C
C       0.7447   0.3437   0.8355     C
H       0.7452   0.9374    0.265     H
In     0.74548  0.43114  0.36946    In
S       0.7458  0.68533  0.60783     S
S       0.7471  0.48974  0.37464     S
H       0.7484   0.3528   0.8176     H
H       0.7516   0.1824   0.6472     H
S       0.7529  0.62536  0.51026     S
S       0.7542  0.39217  0.31467     S
In     0.75452  0.63054  0.56886    In
H       0.7548    0.735   0.0626     H
C       0.7553   0.1645   0.6563     C
C       0.7575   0.7228    0.078     C
C       0.7577    0.325    0.871     C
C       0.7592   0.8889   0.3051     C
H       0.7671   0.8459   0.3161     H
H       0.7727   0.2934    0.896     H
S       0.7783  0.19025  0.11943     S
N       0.7793   0.9062   0.2878     N
H       0.7803   0.3707   0.3875     H
C        0.781   0.7901   0.8225     C
N       0.7812   0.3372   0.8506     N
H       0.7819   0.3315   0.9171     H
N       0.7844    0.802   0.7726     N
S       0.7846   0.2888  0.17358     S
C       0.7861   0.3151   0.8953     C
C       0.7862   0.8672    0.321     C
H       0.7877   0.8777   0.3451     H
In     0.78965  0.23157  0.17305    In
N       0.7913   0.1311   0.6767     N
N        0.792   0.6947   0.1091     N
C       0.8002   0.1538   0.6628     C
C       0.8023   0.7112   0.0904     C
H       0.8061    0.374    0.423     H
C       0.8134   0.3721   0.3999     C
S       0.8171  0.59569  0.58519     S
N        0.819   0.7941   0.7953     N
H       0.8218   0.8633   0.3125     H
C        0.823   0.8004    0.751     C
H       0.8232   0.3133   0.8897     H
N       0.8246   0.4267   0.3895     N
In     0.82578  0.71309  0.60205    In
S       0.8284  0.76822  0.64068     S
H       0.8291   0.8048   0.7306     H
S       0.8292  0.61349  0.10823     S
S       0.8293    0.048  0.67448     S
In     0.83031  0.65547  0.50475    In
S       0.8323  0.12859  0.75747     S
S       0.8328   0.7136  0.54334     S
S       0.8331  0.69627  0.19025     S
H       0.8335   0.1613   0.6583     H
H       0.8335   0.3521   0.3899     H
S       0.8352  0.65927  0.44925     S
H       0.8369   0.7155   0.0849     H
C       0.8442   0.4021   0.3983     C
In     0.85119  0.10614  0.69924    In
In     0.85178  0.67178   0.1319    In
S       0.8561  0.21929  0.20827     S
S       0.8565  0.15773  0.03683     S
C       0.8574   0.7846   0.7818     C
In     0.85751  0.19663  0.09171    In
S       0.8605  0.89577  0.21847     S
H       0.8621   0.4684   0.3844     H
S       0.8623  0.32853  0.78179     S
In     0.86232  0.34942  0.84198    In
In      0.8626  0.91703  0.27821    In
S       0.8631  0.25467  0.08831     S
S       0.8631  0.40927  0.86461     S
In     0.86403  0.29487  0.14551    In
S       0.8644  0.97644  0.30166     S
C       0.8646   0.4483   0.3899     C
S       0.8672  0.34994   0.1411     S
H       0.8773   0.8263   0.7021     H
S       0.8808  0.96275  0.67983     S
S       0.8811  0.60767  0.19537     S
S       0.8818  0.52815  0.11427     S
S       0.8818  0.68728  0.27486     S
H        0.883   0.1084   0.9784     H
S       0.8834  0.04124   0.7619     S
S       0.8872  0.12182  0.84212     S
In     0.89305  0.02172  0.70024    In
In     0.89305  0.58751  0.13391    In
In     0.89486  0.66936    0.216    In
N       0.8951   0.4071   0.4041     N
C        0.896    0.842   0.6944     C
H       0.8965   0.0667   0.9187     H
In     0.89684  0.10276  0.78288    In
In     0.89703  0.62273  0.57721    In
S       0.9011  0.68099  0.61419     S
H       0.9016    0.884    0.735     H
S       0.9024  0.71728  0.81952     S
H       0.9041   0.4533   0.0769     H
C       0.9049   0.4369   0.3987     C
S      0.90529  0.62374  0.51838     S
C        0.906   0.1112   0.9618     C
S       0.9068  0.81471  0.87513     S
C       0.9086   0.8743   0.7121     C
C        0.911   0.0884    0.928     C
In     0.91278  0.78834  0.62862    In
N       0.9147   0.8376   0.6654     N
H       0.9154    0.393   0.0632     H
S       0.9171  0.32053  0.87103     S
S       0.9172  0.88666  0.30592     S
In     0.91724  0.74182  0.53814    In
H       0.9177   0.7403   0.4075     H
S       0.9182  0.79761  0.57521     S
In     0.91845  0.77442  0.82122    In
C       0.9193   0.4418   0.0906     C
In     0.91996  0.68662  0.45142    In
S       0.9217   0.7451   0.4823     S
H       0.9224    0.619    0.349     H
H       0.9237   0.6269   0.3885     H
C       0.9244   0.7189   0.3929     C
C       0.9245    0.409   0.0838     C
N        0.928   0.6911   0.4017     N
H       0.9318   0.7272   0.3488     H
N       0.9318     0.89   0.6934     N
C        0.932   0.7115   0.3609     C
S       0.9322  0.12526  0.68182     S
S       0.9326  0.68997  0.11397     S
S       0.9329  0.59878  0.28142     S
S       0.9353  0.52083  0.20321     S
In     0.93533  0.22683  0.18091    In
S       0.9356  0.18685  0.12333     S
C       0.9365   0.6679   0.3735     C
N       0.9371   0.1354    0.965     N
C       0.9375   0.8666   0.6658     C
In      0.9376  0.17143  0.01541    In
S        0.938  0.95439  0.76879     S
H       0.9383   0.4475   0.4013     H
N       0.9386   0.6789   0.3477     N
S        0.939   0.3792   0.4748     S
S       0.9393  0.03193  0.84761     S
C       0.9402   0.6317   0.3697     C
S       0.9406  0.28515  0.17831     S
N       0.9407   0.1064   0.9144     N
N        0.941   0.4556   0.1226     N
S       0.9412  0.22443  0.00445     S
S       0.9418  0.32131  0.37803     S
In     0.94427  0.26316  0.05958    In
N       0.9452    0.402    0.111     N
In     0.94644  0.58039  0.22213    In
In     0.94707  0.90967  0.20485    In
In     0.94853  0.94322  0.70964    In
In     0.94941  0.35088  0.11396    In
In     0.94954  0.65766  0.29414    In
In     0.94971   0.3423  0.76976    In
In     0.94976   0.0137  0.78832    In
In     0.94978  0.50933  0.14433    In
H       0.9501   0.8872   0.6298     H
In      0.9502  0.42367  0.85197    In
S       0.9503  0.31873  0.05589     S
In       0.951  0.99082   0.2878    In
In     0.95482  0.09106  0.86054    In
In     0.95567  0.37571  0.41751    In
C        0.956   0.4316   0.1328     C
S       0.9564  0.89157  0.14557     S
S       0.9609  0.97131  0.22635     S
S        0.961  0.48323  0.87115     S
H       0.9611   0.4521   0.1829     H
S       0.9614  0.32396  0.71042     S
C        0.963   0.1399   0.9355     C
S       0.9634  0.05013  0.30805     S
H       0.9636   0.8486   0.6196     H
S       0.9638  0.40399  0.79065     S
C       0.9657   0.8697   0.6375     C
S       0.9686  0.59344  0.59178     S
S       0.9728  0.65149  0.85409     S
H       0.9771   0.6255   0.3689     H
In     0.97716  0.70696  0.85054    In
S       0.9787  0.74721  0.90809     S
H       0.9792   0.4144   0.1706     H
C       0.9803   0.4356   0.1658     C
In     0.98297  0.80528  0.90548    In
S        0.983   0.0373  0.68622     S
H       0.9832   0.5569   0.8341     H
S       0.9836  0.60312  0.12096     S
S       0.9836  0.84353  0.96045     S
S       0.9848  0.68446  0.20258     S
In      0.9864  0.70868  0.60868    In
S       0.9867  0.11791  0.76869     S
S       0.9879  0.76399  0.64615     S
In     0.98973  0.65154  0.51212    In
S       0.9911  0.78512  0.78946     S
S       0.9924  0.70995  0.55023     S
S       0.9955  0.65488  0.45644     S
In     0.99594  0.09899  0.70733    In
In     0.99621  0.66481  0.14129    In
H       0.9977   0.1246   0.3562     H
