data_I
_chemical_name_common  '/home/zhangsd/repos/MofS-CGCNN/ML/data/SSD/clean_cifs/EMIGUD_charged'
_cell_length_a 22.41650
_cell_length_b 22.43880
_cell_length_c 33.99400
_cell_angle_alpha 90.00000
_cell_angle_beta  90.00000
_cell_angle_gamma 90.00000
_space_group_name_H-M_alt      'P 1'


loop_
_space_group_symop_operation_xyz
  'x, y, z' 

loop_
_atom_site_label
_atom_site_fract_x
_atom_site_fract_y
_atom_site_fract_z
_atom_site_type_symbol
C       0.0071   0.1066   0.4366     C
C       0.0071   0.6066   0.0634     C
H       0.0103     0.02   0.4553     H
H       0.0103     0.52   0.0447     H
C       0.0127   0.4446   0.9572     C
C       0.0127   0.9446   0.5428     C
S      0.01823   0.4663  0.36781     S
S      0.01823   0.9663  0.13219     S
H       0.0199   0.3098   0.9194     H
H       0.0199   0.8098   0.5806     H
In     0.02211  0.44137  0.65825    In
In     0.02211  0.94137  0.84175    In
C       0.0298   0.3433   0.9352     C
C       0.0298   0.8433   0.5648     C
S      0.04349   0.1783  0.91744     S
S      0.04349   0.6783  0.58256     S
H       0.0548   0.1815   0.1136     H
H       0.0548   0.6815   0.3864     H
N       0.0614   0.1007   0.1764     N
N       0.0614   0.6007   0.3236     N
C       0.0634   0.4456   0.9797     C
C       0.0634   0.9456   0.5203     C
S      0.06794   0.4536  0.72252     S
S      0.06794   0.9536  0.77748     S
S        0.069   0.3727  0.61381     S
S        0.069   0.8727  0.88619     S
In     0.07129  0.08581  0.88665    In
In     0.07129  0.58581  0.61335    In
H       0.0713   0.0839   0.3934     H
H       0.0713   0.5839   0.1066     H
C       0.0715   0.1074   0.4177     C
C       0.0715   0.6074   0.0823     C
H       0.0752     0.48    0.994     H
H       0.0752     0.98    0.506     H
H       0.0775    0.048   0.2222     H
H       0.0775    0.548   0.2778     H
C       0.0801   0.3442   0.9571     C
C       0.0801   0.8442   0.5429     C
H        0.083   0.1485   0.4117     H
H        0.083   0.6485   0.0883     H
C       0.0902   0.1835   0.1289     C
C       0.0902   0.6835   0.3711     C
C       0.0925   0.0789   0.2058     C
C       0.0925   0.5789   0.2942     C
H       0.0955   0.2612   0.0738     H
H       0.0955   0.7612   0.4262     H
C       0.0957   0.3947   0.9802     C
C       0.0957   0.8947   0.5198     C
C       0.0989   0.1458   0.1611     C
C       0.0989   0.6458   0.3389     C
H       0.1002   0.0901   0.4362     H
H       0.1002   0.5901   0.0638     H
N       0.1229   0.3018   0.9629     N
N       0.1229   0.8018   0.5371     N
S        0.129  0.44094  0.09976     S
S        0.129  0.94094  0.40024     S
S      0.12952   0.1056  0.82514     S
S      0.12952   0.6056  0.67486     S
S       0.1326  0.02402  0.93292     S
S       0.1326  0.52402  0.56708     S
S      0.13326   0.0231   0.2985     S
S      0.13326   0.5231   0.2015     S
C       0.1348   0.2236   0.1202     C
C       0.1348   0.7236   0.3798     C
C        0.136   0.2593    0.085     C
C        0.136   0.7593    0.415     C
In     0.14083  0.21855  0.93225    In
In     0.14083  0.71855  0.56775    In
N       0.1462   0.1027   0.2111     N
N       0.1462   0.3797   0.0016     N
N       0.1462   0.6027   0.2889     N
N       0.1462   0.8797   0.4984     N
H       0.1493   0.2997   0.0914     H
H       0.1493   0.7997   0.4086     H
C       0.1494   0.1469   0.1831     C
C       0.1494   0.6469   0.3169     C
In     0.15711  0.00814  0.79387    In
In     0.15711  0.50814  0.70613    In
In     0.15973  0.42629  0.59811    In
In     0.15973  0.92629  0.90189    In
C       0.1601   0.3245   0.9897     C
C       0.1601   0.8245   0.5103     C
H        0.163   0.2414   0.0658     H
H        0.163   0.7414   0.4342     H
C        0.187   0.2258   0.1438     C
C        0.187   0.7258   0.3562     C
In     0.18853  0.00273  0.35795    In
In     0.18853  0.50273  0.14205    In
H       0.1936   0.3032   0.9995     H
H       0.1936   0.8032   0.5005     H
C       0.1942   0.1864   0.1742     C
C       0.1942   0.6864   0.3258     C
In     0.19551  0.43232  0.04438    In
In     0.19551  0.93232  0.45562    In
S       0.1965   0.2537  0.87583     S
S       0.1965   0.7537  0.62417     S
S        0.198   0.1697   0.9833     S
S        0.198   0.6697   0.5167     S
In     0.20364  0.08305  0.26132    In
In     0.20364  0.58305  0.23868    In
S       0.2091   0.0227  0.49304     S
S       0.2091   0.5227  0.00696     S
S       0.2137   0.0266  0.73474     S
S       0.2137   0.5266  0.76526     S
S      0.21628  0.09982  0.38908     S
S      0.21628  0.59982  0.11092     S
H       0.2171   0.2546   0.1384     H
H       0.2171   0.7546   0.3616     H
S      0.21748   0.3691  0.55239     S
S      0.21748   0.8691  0.94761     S
S      0.21782  0.44726   0.6595     S
S      0.21782  0.94726   0.8405     S
In      0.2223  0.16168  0.84364    In
In      0.2223  0.66168  0.65636    In
S       0.2231   0.1827  0.28447     S
S       0.2231   0.6827  0.21553     S
In      0.2263  0.07874  0.95051    In
In      0.2263  0.57874  0.54949    In
H         0.23   0.1864   0.1891     H
H         0.23   0.6864   0.3109     H
H         0.27   0.1864   0.6891     H
H         0.27   0.6864   0.8109     H
In      0.2737  0.07874  0.45051    In
In      0.2737  0.57874  0.04949    In
S       0.2769   0.1827  0.78447     S
S       0.2769   0.6827  0.71553     S
In      0.2777  0.16168  0.34364    In
In      0.2777  0.66168  0.15636    In
S      0.28218  0.44726   0.1595     S
S      0.28218  0.94726   0.3405     S
S      0.28252   0.3691  0.05239     S
S      0.28252   0.8691  0.44761     S
H       0.2829   0.2546   0.6384     H
H       0.2829   0.7546   0.8616     H
S      0.28372  0.09982  0.88908     S
S      0.28372  0.59982  0.61092     S
S       0.2863   0.0266  0.23474     S
S       0.2863   0.5266  0.26526     S
S       0.2909   0.0227  0.99304     S
S       0.2909   0.5227  0.50696     S
In     0.29636  0.08305  0.76132    In
In     0.29636  0.58305  0.73868    In
S        0.302   0.1697   0.4833     S
S        0.302   0.6697   0.0167     S
S       0.3035   0.2537  0.37583     S
S       0.3035   0.7537  0.12417     S
In     0.30449  0.43232  0.54438    In
In     0.30449  0.93232  0.95562    In
C       0.3058   0.1864   0.6742     C
C       0.3058   0.6864   0.8258     C
H       0.3064   0.3032   0.4995     H
H       0.3064   0.8032   0.0005     H
In     0.31147  0.00273  0.85795    In
In     0.31147  0.50273  0.64205    In
C        0.313   0.2258   0.6438     C
C        0.313   0.7258   0.8562     C
H        0.337   0.2414   0.5658     H
H        0.337   0.7414   0.9342     H
C       0.3399   0.3245   0.4897     C
C       0.3399   0.8245   0.0103     C
In     0.34027  0.42629  0.09811    In
In     0.34027  0.92629  0.40189    In
In     0.34289  0.00814  0.29387    In
In     0.34289  0.50814  0.20613    In
C       0.3506   0.1469   0.6831     C
C       0.3506   0.6469   0.8169     C
H       0.3507   0.2997   0.5914     H
H       0.3507   0.7997   0.9086     H
N       0.3538   0.1027   0.7111     N
N       0.3538   0.3797   0.5016     N
N       0.3538   0.6027   0.7889     N
N       0.3538   0.8797   0.9984     N
In     0.35917  0.21855  0.43225    In
In     0.35917  0.71855  0.06775    In
C        0.364   0.2593    0.585     C
C        0.364   0.7593    0.915     C
C       0.3652   0.2236   0.6202     C
C       0.3652   0.7236   0.8798     C
S      0.36674   0.0231   0.7985     S
S      0.36674   0.5231   0.7015     S
S       0.3674  0.02402  0.43292     S
S       0.3674  0.52402  0.06708     S
S      0.37048   0.1056  0.32514     S
S      0.37048   0.6056  0.17486     S
S        0.371  0.44094  0.59976     S
S        0.371  0.94094  0.90024     S
N       0.3771   0.3018   0.4629     N
N       0.3771   0.8018   0.0371     N
H       0.3998   0.0901   0.9362     H
H       0.3998   0.5901   0.5638     H
C       0.4011   0.1458   0.6611     C
C       0.4011   0.6458   0.8389     C
C       0.4043   0.3947   0.4802     C
C       0.4043   0.8947   0.0198     C
H       0.4045   0.2612   0.5738     H
H       0.4045   0.7612   0.9262     H
C       0.4075   0.0789   0.7058     C
C       0.4075   0.5789   0.7942     C
C       0.4098   0.1835   0.6289     C
C       0.4098   0.6835   0.8711     C
H        0.417   0.1485   0.9117     H
H        0.417   0.6485   0.5883     H
C       0.4199   0.3442   0.4571     C
C       0.4199   0.8442   0.0429     C
H       0.4225    0.048   0.7222     H
H       0.4225    0.548   0.7778     H
H       0.4248     0.48    0.494     H
H       0.4248     0.98    0.006     H
C       0.4285   0.1074   0.9177     C
C       0.4285   0.6074   0.5823     C
H       0.4287   0.0839   0.8934     H
H       0.4287   0.5839   0.6066     H
In     0.42871  0.08581  0.38665    In
In     0.42871  0.58581  0.11335    In
S        0.431   0.3727  0.11381     S
S        0.431   0.8727  0.38619     S
S      0.43206   0.4536  0.22252     S
S      0.43206   0.9536  0.27748     S
C       0.4366   0.4456   0.4797     C
C       0.4366   0.9456   0.0203     C
N       0.4386   0.1007   0.6764     N
N       0.4386   0.6007   0.8236     N
H       0.4452   0.1815   0.6136     H
H       0.4452   0.6815   0.8864     H
S      0.45651   0.1783  0.41744     S
S      0.45651   0.6783  0.08256     S
C       0.4702   0.3433   0.4352     C
C       0.4702   0.8433   0.0648     C
In     0.47789  0.44137  0.15825    In
In     0.47789  0.94137  0.34175    In
H       0.4801   0.3098   0.4194     H
H       0.4801   0.8098   0.0806     H
S      0.48177   0.4663  0.86781     S
S      0.48177   0.9663  0.63219     S
C       0.4873   0.4446   0.4572     C
C       0.4873   0.9446   0.0428     C
H       0.4897     0.02   0.9553     H
H       0.4897     0.52   0.5447     H
C       0.4929   0.1066   0.9366     C
C       0.4929   0.6066   0.5634     C
C       0.5071   0.3934   0.4366     C
C       0.5071   0.8934   0.0634     C
H       0.5103     0.48   0.4553     H
H       0.5103     0.98   0.0447     H
C       0.5127   0.0554   0.9572     C
C       0.5127   0.5554   0.5428     C
S      0.51823   0.0337  0.36781     S
S      0.51823   0.5337  0.13219     S
H       0.5199   0.1902   0.9194     H
H       0.5199   0.6902   0.5806     H
In     0.52211  0.05863  0.65825    In
In     0.52211  0.55863  0.84175    In
C       0.5298   0.1567   0.9352     C
C       0.5298   0.6567   0.5648     C
S      0.54349   0.3217  0.91744     S
S      0.54349   0.8217  0.58256     S
H       0.5548   0.3185   0.1136     H
H       0.5548   0.8185   0.3864     H
N       0.5614   0.3993   0.1764     N
N       0.5614   0.8993   0.3236     N
C       0.5634   0.0544   0.9797     C
C       0.5634   0.5544   0.5203     C
S      0.56794   0.0464  0.72252     S
S      0.56794   0.5464  0.77748     S
S        0.569   0.1273  0.61381     S
S        0.569   0.6273  0.88619     S
In     0.57129  0.41419  0.88665    In
In     0.57129  0.91419  0.61335    In
H       0.5713   0.4161   0.3934     H
H       0.5713   0.9161   0.1066     H
C       0.5715   0.3926   0.4177     C
C       0.5715   0.8926   0.0823     C
H       0.5752     0.02    0.994     H
H       0.5752     0.52    0.506     H
H       0.5775    0.452   0.2222     H
H       0.5775    0.952   0.2778     H
C       0.5801   0.1558   0.9571     C
C       0.5801   0.6558   0.5429     C
H        0.583   0.3515   0.4117     H
H        0.583   0.8515   0.0883     H
C       0.5902   0.3165   0.1289     C
C       0.5902   0.8165   0.3711     C
C       0.5925   0.4211   0.2058     C
C       0.5925   0.9211   0.2942     C
H       0.5955   0.2388   0.0738     H
H       0.5955   0.7388   0.4262     H
C       0.5957   0.1053   0.9802     C
C       0.5957   0.6053   0.5198     C
C       0.5989   0.3542   0.1611     C
C       0.5989   0.8542   0.3389     C
H       0.6002   0.4099   0.4362     H
H       0.6002   0.9099   0.0638     H
N       0.6229   0.1982   0.9629     N
N       0.6229   0.6982   0.5371     N
S        0.629  0.05906  0.09976     S
S        0.629  0.55906  0.40024     S
S      0.62952   0.3944  0.82514     S
S      0.62952   0.8944  0.67486     S
S       0.6326  0.47598  0.93292     S
S       0.6326  0.97598  0.56708     S
S      0.63326   0.4769   0.2985     S
S      0.63326   0.9769   0.2015     S
C       0.6348   0.2764   0.1202     C
C       0.6348   0.7764   0.3798     C
C        0.636   0.2407    0.085     C
C        0.636   0.7407    0.415     C
In     0.64083  0.28145  0.93225    In
In     0.64083  0.78145  0.56775    In
N       0.6462   0.1203   0.0016     N
N       0.6462   0.3973   0.2111     N
N       0.6462   0.6203   0.4984     N
N       0.6462   0.8973   0.2889     N
H       0.6493   0.2003   0.0914     H
H       0.6493   0.7003   0.4086     H
C       0.6494   0.3531   0.1831     C
C       0.6494   0.8531   0.3169     C
In     0.65711  0.49186  0.79387    In
In     0.65711  0.99186  0.70613    In
In     0.65973  0.07371  0.59811    In
In     0.65973  0.57371  0.90189    In
C       0.6601   0.1755   0.9897     C
C       0.6601   0.6755   0.5103     C
H        0.663   0.2586   0.0658     H
H        0.663   0.7586   0.4342     H
C        0.687   0.2742   0.1438     C
C        0.687   0.7742   0.3562     C
In     0.68853  0.49727  0.35795    In
In     0.68853  0.99727  0.14205    In
H       0.6936   0.1968   0.9995     H
H       0.6936   0.6968   0.5005     H
C       0.6942   0.3136   0.1742     C
C       0.6942   0.8136   0.3258     C
In     0.69551  0.06768  0.04438    In
In     0.69551  0.56768  0.45562    In
S       0.6965   0.2463  0.87583     S
S       0.6965   0.7463  0.62417     S
S        0.698   0.3303   0.9833     S
S        0.698   0.8303   0.5167     S
In     0.70364  0.41695  0.26132    In
In     0.70364  0.91695  0.23868    In
S       0.7091   0.4773  0.49304     S
S       0.7091   0.9773  0.00696     S
S       0.7137   0.4734  0.73474     S
S       0.7137   0.9734  0.76526     S
S      0.71628  0.40018  0.38908     S
S      0.71628  0.90018  0.11092     S
H       0.7171   0.2454   0.1384     H
H       0.7171   0.7454   0.3616     H
S      0.71748   0.1309  0.55239     S
S      0.71748   0.6309  0.94761     S
S      0.71782  0.05274   0.6595     S
S      0.71782  0.55274   0.8405     S
In      0.7223  0.33832  0.84364    In
In      0.7223  0.83832  0.65636    In
S       0.7231   0.3173  0.28447     S
S       0.7231   0.8173  0.21553     S
In      0.7263  0.42126  0.95051    In
In      0.7263  0.92126  0.54949    In
H         0.73   0.3136   0.1891     H
H         0.73   0.8136   0.3109     H
H         0.77   0.3136   0.6891     H
H         0.77   0.8136   0.8109     H
In      0.7737  0.42126  0.45051    In
In      0.7737  0.92126  0.04949    In
S       0.7769   0.3173  0.78447     S
S       0.7769   0.8173  0.71553     S
In      0.7777  0.33832  0.34364    In
In      0.7777  0.83832  0.15636    In
S      0.78218  0.05274   0.1595     S
S      0.78218  0.55274   0.3405     S
S      0.78252   0.1309  0.05239     S
S      0.78252   0.6309  0.44761     S
H       0.7829   0.2454   0.6384     H
H       0.7829   0.7454   0.8616     H
S      0.78372  0.40018  0.88908     S
S      0.78372  0.90018  0.61092     S
S       0.7863   0.4734  0.23474     S
S       0.7863   0.9734  0.26526     S
S       0.7909   0.4773  0.99304     S
S       0.7909   0.9773  0.50696     S
In     0.79636  0.41695  0.76132    In
In     0.79636  0.91695  0.73868    In
S        0.802   0.3303   0.4833     S
S        0.802   0.8303   0.0167     S
S       0.8035   0.2463  0.37583     S
S       0.8035   0.7463  0.12417     S
In     0.80449  0.06768  0.54438    In
In     0.80449  0.56768  0.95562    In
C       0.8058   0.3136   0.6742     C
C       0.8058   0.8136   0.8258     C
H       0.8064   0.1968   0.4995     H
H       0.8064   0.6968   0.0005     H
In     0.81147  0.49727  0.85795    In
In     0.81147  0.99727  0.64205    In
C        0.813   0.2742   0.6438     C
C        0.813   0.7742   0.8562     C
H        0.837   0.2586   0.5658     H
H        0.837   0.7586   0.9342     H
C       0.8399   0.1755   0.4897     C
C       0.8399   0.6755   0.0103     C
In     0.84027  0.07371  0.09811    In
In     0.84027  0.57371  0.40189    In
In     0.84289  0.49186  0.29387    In
In     0.84289  0.99186  0.20613    In
C       0.8506   0.3531   0.6831     C
C       0.8506   0.8531   0.8169     C
H       0.8507   0.2003   0.5914     H
H       0.8507   0.7003   0.9086     H
N       0.8538   0.1203   0.5016     N
N       0.8538   0.3973   0.7111     N
N       0.8538   0.6203   0.9984     N
N       0.8538   0.8973   0.7889     N
In     0.85917  0.28145  0.43225    In
In     0.85917  0.78145  0.06775    In
C        0.864   0.2407    0.585     C
C        0.864   0.7407    0.915     C
C       0.8652   0.2764   0.6202     C
C       0.8652   0.7764   0.8798     C
S      0.86674   0.4769   0.7985     S
S      0.86674   0.9769   0.7015     S
S       0.8674  0.47598  0.43292     S
S       0.8674  0.97598  0.06708     S
S      0.87048   0.3944  0.32514     S
S      0.87048   0.8944  0.17486     S
S        0.871  0.05906  0.59976     S
S        0.871  0.55906  0.90024     S
N       0.8771   0.1982   0.4629     N
N       0.8771   0.6982   0.0371     N
H       0.8998   0.4099   0.9362     H
H       0.8998   0.9099   0.5638     H
C       0.9011   0.3542   0.6611     C
C       0.9011   0.8542   0.8389     C
C       0.9043   0.1053   0.4802     C
C       0.9043   0.6053   0.0198     C
H       0.9045   0.2388   0.5738     H
H       0.9045   0.7388   0.9262     H
C       0.9075   0.4211   0.7058     C
C       0.9075   0.9211   0.7942     C
C       0.9098   0.3165   0.6289     C
C       0.9098   0.8165   0.8711     C
H        0.917   0.3515   0.9117     H
H        0.917   0.8515   0.5883     H
C       0.9199   0.1558   0.4571     C
C       0.9199   0.6558   0.0429     C
H       0.9225    0.452   0.7222     H
H       0.9225    0.952   0.7778     H
H       0.9248     0.02    0.494     H
H       0.9248     0.52    0.006     H
C       0.9285   0.3926   0.9177     C
C       0.9285   0.8926   0.5823     C
H       0.9287   0.4161   0.8934     H
H       0.9287   0.9161   0.6066     H
In     0.92871  0.41419  0.38665    In
In     0.92871  0.91419  0.11335    In
S        0.931   0.1273  0.11381     S
S        0.931   0.6273  0.38619     S
S      0.93206   0.0464  0.22252     S
S      0.93206   0.5464  0.27748     S
C       0.9366   0.0544   0.4797     C
C       0.9366   0.5544   0.0203     C
N       0.9386   0.3993   0.6764     N
N       0.9386   0.8993   0.8236     N
H       0.9452   0.3185   0.6136     H
H       0.9452   0.8185   0.8864     H
S      0.95651   0.3217  0.41744     S
S      0.95651   0.8217  0.08256     S
C       0.9702   0.1567   0.4352     C
C       0.9702   0.6567   0.0648     C
In     0.97789  0.05863  0.15825    In
In     0.97789  0.55863  0.34175    In
H       0.9801   0.1902   0.4194     H
H       0.9801   0.6902   0.0806     H
S      0.98177   0.0337  0.86781     S
S      0.98177   0.5337  0.63219     S
C       0.9873   0.0554   0.4572     C
C       0.9873   0.5554   0.0428     C
H       0.9897     0.48   0.9553     H
H       0.9897     0.98   0.5447     H
C       0.9929   0.3934   0.9366     C
C       0.9929   0.8934   0.5634     C
