data_I
_chemical_name_common  '/home/zhangsd/repos/MofS-CGCNN/ML/data/SSD/clean_cifs/EMIHEO_charged'
_cell_length_a 16.61600
_cell_length_b 23.31630
_cell_length_c 23.31630
_cell_angle_alpha 82.70590
_cell_angle_beta  69.12580
_cell_angle_gamma 69.12590
_space_group_name_H-M_alt      'P 1'


loop_
_space_group_symop_operation_xyz
  'x, y, z' 

loop_
_atom_site_label
_atom_site_fract_x
_atom_site_fract_y
_atom_site_fract_z
_atom_site_type_symbol
S          0.0      0.0      0.0     S
In     0.01815  0.00382  0.79342    In
In     0.02151  0.66856  0.61842    In
S       0.0314   0.4182   0.3402     S
S        0.035   0.4583   0.6277     S
S        0.041   0.0878   0.8342     S
In     0.05531  0.45911  0.41971    In
In     0.06157  0.50382  0.70658    In
In     0.06599  0.23159  0.12123    In
Cd     0.06711   0.9556  0.08312    Cd
S       0.0851   0.7506   0.0752     S
S       0.0857   0.7494   0.5752     S
S       0.0925   0.0368   0.1274     S
N       0.1001   0.3006   0.1472     N
Cd     0.10583   0.0444  0.91688    Cd
H       0.1132   0.3574    0.075     H
C       0.1145   0.3485   0.1145     C
S        0.121   0.5417   0.3723     S
S       0.1248   0.8342   0.9122     S
C        0.125    0.307    0.193     C
S       0.1252   0.5878   0.6658     S
S        0.129   0.1277   0.9583     S
C       0.1355   0.3855   0.1515     C
H       0.1368    0.425   0.1426     H
Cd     0.14417  0.58312   0.4556    Cd
N       0.1499   0.3528   0.1994     N
S       0.1575   0.3726   0.4632     S
S       0.1643   0.9248   0.7506     S
S       0.1649   0.4248   0.7494     S
Cd     0.18289  0.41688   0.5444    Cd
In     0.18401  0.37877  0.26841    In
In     0.18843  0.79342  0.99618    In
In     0.19469  0.08029  0.04089    In
S        0.209   0.6658   0.4122     S
S        0.215   0.8723   0.0417     S
S       0.2186   0.1598   0.0818     S
In     0.22849  0.88158  0.83144    In
In     0.23185  0.70658  0.49618    In
S         0.25      0.5      0.5     S
S        0.252   0.4543   0.2119     S
S       0.2567   0.9632   0.8726     S
In     0.27197  0.49618  0.29342    In
Cd     0.27271   0.5444  0.58312    Cd
S       0.2865   0.2886   0.3012     S
S        0.287   0.3342   0.5878     S
S       0.2937   0.7881   0.4543     S
In     0.30849  0.33144  0.38158    In
In     0.30993  0.38158  0.66856    In
In     0.31587  0.91971  0.95911    In
S       0.3318   0.7119   0.9543     S
S       0.3373   0.6277   0.5417     S
S       0.3391   0.5752   0.2506     S
S       0.3408      1.0      0.0     S
In     0.36007  0.61842  0.33144    In
S       0.3737   0.8012   0.7886     S
S       0.3788   0.4122   0.3342     S
S       0.3793   0.4632   0.6274     S
Cd     0.40023   0.4556  0.41688    Cd
S       0.4103   0.2506   0.4248     S
S       0.4123   0.3012   0.7114     S
In     0.41881  0.76841  0.87877    In
S       0.4249   0.6988   0.2886     S
In     0.43461  0.29342  0.50382    In
In     0.43722  0.73159  0.37877    In
H       0.4382   0.8574    0.425     H
S       0.4602   0.8402   0.9182     S
S       0.4699   0.5368   0.3726     S
C        0.479   0.8485   0.3855     C
In     0.48558  0.58029  0.45911    In
N       0.4973   0.8006   0.3528     N
S       0.5067   0.3723   0.4583     S
In     0.52498  0.41971  0.54089    In
H       0.5294    0.925   0.3574     H
S       0.5361   0.2119   0.5457     S
C        0.537   0.8855   0.3485     C
H       0.5456   0.6426    0.925     H
In     0.54758  0.26841  0.62123    In
N       0.5479   0.6994   0.8528     N
S       0.5504   0.6598   0.4182     S
C        0.568    0.807    0.307     C
C       0.5775   0.6515   0.8855     C
S       0.5908      0.5      0.5     S
N       0.5993   0.8528   0.3006     N
S       0.6216   0.9182   0.1598     S
C        0.625    0.693    0.807     C
S       0.6284   0.3402   0.5818     S
N       0.6507   0.1994   0.6472     N
S       0.6592      0.0      0.0     S
C       0.6725   0.6145   0.8485     C
C        0.682    0.193    0.693     C
S       0.6996   0.0818   0.8402     S
N       0.7021   0.6472   0.8006     N
In     0.70242  0.87877  0.23159    In
H       0.7044    0.575   0.8574     H
C        0.713   0.1515   0.6145     C
S       0.7139   0.9543   0.2881     S
H       0.7206   0.1426    0.575     H
In     0.72502  0.95911  0.08029    In
S       0.7433   0.0417   0.1277     S
N       0.7527   0.1472   0.6994     N
In     0.76442  0.04089  0.91971    In
C        0.771   0.1145   0.6515     C
S       0.7801   0.1274   0.9632     S
S       0.7898   0.5818   0.6598     S
H       0.8118    0.075   0.6426     H
In     0.81278  0.12123  0.76841    In
In     0.81539  0.99618  0.20658    In
S       0.8251   0.2114   0.8012     S
In     0.83119  0.62123  0.73159    In
S       0.8377   0.7886   0.1988     S
S       0.8397   0.0752   0.2494     S
Cd     0.84977  0.08312   0.0444    Cd
S       0.8707   0.8726   0.0368     S
S       0.8712   0.1658   0.0878     S
S       0.8763   0.7114   0.6988     S
In     0.88993  0.16856  0.88158    In
S       0.9092      0.5      0.5     S
S       0.9109   0.2494   0.9248     S
S       0.9127   0.9583   0.8723     S
S       0.9182   0.5457   0.7881     S
In     0.93413  0.54089  0.58029    In
In     0.94007  0.83144  0.11842    In
In     0.94151  0.11842  0.16856    In
S       0.9563   0.0457   0.7119     S
S        0.963   0.9122   0.1658     S
S       0.9635   0.1988   0.2114     S
Cd     0.97729  0.91688   0.9556    Cd
In     0.97803  0.20658  0.00382    In
S       0.9933   0.6274   0.5368     S
S        0.998   0.2881   0.0457     S
