data_I
_chemical_name_common  '/home/zhangsd/repos/MofS-CGCNN/ML/data/SSD/clean_cifs/EMIHAK_charged'
_cell_length_a 22.48350
_cell_length_b 22.52200
_cell_length_c 34.48410
_cell_angle_alpha 90.00000
_cell_angle_beta  90.00000
_cell_angle_gamma 90.00000
_space_group_name_H-M_alt      'P 1'


loop_
_space_group_symop_operation_xyz
  'x, y, z' 

loop_
_atom_site_label
_atom_site_fract_x
_atom_site_fract_y
_atom_site_fract_z
_atom_site_type_symbol
H       0.0116   0.0276   0.5987     H
H       0.0116   0.5276   0.9013     H
C        0.017   0.0283     0.57     C
C        0.017   0.5283     0.93     C
S      0.01708   0.4531  0.36697     S
S      0.01708   0.9531  0.13303     S
H       0.0208   0.4621   0.0579     H
H       0.0208   0.9621   0.4421     H
In     0.02123  0.45382  0.65901    In
In     0.02123  0.95382  0.84099    In
C       0.0228   0.4177   0.9199     C
C       0.0228   0.9177   0.5801     C
H       0.0268   0.1026   0.3699     H
H       0.0268   0.6026   0.1301     H
H       0.0276   0.0332   0.3798     H
H       0.0276   0.5332   0.1202     H
C         0.03    0.073   0.3908     C
C         0.03    0.573   0.1092     C
H       0.0371     0.33   0.9101     H
H       0.0371     0.83   0.5899     H
C       0.0391   0.4656   0.9437     C
C       0.0391   0.9656   0.5563     C
H       0.0468   0.0584   0.5637     H
H       0.0468   0.5584   0.9363     H
S       0.0481   0.1901  0.91545     S
S       0.0481   0.6901  0.58455     S
C       0.0497   0.3635   0.9246     C
C       0.0497   0.8635   0.5754     C
H       0.0511   0.1691   0.1116     H
H       0.0511   0.6691   0.3884     H
N       0.0613   0.0905    0.176     N
N       0.0613   0.5905    0.324     N
S       0.0669    0.465  0.72247     S
S       0.0669    0.965  0.77753     S
S       0.0672   0.3839  0.61552     S
S       0.0672   0.8839  0.88448     S
H       0.0676   0.0782   0.4044     H
H       0.0676   0.5782   0.0956     H
In     0.07312  0.09711  0.88472    In
In     0.07312  0.59711  0.61528    In
H       0.0792   0.0434   0.2233     H
H       0.0792   0.5434   0.2767     H
C        0.083   0.4594   0.9711     C
C        0.083   0.9594   0.5289     C
C       0.0858   0.1733   0.1271     C
C       0.0858   0.6733   0.3729     C
H       0.0896   0.2858   0.0884     H
H       0.0896   0.7858   0.4116     H
C       0.0921   0.0745   0.2066     C
C       0.0921   0.5745   0.2934     C
H       0.0943    0.492   0.9869     H
H       0.0943    0.992   0.5131     H
C       0.0958   0.1358   0.1602     C
C       0.0958   0.6358   0.3398     C
C       0.0965   0.3589   0.9516     C
C       0.0965   0.8589   0.5484     C
H       0.1063   0.2314   0.0606     H
H       0.1063   0.7314   0.4394     H
C       0.1094   0.4064   0.9751     C
C       0.1094   0.9064   0.5249     C
C       0.1194   0.2552   0.0828     C
C       0.1194   0.7552   0.4172     C
C       0.1269   0.2144   0.1187     C
C       0.1269   0.7144   0.3813     C
S      0.13059   0.0299  0.30145     S
S      0.13059   0.5299  0.19855     S
N       0.1308    0.311    0.961     N
N       0.1308    0.811    0.539     N
S       0.1322  0.03398  0.93035     S
S       0.1322  0.53398  0.56965     S
S      0.13228  0.11467  0.82453     S
S      0.13228  0.61467  0.67547     S
S       0.1368   0.4412  0.10046     S
S       0.1368   0.9412  0.39954     S
N       0.1426   0.1042   0.2131     N
N       0.1426   0.6042   0.2869     N
C       0.1444   0.1433   0.1835     C
C       0.1444   0.6433   0.3165     C
In     0.14546  0.22788  0.93045    In
In     0.14546  0.72788  0.56955    In
N       0.1513   0.3868   0.0009     N
N       0.1513   0.8868   0.4991     N
In     0.15741  0.01672  0.79352    In
In     0.15741  0.51672  0.70648    In
H       0.1575   0.2742   0.0768     H
H       0.1575   0.7742   0.4232     H
In     0.15768  0.43519  0.59974    In
In     0.15768  0.93519  0.90026    In
C       0.1625   0.3311   0.9902     C
C       0.1625   0.8311   0.5098     C
C       0.1768   0.2246   0.1427     C
C       0.1768   0.7246   0.3573     C
C       0.1851   0.1877   0.1746     C
C       0.1851   0.6877   0.3254     C
In     0.18972   0.0081   0.3578    In
In     0.18972   0.5081   0.1422    In
H       0.1916   0.3074   0.0029     H
H       0.1916   0.8074   0.4971     H
S       0.1979  0.26114  0.87253     S
S       0.1979  0.76114  0.62747     S
In     0.19972  0.08858  0.26325    In
In     0.19972  0.58858  0.23675    In
In      0.2002  0.43832  0.04408    In
In      0.2002  0.93832  0.45592    In
H       0.2019   0.3103    0.131     H
H       0.2019   0.8103    0.369     H
S        0.203   0.1799  0.98012     S
S        0.203   0.6799  0.51988     S
S       0.2118   0.3775  0.55268     S
S       0.2118   0.8775  0.94732     S
S       0.2141   0.0292  0.49227     S
S       0.2141   0.5292  0.00773     S
S      0.21487  0.10569  0.38877     S
S      0.21487  0.60569  0.11123     S
S       0.2158   0.0362  0.73631     S
S       0.2158   0.5362  0.76369     S
S      0.21611  0.45448  0.66005     S
S      0.21611  0.95448  0.83995     S
S       0.2168   0.1888  0.28552     S
S       0.2168   0.6888  0.21448     S
H       0.2192   0.1929   0.1905     H
H       0.2192   0.6929   0.3095     H
C       0.2216   0.2715   0.1321     C
C       0.2216   0.7715   0.3679     C
In     0.22561  0.08662  0.94901    In
In     0.22561  0.58662  0.55099    In
In     0.22632  0.16824  0.84298    In
In     0.22632  0.66824  0.65702    In
H       0.2388   0.2622   0.1067     H
H       0.2388   0.7622   0.3933     H
H       0.2468   0.2725   0.6516     H
H       0.2468   0.7725   0.8484     H
H       0.2532   0.2725   0.1516     H
H       0.2532   0.7725   0.3484     H
H       0.2612   0.2622   0.6067     H
H       0.2612   0.7622   0.8933     H
In     0.27368  0.16824  0.34298    In
In     0.27368  0.66824  0.15702    In
In     0.27439  0.08662  0.44901    In
In     0.27439  0.58662  0.05099    In
C       0.2784   0.2715   0.6321     C
C       0.2784   0.7715   0.8679     C
H       0.2808   0.1929   0.6905     H
H       0.2808   0.6929   0.8095     H
S       0.2832   0.1888  0.78552     S
S       0.2832   0.6888  0.71448     S
S      0.28389  0.45448  0.16005     S
S      0.28389  0.95448  0.33995     S
S       0.2842   0.0362  0.23631     S
S       0.2842   0.5362  0.26369     S
S      0.28513  0.10569  0.88877     S
S      0.28513  0.60569  0.61123     S
S       0.2859   0.0292  0.99227     S
S       0.2859   0.5292  0.50773     S
S       0.2882   0.3775  0.05268     S
S       0.2882   0.8775  0.44732     S
S        0.297   0.1799  0.48012     S
S        0.297   0.6799  0.01988     S
H       0.2981   0.3103    0.631     H
H       0.2981   0.8103    0.869     H
In      0.2998  0.43832  0.54408    In
In      0.2998  0.93832  0.95592    In
In     0.30028  0.08858  0.76325    In
In     0.30028  0.58858  0.73675    In
S       0.3021  0.26114  0.37253     S
S       0.3021  0.76114  0.12747     S
H       0.3084   0.3074   0.5029     H
H       0.3084   0.8074   0.9971     H
In     0.31028   0.0081   0.8578    In
In     0.31028   0.5081   0.6422    In
C       0.3149   0.1877   0.6746     C
C       0.3149   0.6877   0.8254     C
C       0.3232   0.2246   0.6427     C
C       0.3232   0.7246   0.8573     C
C       0.3375   0.3311   0.4902     C
C       0.3375   0.8311   0.0098     C
In     0.34232  0.43519  0.09974    In
In     0.34232  0.93519  0.40026    In
H       0.3425   0.2742   0.5768     H
H       0.3425   0.7742   0.9232     H
In     0.34259  0.01672  0.29352    In
In     0.34259  0.51672  0.20648    In
N       0.3487   0.3868   0.5009     N
N       0.3487   0.8868   0.9991     N
In     0.35454  0.22788  0.43045    In
In     0.35454  0.72788  0.06955    In
C       0.3556   0.1433   0.6835     C
C       0.3556   0.6433   0.8165     C
N       0.3574   0.1042   0.7131     N
N       0.3574   0.6042   0.7869     N
S       0.3632   0.4412  0.60046     S
S       0.3632   0.9412  0.89954     S
S      0.36772  0.11467  0.32453     S
S      0.36772  0.61467  0.17547     S
S       0.3678  0.03398  0.43035     S
S       0.3678  0.53398  0.06965     S
N       0.3692    0.311    0.461     N
N       0.3692    0.811    0.039     N
S      0.36941   0.0299  0.80145     S
S      0.36941   0.5299  0.69855     S
C       0.3731   0.2144   0.6187     C
C       0.3731   0.7144   0.8813     C
C       0.3806   0.2552   0.5828     C
C       0.3806   0.7552   0.9172     C
C       0.3906   0.4064   0.4751     C
C       0.3906   0.9064   0.0249     C
H       0.3937   0.2314   0.5606     H
H       0.3937   0.7314   0.9394     H
C       0.4035   0.3589   0.4516     C
C       0.4035   0.8589   0.0484     C
C       0.4042   0.1358   0.6602     C
C       0.4042   0.6358   0.8398     C
H       0.4057    0.492   0.4869     H
H       0.4057    0.992   0.0131     H
C       0.4079   0.0745   0.7066     C
C       0.4079   0.5745   0.7934     C
H       0.4104   0.2858   0.5884     H
H       0.4104   0.7858   0.9116     H
C       0.4142   0.1733   0.6271     C
C       0.4142   0.6733   0.8729     C
C        0.417   0.4594   0.4711     C
C        0.417   0.9594   0.0289     C
H       0.4208   0.0434   0.7233     H
H       0.4208   0.5434   0.7767     H
In     0.42688  0.09711  0.38472    In
In     0.42688  0.59711  0.11528    In
H       0.4324   0.0782   0.9044     H
H       0.4324   0.5782   0.5956     H
S       0.4328   0.3839  0.11552     S
S       0.4328   0.8839  0.38448     S
S       0.4331    0.465  0.22247     S
S       0.4331    0.965  0.27753     S
N       0.4387   0.0905    0.676     N
N       0.4387   0.5905    0.824     N
H       0.4489   0.1691   0.6116     H
H       0.4489   0.6691   0.8884     H
C       0.4503   0.3635   0.4246     C
C       0.4503   0.8635   0.0754     C
S       0.4519   0.1901  0.41545     S
S       0.4519   0.6901  0.08455     S
H       0.4532   0.0584   0.0637     H
H       0.4532   0.5584   0.4363     H
C       0.4609   0.4656   0.4437     C
C       0.4609   0.9656   0.0563     C
H       0.4629     0.33   0.4101     H
H       0.4629     0.83   0.0899     H
C         0.47    0.073   0.8908     C
C         0.47    0.573   0.6092     C
H       0.4724   0.0332   0.8798     H
H       0.4724   0.5332   0.6202     H
H       0.4732   0.1026   0.8699     H
H       0.4732   0.6026   0.6301     H
C       0.4772   0.4177   0.4199     C
C       0.4772   0.9177   0.0801     C
In     0.47877  0.45382  0.15901    In
In     0.47877  0.95382  0.34099    In
H       0.4792   0.4621   0.5579     H
H       0.4792   0.9621   0.9421     H
S      0.48292   0.4531  0.86697     S
S      0.48292   0.9531  0.63303     S
C        0.483   0.0283     0.07     C
C        0.483   0.5283     0.43     C
H       0.4884   0.0276   0.0987     H
H       0.4884   0.5276   0.4013     H
H       0.5116   0.4724   0.5987     H
H       0.5116   0.9724   0.9013     H
C        0.517   0.4717     0.57     C
C        0.517   0.9717     0.93     C
S      0.51708   0.0469  0.36697     S
S      0.51708   0.5469  0.13303     S
H       0.5208   0.0379   0.0579     H
H       0.5208   0.5379   0.4421     H
In     0.52123  0.04618  0.65901    In
In     0.52123  0.54618  0.84099    In
C       0.5228   0.0823   0.9199     C
C       0.5228   0.5823   0.5801     C
H       0.5268   0.3974   0.3699     H
H       0.5268   0.8974   0.1301     H
H       0.5276   0.4668   0.3798     H
H       0.5276   0.9668   0.1202     H
C         0.53    0.427   0.3908     C
C         0.53    0.927   0.1092     C
H       0.5371     0.17   0.9101     H
H       0.5371     0.67   0.5899     H
C       0.5391   0.0344   0.9437     C
C       0.5391   0.5344   0.5563     C
H       0.5468   0.4416   0.5637     H
H       0.5468   0.9416   0.9363     H
S       0.5481   0.3099  0.91545     S
S       0.5481   0.8099  0.58455     S
C       0.5497   0.1365   0.9246     C
C       0.5497   0.6365   0.5754     C
H       0.5511   0.3309   0.1116     H
H       0.5511   0.8309   0.3884     H
N       0.5613   0.4095    0.176     N
N       0.5613   0.9095    0.324     N
S       0.5669    0.035  0.72247     S
S       0.5669    0.535  0.77753     S
S       0.5672   0.1161  0.61552     S
S       0.5672   0.6161  0.88448     S
H       0.5676   0.4218   0.4044     H
H       0.5676   0.9218   0.0956     H
In     0.57312  0.40289  0.88472    In
In     0.57312  0.90289  0.61528    In
H       0.5792   0.4566   0.2233     H
H       0.5792   0.9566   0.2767     H
C        0.583   0.0406   0.9711     C
C        0.583   0.5406   0.5289     C
C       0.5858   0.3267   0.1271     C
C       0.5858   0.8267   0.3729     C
H       0.5896   0.2142   0.0884     H
H       0.5896   0.7142   0.4116     H
C       0.5921   0.4255   0.2066     C
C       0.5921   0.9255   0.2934     C
H       0.5943    0.008   0.9869     H
H       0.5943    0.508   0.5131     H
C       0.5958   0.3642   0.1602     C
C       0.5958   0.8642   0.3398     C
C       0.5965   0.1411   0.9516     C
C       0.5965   0.6411   0.5484     C
H       0.6063   0.2686   0.0606     H
H       0.6063   0.7686   0.4394     H
C       0.6094   0.0936   0.9751     C
C       0.6094   0.5936   0.5249     C
C       0.6194   0.2448   0.0828     C
C       0.6194   0.7448   0.4172     C
C       0.6269   0.2856   0.1187     C
C       0.6269   0.7856   0.3813     C
S      0.63059   0.4701  0.30145     S
S      0.63059   0.9701  0.19855     S
N       0.6308    0.189    0.961     N
N       0.6308    0.689    0.539     N
S       0.6322  0.46602  0.93035     S
S       0.6322  0.96602  0.56965     S
S      0.63228  0.38533  0.82453     S
S      0.63228  0.88533  0.67547     S
S       0.6368   0.0588  0.10046     S
S       0.6368   0.5588  0.39954     S
N       0.6426   0.3958   0.2131     N
N       0.6426   0.8958   0.2869     N
C       0.6444   0.3567   0.1835     C
C       0.6444   0.8567   0.3165     C
In     0.64546  0.27212  0.93045    In
In     0.64546  0.77212  0.56955    In
N       0.6513   0.1132   0.0009     N
N       0.6513   0.6132   0.4991     N
In     0.65741  0.48328  0.79352    In
In     0.65741  0.98328  0.70648    In
H       0.6575   0.2258   0.0768     H
H       0.6575   0.7258   0.4232     H
In     0.65768  0.06481  0.59974    In
In     0.65768  0.56481  0.90026    In
C       0.6625   0.1689   0.9902     C
C       0.6625   0.6689   0.5098     C
C       0.6768   0.2754   0.1427     C
C       0.6768   0.7754   0.3573     C
C       0.6851   0.3123   0.1746     C
C       0.6851   0.8123   0.3254     C
In     0.68972   0.4919   0.3578    In
In     0.68972   0.9919   0.1422    In
H       0.6916   0.1926   0.0029     H
H       0.6916   0.6926   0.4971     H
S       0.6979  0.23886  0.87253     S
S       0.6979  0.73886  0.62747     S
In     0.69972  0.41142  0.26325    In
In     0.69972  0.91142  0.23675    In
In      0.7002  0.06168  0.04408    In
In      0.7002  0.56168  0.45592    In
H       0.7019   0.1897    0.131     H
H       0.7019   0.6897    0.369     H
S        0.703   0.3201  0.98012     S
S        0.703   0.8201  0.51988     S
S       0.7118   0.1225  0.55268     S
S       0.7118   0.6225  0.94732     S
S       0.7141   0.4708  0.49227     S
S       0.7141   0.9708  0.00773     S
S      0.71487  0.39431  0.38877     S
S      0.71487  0.89431  0.11123     S
S       0.7158   0.4638  0.73631     S
S       0.7158   0.9638  0.76369     S
S      0.71611  0.04552  0.66005     S
S      0.71611  0.54552  0.83995     S
S       0.7168   0.3112  0.28552     S
S       0.7168   0.8112  0.21448     S
H       0.7192   0.3071   0.1905     H
H       0.7192   0.8071   0.3095     H
C       0.7216   0.2285   0.1321     C
C       0.7216   0.7285   0.3679     C
In     0.72561  0.41338  0.94901    In
In     0.72561  0.91338  0.55099    In
In     0.72632  0.33176  0.84298    In
In     0.72632  0.83176  0.65702    In
H       0.7388   0.2378   0.1067     H
H       0.7388   0.7378   0.3933     H
H       0.7468   0.2275   0.6516     H
H       0.7468   0.7275   0.8484     H
H       0.7532   0.2275   0.1516     H
H       0.7532   0.7275   0.3484     H
H       0.7612   0.2378   0.6067     H
H       0.7612   0.7378   0.8933     H
In     0.77368  0.33176  0.34298    In
In     0.77368  0.83176  0.15702    In
In     0.77439  0.41338  0.44901    In
In     0.77439  0.91338  0.05099    In
C       0.7784   0.2285   0.6321     C
C       0.7784   0.7285   0.8679     C
H       0.7808   0.3071   0.6905     H
H       0.7808   0.8071   0.8095     H
S       0.7832   0.3112  0.78552     S
S       0.7832   0.8112  0.71448     S
S      0.78389  0.04552  0.16005     S
S      0.78389  0.54552  0.33995     S
S       0.7842   0.4638  0.23631     S
S       0.7842   0.9638  0.26369     S
S      0.78513  0.39431  0.88877     S
S      0.78513  0.89431  0.61123     S
S       0.7859   0.4708  0.99227     S
S       0.7859   0.9708  0.50773     S
S       0.7882   0.1225  0.05268     S
S       0.7882   0.6225  0.44732     S
S        0.797   0.3201  0.48012     S
S        0.797   0.8201  0.01988     S
H       0.7981   0.1897    0.631     H
H       0.7981   0.6897    0.869     H
In      0.7998  0.06168  0.54408    In
In      0.7998  0.56168  0.95592    In
In     0.80028  0.41142  0.76325    In
In     0.80028  0.91142  0.73675    In
S       0.8021  0.23886  0.37253     S
S       0.8021  0.73886  0.12747     S
H       0.8084   0.1926   0.5029     H
H       0.8084   0.6926   0.9971     H
In     0.81028   0.4919   0.8578    In
In     0.81028   0.9919   0.6422    In
C       0.8149   0.3123   0.6746     C
C       0.8149   0.8123   0.8254     C
C       0.8232   0.2754   0.6427     C
C       0.8232   0.7754   0.8573     C
C       0.8375   0.1689   0.4902     C
C       0.8375   0.6689   0.0098     C
In     0.84232  0.06481  0.09974    In
In     0.84232  0.56481  0.40026    In
H       0.8425   0.2258   0.5768     H
H       0.8425   0.7258   0.9232     H
In     0.84259  0.48328  0.29352    In
In     0.84259  0.98328  0.20648    In
N       0.8487   0.1132   0.5009     N
N       0.8487   0.6132   0.9991     N
In     0.85454  0.27212  0.43045    In
In     0.85454  0.77212  0.06955    In
C       0.8556   0.3567   0.6835     C
C       0.8556   0.8567   0.8165     C
N       0.8574   0.3958   0.7131     N
N       0.8574   0.8958   0.7869     N
S       0.8632   0.0588  0.60046     S
S       0.8632   0.5588  0.89954     S
S      0.86772  0.38533  0.32453     S
S      0.86772  0.88533  0.17547     S
S       0.8678  0.46602  0.43035     S
S       0.8678  0.96602  0.06965     S
N       0.8692    0.189    0.461     N
N       0.8692    0.689    0.039     N
S      0.86941   0.4701  0.80145     S
S      0.86941   0.9701  0.69855     S
C       0.8731   0.2856   0.6187     C
C       0.8731   0.7856   0.8813     C
C       0.8806   0.2448   0.5828     C
C       0.8806   0.7448   0.9172     C
C       0.8906   0.0936   0.4751     C
C       0.8906   0.5936   0.0249     C
H       0.8937   0.2686   0.5606     H
H       0.8937   0.7686   0.9394     H
C       0.9035   0.1411   0.4516     C
C       0.9035   0.6411   0.0484     C
C       0.9042   0.3642   0.6602     C
C       0.9042   0.8642   0.8398     C
H       0.9057    0.008   0.4869     H
H       0.9057    0.508   0.0131     H
C       0.9079   0.4255   0.7066     C
C       0.9079   0.9255   0.7934     C
H       0.9104   0.2142   0.5884     H
H       0.9104   0.7142   0.9116     H
C       0.9142   0.3267   0.6271     C
C       0.9142   0.8267   0.8729     C
C        0.917   0.0406   0.4711     C
C        0.917   0.5406   0.0289     C
H       0.9208   0.4566   0.7233     H
H       0.9208   0.9566   0.7767     H
In     0.92688  0.40289  0.38472    In
In     0.92688  0.90289  0.11528    In
H       0.9324   0.4218   0.9044     H
H       0.9324   0.9218   0.5956     H
S       0.9328   0.1161  0.11552     S
S       0.9328   0.6161  0.38448     S
S       0.9331    0.035  0.22247     S
S       0.9331    0.535  0.27753     S
N       0.9387   0.4095    0.676     N
N       0.9387   0.9095    0.824     N
H       0.9489   0.3309   0.6116     H
H       0.9489   0.8309   0.8884     H
C       0.9503   0.1365   0.4246     C
C       0.9503   0.6365   0.0754     C
S       0.9519   0.3099  0.41545     S
S       0.9519   0.8099  0.08455     S
H       0.9532   0.4416   0.0637     H
H       0.9532   0.9416   0.4363     H
C       0.9609   0.0344   0.4437     C
C       0.9609   0.5344   0.0563     C
H       0.9629     0.17   0.4101     H
H       0.9629     0.67   0.0899     H
C         0.97    0.427   0.8908     C
C         0.97    0.927   0.6092     C
H       0.9724   0.4668   0.8798     H
H       0.9724   0.9668   0.6202     H
H       0.9732   0.3974   0.8699     H
H       0.9732   0.8974   0.6301     H
C       0.9772   0.0823   0.4199     C
C       0.9772   0.5823   0.0801     C
In     0.97877  0.04618  0.15901    In
In     0.97877  0.54618  0.34099    In
H       0.9792   0.0379   0.5579     H
H       0.9792   0.5379   0.9421     H
S      0.98292   0.0469  0.86697     S
S      0.98292   0.5469  0.63303     S
C        0.983   0.4717     0.07     C
C        0.983   0.9717     0.43     C
H       0.9884   0.4724   0.0987     H
H       0.9884   0.9724   0.4013     H
