data_I
_chemical_name_common  '/home/zhangsd/repos/MofS-CGCNN/ML/data/SSD/clean_cifs/ENESOH_clean'
_cell_length_a 26.98290
_cell_length_b 37.60590
_cell_length_c 19.33140
_cell_angle_alpha 90.00000
_cell_angle_beta  90.00000
_cell_angle_gamma 90.00000
_space_group_name_H-M_alt      'P 1'


loop_
_space_group_symop_operation_xyz
  'x, y, z' 

loop_
_atom_site_label
_atom_site_fract_x
_atom_site_fract_y
_atom_site_fract_z
_atom_site_type_symbol
Cu         0.0  0.01384  0.19509    Cu
Cu         0.0  0.48616  0.69509    Cu
Cu         0.0  0.51384  0.30491    Cu
Cu         0.0  0.98616  0.80491    Cu
H        0.041   0.0424   0.8989     H
H        0.041   0.4576   0.3989     H
H        0.041   0.5424   0.6011     H
H        0.041   0.9576   0.1011     H
N       0.0521  0.05301    0.197     N
N       0.0521  0.44699    0.697     N
N       0.0521  0.55301    0.303     N
N       0.0521  0.94699    0.803     N
N       0.0552  0.02302   0.8067     N
N       0.0552  0.47698   0.3067     N
N       0.0552  0.52302   0.6933     N
N       0.0552  0.97698   0.1933     N
N       0.0562  0.07609   0.1424     N
N       0.0562  0.42391   0.6424     N
N       0.0562  0.57609   0.3576     N
N       0.0562  0.92391   0.8576     N
C        0.063   0.0442    0.862     C
C        0.063   0.4558    0.362     C
C        0.063   0.5442    0.638     C
C        0.063   0.9558    0.138     C
H       0.0785    0.202   0.5256     H
H       0.0785    0.298   0.0256     H
H       0.0785    0.702   0.9744     H
H       0.0785    0.798   0.4744     H
H         0.08   0.1648   0.4287     H
H         0.08   0.3352   0.9287     H
H         0.08   0.6648   0.0713     H
H         0.08   0.8352   0.5713     H
H       0.0806   0.0853   0.9577     H
H       0.0806   0.4147   0.4577     H
H       0.0806   0.5853   0.5423     H
H       0.0806   0.9147   0.0423     H
C        0.084  0.06353   0.2437     C
C        0.084  0.43647   0.7437     C
C        0.084  0.56353   0.2563     C
C        0.084  0.93647   0.7563     C
H       0.0843   0.1523   0.9906     H
H       0.0843   0.3477   0.4906     H
H       0.0843   0.6523   0.5094     H
H       0.0843   0.8477   0.0094     H
H       0.0847   0.0107   0.7165     H
H       0.0847   0.4893   0.2165     H
H       0.0847   0.5107   0.7835     H
H       0.0847   0.9893   0.2835     H
C       0.0892   0.0249   0.7555     C
C       0.0892   0.4751   0.2555     C
C       0.0892   0.5249   0.7445     C
C       0.0892   0.9751   0.2445     C
H       0.0896   0.0529   0.2864     H
H       0.0896   0.4471   0.7864     H
H       0.0896   0.5529   0.2136     H
H       0.0896   0.9471   0.7136     H
N       0.0899  0.09949   0.1551     N
N       0.0899  0.40051   0.6551     N
N       0.0899  0.59949   0.3449     N
N       0.0899  0.90051   0.8449     N
O       0.0929  0.11812   0.3511     O
O       0.0929  0.38188   0.8511     O
O       0.0929  0.61812   0.1489     O
O       0.0929  0.88188   0.6489     O
C       0.1015  0.06836   0.8674     C
C       0.1015  0.43164   0.3674     C
C       0.1015  0.56836   0.6326     C
C       0.1015  0.93164   0.1326     C
N       0.1016  0.09027   0.9257     N
N       0.1016  0.40973   0.4257     N
N       0.1016  0.59027   0.5743     N
N       0.1016  0.90973   0.0743     N
C       0.1062   0.2013   0.4969     C
C       0.1062   0.2987   0.9969     C
C       0.1062   0.7013   0.0031     C
C       0.1062   0.7987   0.5031     C
C       0.1068   0.1793   0.4394     C
C       0.1068   0.3207   0.9394     C
C       0.1068   0.6793   0.0606     C
C       0.1068   0.8207   0.5606     C
N       0.1075  0.09248   0.2189     N
N       0.1075  0.40752   0.7189     N
N       0.1075  0.59248   0.2811     N
N       0.1075  0.90752   0.7811     N
H       0.1093   0.1241   0.0393     H
H       0.1093   0.3759   0.5393     H
H       0.1093   0.6241   0.4607     H
H       0.1093   0.8759   0.9607     H
C       0.1152   0.1401   0.0008     C
C       0.1152   0.3599   0.5008     C
C       0.1152   0.6401   0.4992     C
C       0.1152   0.8599   0.9992     C
C        0.127  0.13057   0.3179     C
C        0.127  0.36943   0.8179     C
C        0.127  0.63057   0.1821     C
C        0.127  0.86943   0.6821     C
C         0.13   0.0467   0.7585     C
C         0.13   0.4533   0.2585     C
C         0.13   0.5467   0.7415     C
C         0.13   0.9533   0.2415     C
C       0.1316  0.11856    0.937     C
C       0.1316  0.38144    0.437     C
C       0.1316  0.61856    0.563     C
C       0.1316  0.88144    0.063     C
C       0.1363   0.0691   0.8145     C
C       0.1363   0.4309   0.3145     C
C       0.1363   0.5691   0.6855     C
C       0.1363   0.9309   0.1855     C
C       0.1465   0.1146   0.2507     C
H       0.1465   0.2369     0.55     H
H       0.1465   0.2631     0.05     H
C       0.1465   0.3854   0.7507     C
C       0.1465   0.6146   0.2493     C
H       0.1465   0.7369     0.95     H
H       0.1465   0.7631     0.45     H
C       0.1465   0.8854   0.7493     C
C       0.1473  0.22218   0.5114     C
C       0.1473  0.27782   0.0114     C
C       0.1473  0.72218   0.9886     C
C       0.1473  0.77782   0.4886     C
C       0.1483  0.17962   0.3991     C
C       0.1483  0.32038   0.8991     C
C       0.1483  0.67962   0.1009     C
C       0.1483  0.82038   0.6009     C
H       0.1508   0.1587   0.1247     H
H       0.1508   0.3413   0.6247     H
H       0.1508   0.6587   0.3753     H
H       0.1508   0.8413   0.8753     H
N       0.1524  0.16588   0.0201     N
N       0.1524  0.33412   0.5201     N
N       0.1524  0.66588   0.4799     N
N       0.1524  0.83412   0.9799     N
H       0.1533   0.0465    0.723     H
H       0.1533   0.4535    0.223     H
H       0.1533   0.5465    0.777     H
H       0.1533   0.9535    0.277     H
N       0.1546  0.15925    0.338     N
N       0.1546  0.34075    0.838     N
N       0.1546  0.65925    0.162     N
N       0.1546  0.84075    0.662     N
H        0.156   0.1335   0.2191     H
H        0.156   0.3665   0.7191     H
H        0.156   0.6335   0.2809     H
H        0.156   0.8665   0.7809     H
H       0.1634   0.0844   0.8168     H
H       0.1634   0.4156   0.3168     H
H       0.1634   0.5844   0.6832     H
H       0.1634   0.9156   0.1832     H
C       0.1637  0.17121   0.0873     C
C       0.1637  0.32879   0.5873     C
C       0.1637  0.67121   0.4127     C
C       0.1637  0.82879   0.9127     C
O       0.1664  0.12715   0.9011     O
O       0.1664  0.37285   0.4011     O
O       0.1664  0.62715   0.5989     O
O       0.1664  0.87285   0.0989     O
H       0.1756   0.1002   0.2601     H
H       0.1756   0.3998   0.7601     H
H       0.1756   0.6002   0.2399     H
H       0.1756   0.8998   0.7399     H
N       0.1769  0.18938   0.9823     N
N       0.1769  0.31062   0.4823     N
N       0.1769  0.68938   0.5177     N
N       0.1769  0.81062   0.0177     N
H       0.1782   0.1656   0.3108     H
H       0.1782   0.3344   0.8108     H
H       0.1782   0.6656   0.1892     H
H       0.1782   0.8344   0.6892     H
N       0.1876  0.22209   0.4727     N
N       0.1876  0.27791   0.9727     N
N       0.1876  0.72209   0.0273     N
N       0.1876  0.77791   0.5273     N
C       0.1886  0.20084   0.4171     C
C       0.1886  0.29916   0.9171     C
C       0.1886  0.70084   0.0829     C
C       0.1886  0.79916   0.5829     C
N       0.1952  0.19639   0.0903     N
N       0.1952  0.30361   0.5903     N
N       0.1952  0.69639   0.4097     N
N       0.1952  0.80361   0.9097     N
N       0.2054  0.20855   0.0243     N
N       0.2054  0.29145   0.5243     N
N       0.2054  0.70855   0.4757     N
N       0.2054  0.79145   0.9757     N
H        0.217   0.2002   0.3898     H
H        0.217   0.2998   0.8898     H
H        0.217   0.7002   0.1102     H
H        0.217   0.7998   0.6102     H
Cu        0.25     0.25      0.0    Cu
Cu        0.25     0.25      0.5    Cu
Cu        0.25     0.75      0.0    Cu
Cu        0.25     0.75      0.5    Cu
H        0.283   0.2002   0.1102     H
H        0.283   0.2998   0.6102     H
H        0.283   0.7002   0.3898     H
H        0.283   0.7998   0.8898     H
N       0.2946  0.20855   0.4757     N
N       0.2946  0.29145   0.9757     N
N       0.2946  0.70855   0.0243     N
N       0.2946  0.79145   0.5243     N
N       0.3048  0.19639   0.4097     N
N       0.3048  0.30361   0.9097     N
N       0.3048  0.69639   0.0903     N
N       0.3048  0.80361   0.5903     N
C       0.3114  0.20084   0.0829     C
C       0.3114  0.29916   0.5829     C
C       0.3114  0.70084   0.4171     C
C       0.3114  0.79916   0.9171     C
N       0.3124  0.22209   0.0273     N
N       0.3124  0.27791   0.5273     N
N       0.3124  0.72209   0.4727     N
N       0.3124  0.77791   0.9727     N
H       0.3218   0.1656   0.1892     H
H       0.3218   0.3344   0.6892     H
H       0.3218   0.6656   0.3108     H
H       0.3218   0.8344   0.8108     H
N       0.3231  0.18938   0.5177     N
N       0.3231  0.31062   0.0177     N
N       0.3231  0.68938   0.9823     N
N       0.3231  0.81062   0.4823     N
H       0.3244   0.1002   0.2399     H
H       0.3244   0.3998   0.7399     H
H       0.3244   0.6002   0.2601     H
H       0.3244   0.8998   0.7601     H
O       0.3336  0.12715   0.5989     O
O       0.3336  0.37285   0.0989     O
O       0.3336  0.62715   0.9011     O
O       0.3336  0.87285   0.4011     O
C       0.3363  0.17121   0.4127     C
C       0.3363  0.32879   0.9127     C
C       0.3363  0.67121   0.0873     C
C       0.3363  0.82879   0.5873     C
H       0.3366   0.0844   0.6832     H
H       0.3366   0.4156   0.1832     H
H       0.3366   0.5844   0.8168     H
H       0.3366   0.9156   0.3168     H
H        0.344   0.1335   0.2809     H
H        0.344   0.3665   0.7809     H
H        0.344   0.6335   0.2191     H
H        0.344   0.8665   0.7191     H
N       0.3454  0.15925    0.162     N
N       0.3454  0.34075    0.662     N
N       0.3454  0.65925    0.338     N
N       0.3454  0.84075    0.838     N
H       0.3467   0.0465    0.777     H
H       0.3467   0.4535    0.277     H
H       0.3467   0.5465    0.723     H
H       0.3467   0.9535    0.223     H
N       0.3476  0.16588   0.4799     N
N       0.3476  0.33412   0.9799     N
N       0.3476  0.66588   0.0201     N
N       0.3476  0.83412   0.5201     N
H       0.3492   0.1587   0.3753     H
H       0.3492   0.3413   0.8753     H
H       0.3492   0.6587   0.1247     H
H       0.3492   0.8413   0.6247     H
C       0.3517  0.17962   0.1009     C
C       0.3517  0.32038   0.6009     C
C       0.3517  0.67962   0.3991     C
C       0.3517  0.82038   0.8991     C
C       0.3527  0.22218   0.9886     C
C       0.3527  0.27782   0.4886     C
C       0.3527  0.72218   0.5114     C
C       0.3527  0.77782   0.0114     C
C       0.3535   0.1146   0.2493     C
H       0.3535   0.2369     0.95     H
H       0.3535   0.2631     0.45     H
C       0.3535   0.3854   0.7493     C
C       0.3535   0.6146   0.2507     C
H       0.3535   0.7369     0.55     H
H       0.3535   0.7631     0.05     H
C       0.3535   0.8854   0.7507     C
C       0.3637   0.0691   0.6855     C
C       0.3637   0.4309   0.1855     C
C       0.3637   0.5691   0.8145     C
C       0.3637   0.9309   0.3145     C
C       0.3684  0.11856    0.563     C
C       0.3684  0.38144    0.063     C
C       0.3684  0.61856    0.937     C
C       0.3684  0.88144    0.437     C
C         0.37   0.0467   0.7415     C
C         0.37   0.4533   0.2415     C
C         0.37   0.5467   0.7585     C
C         0.37   0.9533   0.2585     C
C        0.373  0.13057   0.1821     C
C        0.373  0.36943   0.6821     C
C        0.373  0.63057   0.3179     C
C        0.373  0.86943   0.8179     C
C       0.3848   0.1401   0.4992     C
C       0.3848   0.3599   0.9992     C
C       0.3848   0.6401   0.0008     C
C       0.3848   0.8599   0.5008     C
H       0.3907   0.1241   0.4607     H
H       0.3907   0.3759   0.9607     H
H       0.3907   0.6241   0.0393     H
H       0.3907   0.8759   0.5393     H
N       0.3925  0.09248   0.2811     N
N       0.3925  0.40752   0.7811     N
N       0.3925  0.59248   0.2189     N
N       0.3925  0.90752   0.7189     N
C       0.3932   0.1793   0.0606     C
C       0.3932   0.3207   0.5606     C
C       0.3932   0.6793   0.4394     C
C       0.3932   0.8207   0.9394     C
C       0.3938   0.2013   0.0031     C
C       0.3938   0.2987   0.5031     C
C       0.3938   0.7013   0.4969     C
C       0.3938   0.7987   0.9969     C
N       0.3984  0.09027   0.5743     N
N       0.3984  0.40973   0.0743     N
N       0.3984  0.59027   0.9257     N
N       0.3984  0.90973   0.4257     N
C       0.3985  0.06836   0.6326     C
C       0.3985  0.43164   0.1326     C
C       0.3985  0.56836   0.8674     C
C       0.3985  0.93164   0.3674     C
O       0.4071  0.11812   0.1489     O
O       0.4071  0.38188   0.6489     O
O       0.4071  0.61812   0.3511     O
O       0.4071  0.88188   0.8511     O
N       0.4101  0.09949   0.3449     N
N       0.4101  0.40051   0.8449     N
N       0.4101  0.59949   0.1551     N
N       0.4101  0.90051   0.6551     N
H       0.4104   0.0529   0.2136     H
H       0.4104   0.4471   0.7136     H
H       0.4104   0.5529   0.2864     H
H       0.4104   0.9471   0.7864     H
C       0.4108   0.0249   0.7445     C
C       0.4108   0.4751   0.2445     C
C       0.4108   0.5249   0.7555     C
C       0.4108   0.9751   0.2555     C
H       0.4153   0.0107   0.7835     H
H       0.4153   0.4893   0.2835     H
H       0.4153   0.5107   0.7165     H
H       0.4153   0.9893   0.2165     H
H       0.4157   0.1523   0.5094     H
H       0.4157   0.3477   0.0094     H
H       0.4157   0.6523   0.9906     H
H       0.4157   0.8477   0.4906     H
C        0.416  0.06353   0.2563     C
C        0.416  0.43647   0.7563     C
C        0.416  0.56353   0.2437     C
C        0.416  0.93647   0.7437     C
H       0.4194   0.0853   0.5423     H
H       0.4194   0.4147   0.0423     H
H       0.4194   0.5853   0.9577     H
H       0.4194   0.9147   0.4577     H
H         0.42   0.1648   0.0713     H
H         0.42   0.3352   0.5713     H
H         0.42   0.6648   0.4287     H
H         0.42   0.8352   0.9287     H
H       0.4215    0.202   0.9744     H
H       0.4215    0.298   0.4744     H
H       0.4215    0.702   0.5256     H
H       0.4215    0.798   0.0256     H
C        0.437   0.0442    0.638     C
C        0.437   0.4558    0.138     C
C        0.437   0.5442    0.862     C
C        0.437   0.9558    0.362     C
N       0.4438  0.07609   0.3576     N
N       0.4438  0.42391   0.8576     N
N       0.4438  0.57609   0.1424     N
N       0.4438  0.92391   0.6424     N
N       0.4448  0.02302   0.6933     N
N       0.4448  0.47698   0.1933     N
N       0.4448  0.52302   0.8067     N
N       0.4448  0.97698   0.3067     N
N       0.4479  0.05301    0.303     N
N       0.4479  0.44699    0.803     N
N       0.4479  0.55301    0.197     N
N       0.4479  0.94699    0.697     N
H        0.459   0.0424   0.6011     H
H        0.459   0.4576   0.1011     H
H        0.459   0.5424   0.8989     H
H        0.459   0.9576   0.3989     H
Cu         0.5  0.01384  0.30491    Cu
Cu         0.5  0.48616  0.80491    Cu
Cu         0.5  0.51384  0.19509    Cu
Cu         0.5  0.98616  0.69509    Cu
H        0.541   0.0424   0.6011     H
H        0.541   0.4576   0.1011     H
H        0.541   0.5424   0.8989     H
H        0.541   0.9576   0.3989     H
N       0.5521  0.05301    0.303     N
N       0.5521  0.44699    0.803     N
N       0.5521  0.55301    0.197     N
N       0.5521  0.94699    0.697     N
N       0.5552  0.02302   0.6933     N
N       0.5552  0.47698   0.1933     N
N       0.5552  0.52302   0.8067     N
N       0.5552  0.97698   0.3067     N
N       0.5562  0.07609   0.3576     N
N       0.5562  0.42391   0.8576     N
N       0.5562  0.57609   0.1424     N
N       0.5562  0.92391   0.6424     N
C        0.563   0.0442    0.638     C
C        0.563   0.4558    0.138     C
C        0.563   0.5442    0.862     C
C        0.563   0.9558    0.362     C
H       0.5785    0.202   0.9744     H
H       0.5785    0.298   0.4744     H
H       0.5785    0.702   0.5256     H
H       0.5785    0.798   0.0256     H
H         0.58   0.1648   0.0713     H
H         0.58   0.3352   0.5713     H
H         0.58   0.6648   0.4287     H
H         0.58   0.8352   0.9287     H
H       0.5806   0.0853   0.5423     H
H       0.5806   0.4147   0.0423     H
H       0.5806   0.5853   0.9577     H
H       0.5806   0.9147   0.4577     H
C        0.584  0.06353   0.2563     C
C        0.584  0.43647   0.7563     C
C        0.584  0.56353   0.2437     C
C        0.584  0.93647   0.7437     C
H       0.5843   0.1523   0.5094     H
H       0.5843   0.3477   0.0094     H
H       0.5843   0.6523   0.9906     H
H       0.5843   0.8477   0.4906     H
H       0.5847   0.0107   0.7835     H
H       0.5847   0.4893   0.2835     H
H       0.5847   0.5107   0.7165     H
H       0.5847   0.9893   0.2165     H
C       0.5892   0.0249   0.7445     C
C       0.5892   0.4751   0.2445     C
C       0.5892   0.5249   0.7555     C
C       0.5892   0.9751   0.2555     C
H       0.5896   0.0529   0.2136     H
H       0.5896   0.4471   0.7136     H
H       0.5896   0.5529   0.2864     H
H       0.5896   0.9471   0.7864     H
N       0.5899  0.09949   0.3449     N
N       0.5899  0.40051   0.8449     N
N       0.5899  0.59949   0.1551     N
N       0.5899  0.90051   0.6551     N
O       0.5929  0.11812   0.1489     O
O       0.5929  0.38188   0.6489     O
O       0.5929  0.61812   0.3511     O
O       0.5929  0.88188   0.8511     O
C       0.6015  0.06836   0.6326     C
C       0.6015  0.43164   0.1326     C
C       0.6015  0.56836   0.8674     C
C       0.6015  0.93164   0.3674     C
N       0.6016  0.09027   0.5743     N
N       0.6016  0.40973   0.0743     N
N       0.6016  0.59027   0.9257     N
N       0.6016  0.90973   0.4257     N
C       0.6062   0.2013   0.0031     C
C       0.6062   0.2987   0.5031     C
C       0.6062   0.7013   0.4969     C
C       0.6062   0.7987   0.9969     C
C       0.6068   0.1793   0.0606     C
C       0.6068   0.3207   0.5606     C
C       0.6068   0.6793   0.4394     C
C       0.6068   0.8207   0.9394     C
N       0.6075  0.09248   0.2811     N
N       0.6075  0.40752   0.7811     N
N       0.6075  0.59248   0.2189     N
N       0.6075  0.90752   0.7189     N
H       0.6093   0.1241   0.4607     H
H       0.6093   0.3759   0.9607     H
H       0.6093   0.6241   0.0393     H
H       0.6093   0.8759   0.5393     H
C       0.6152   0.1401   0.4992     C
C       0.6152   0.3599   0.9992     C
C       0.6152   0.6401   0.0008     C
C       0.6152   0.8599   0.5008     C
C        0.627  0.13057   0.1821     C
C        0.627  0.36943   0.6821     C
C        0.627  0.63057   0.3179     C
C        0.627  0.86943   0.8179     C
C         0.63   0.0467   0.7415     C
C         0.63   0.4533   0.2415     C
C         0.63   0.5467   0.7585     C
C         0.63   0.9533   0.2585     C
C       0.6316  0.11856    0.563     C
C       0.6316  0.38144    0.063     C
C       0.6316  0.61856    0.937     C
C       0.6316  0.88144    0.437     C
C       0.6363   0.0691   0.6855     C
C       0.6363   0.4309   0.1855     C
C       0.6363   0.5691   0.8145     C
C       0.6363   0.9309   0.3145     C
C       0.6465   0.1146   0.2493     C
H       0.6465   0.2369     0.95     H
H       0.6465   0.2631     0.45     H
C       0.6465   0.3854   0.7493     C
C       0.6465   0.6146   0.2507     C
H       0.6465   0.7369     0.55     H
H       0.6465   0.7631     0.05     H
C       0.6465   0.8854   0.7507     C
C       0.6473  0.22218   0.9886     C
C       0.6473  0.27782   0.4886     C
C       0.6473  0.72218   0.5114     C
C       0.6473  0.77782   0.0114     C
C       0.6483  0.17962   0.1009     C
C       0.6483  0.32038   0.6009     C
C       0.6483  0.67962   0.3991     C
C       0.6483  0.82038   0.8991     C
H       0.6508   0.1587   0.3753     H
H       0.6508   0.3413   0.8753     H
H       0.6508   0.6587   0.1247     H
H       0.6508   0.8413   0.6247     H
N       0.6524  0.16588   0.4799     N
N       0.6524  0.33412   0.9799     N
N       0.6524  0.66588   0.0201     N
N       0.6524  0.83412   0.5201     N
H       0.6533   0.0465    0.777     H
H       0.6533   0.4535    0.277     H
H       0.6533   0.5465    0.723     H
H       0.6533   0.9535    0.223     H
N       0.6546  0.15925    0.162     N
N       0.6546  0.34075    0.662     N
N       0.6546  0.65925    0.338     N
N       0.6546  0.84075    0.838     N
H        0.656   0.1335   0.2809     H
H        0.656   0.3665   0.7809     H
H        0.656   0.6335   0.2191     H
H        0.656   0.8665   0.7191     H
H       0.6634   0.0844   0.6832     H
H       0.6634   0.4156   0.1832     H
H       0.6634   0.5844   0.8168     H
H       0.6634   0.9156   0.3168     H
C       0.6637  0.17121   0.4127     C
C       0.6637  0.32879   0.9127     C
C       0.6637  0.67121   0.0873     C
C       0.6637  0.82879   0.5873     C
O       0.6664  0.12715   0.5989     O
O       0.6664  0.37285   0.0989     O
O       0.6664  0.62715   0.9011     O
O       0.6664  0.87285   0.4011     O
H       0.6756   0.1002   0.2399     H
H       0.6756   0.3998   0.7399     H
H       0.6756   0.6002   0.2601     H
H       0.6756   0.8998   0.7601     H
N       0.6769  0.18938   0.5177     N
N       0.6769  0.31062   0.0177     N
N       0.6769  0.68938   0.9823     N
N       0.6769  0.81062   0.4823     N
H       0.6782   0.1656   0.1892     H
H       0.6782   0.3344   0.6892     H
H       0.6782   0.6656   0.3108     H
H       0.6782   0.8344   0.8108     H
N       0.6876  0.22209   0.0273     N
N       0.6876  0.27791   0.5273     N
N       0.6876  0.72209   0.4727     N
N       0.6876  0.77791   0.9727     N
C       0.6886  0.20084   0.0829     C
C       0.6886  0.29916   0.5829     C
C       0.6886  0.70084   0.4171     C
C       0.6886  0.79916   0.9171     C
N       0.6952  0.19639   0.4097     N
N       0.6952  0.30361   0.9097     N
N       0.6952  0.69639   0.0903     N
N       0.6952  0.80361   0.5903     N
N       0.7054  0.20855   0.4757     N
N       0.7054  0.29145   0.9757     N
N       0.7054  0.70855   0.0243     N
N       0.7054  0.79145   0.5243     N
H        0.717   0.2002   0.1102     H
H        0.717   0.2998   0.6102     H
H        0.717   0.7002   0.3898     H
H        0.717   0.7998   0.8898     H
Cu        0.75     0.25      0.0    Cu
Cu        0.75     0.25      0.5    Cu
Cu        0.75     0.75      0.0    Cu
Cu        0.75     0.75      0.5    Cu
H        0.783   0.2002   0.3898     H
H        0.783   0.2998   0.8898     H
H        0.783   0.7002   0.1102     H
H        0.783   0.7998   0.6102     H
N       0.7946  0.20855   0.0243     N
N       0.7946  0.29145   0.5243     N
N       0.7946  0.70855   0.4757     N
N       0.7946  0.79145   0.9757     N
N       0.8048  0.19639   0.0903     N
N       0.8048  0.30361   0.5903     N
N       0.8048  0.69639   0.4097     N
N       0.8048  0.80361   0.9097     N
C       0.8114  0.20084   0.4171     C
C       0.8114  0.29916   0.9171     C
C       0.8114  0.70084   0.0829     C
C       0.8114  0.79916   0.5829     C
N       0.8124  0.22209   0.4727     N
N       0.8124  0.27791   0.9727     N
N       0.8124  0.72209   0.0273     N
N       0.8124  0.77791   0.5273     N
H       0.8218   0.1656   0.3108     H
H       0.8218   0.3344   0.8108     H
H       0.8218   0.6656   0.1892     H
H       0.8218   0.8344   0.6892     H
N       0.8231  0.18938   0.9823     N
N       0.8231  0.31062   0.4823     N
N       0.8231  0.68938   0.5177     N
N       0.8231  0.81062   0.0177     N
H       0.8244   0.1002   0.2601     H
H       0.8244   0.3998   0.7601     H
H       0.8244   0.6002   0.2399     H
H       0.8244   0.8998   0.7399     H
O       0.8336  0.12715   0.9011     O
O       0.8336  0.37285   0.4011     O
O       0.8336  0.62715   0.5989     O
O       0.8336  0.87285   0.0989     O
C       0.8363  0.17121   0.0873     C
C       0.8363  0.32879   0.5873     C
C       0.8363  0.67121   0.4127     C
C       0.8363  0.82879   0.9127     C
H       0.8366   0.0844   0.8168     H
H       0.8366   0.4156   0.3168     H
H       0.8366   0.5844   0.6832     H
H       0.8366   0.9156   0.1832     H
H        0.844   0.1335   0.2191     H
H        0.844   0.3665   0.7191     H
H        0.844   0.6335   0.2809     H
H        0.844   0.8665   0.7809     H
N       0.8454  0.15925    0.338     N
N       0.8454  0.34075    0.838     N
N       0.8454  0.65925    0.162     N
N       0.8454  0.84075    0.662     N
H       0.8467   0.0465    0.723     H
H       0.8467   0.4535    0.223     H
H       0.8467   0.5465    0.777     H
H       0.8467   0.9535    0.277     H
N       0.8476  0.16588   0.0201     N
N       0.8476  0.33412   0.5201     N
N       0.8476  0.66588   0.4799     N
N       0.8476  0.83412   0.9799     N
H       0.8492   0.1587   0.1247     H
H       0.8492   0.3413   0.6247     H
H       0.8492   0.6587   0.3753     H
H       0.8492   0.8413   0.8753     H
C       0.8517  0.17962   0.3991     C
C       0.8517  0.32038   0.8991     C
C       0.8517  0.67962   0.1009     C
C       0.8517  0.82038   0.6009     C
C       0.8527  0.22218   0.5114     C
C       0.8527  0.27782   0.0114     C
C       0.8527  0.72218   0.9886     C
C       0.8527  0.77782   0.4886     C
C       0.8535   0.1146   0.2507     C
H       0.8535   0.2369     0.55     H
H       0.8535   0.2631     0.05     H
C       0.8535   0.3854   0.7507     C
C       0.8535   0.6146   0.2493     C
H       0.8535   0.7369     0.95     H
H       0.8535   0.7631     0.45     H
C       0.8535   0.8854   0.7493     C
C       0.8637   0.0691   0.8145     C
C       0.8637   0.4309   0.3145     C
C       0.8637   0.5691   0.6855     C
C       0.8637   0.9309   0.1855     C
C       0.8684  0.11856    0.937     C
C       0.8684  0.38144    0.437     C
C       0.8684  0.61856    0.563     C
C       0.8684  0.88144    0.063     C
C         0.87   0.0467   0.7585     C
C         0.87   0.4533   0.2585     C
C         0.87   0.5467   0.7415     C
C         0.87   0.9533   0.2415     C
C        0.873  0.13057   0.3179     C
C        0.873  0.36943   0.8179     C
C        0.873  0.63057   0.1821     C
C        0.873  0.86943   0.6821     C
C       0.8848   0.1401   0.0008     C
C       0.8848   0.3599   0.5008     C
C       0.8848   0.6401   0.4992     C
C       0.8848   0.8599   0.9992     C
H       0.8907   0.1241   0.0393     H
H       0.8907   0.3759   0.5393     H
H       0.8907   0.6241   0.4607     H
H       0.8907   0.8759   0.9607     H
N       0.8925  0.09248   0.2189     N
N       0.8925  0.40752   0.7189     N
N       0.8925  0.59248   0.2811     N
N       0.8925  0.90752   0.7811     N
C       0.8932   0.1793   0.4394     C
C       0.8932   0.3207   0.9394     C
C       0.8932   0.6793   0.0606     C
C       0.8932   0.8207   0.5606     C
C       0.8938   0.2013   0.4969     C
C       0.8938   0.2987   0.9969     C
C       0.8938   0.7013   0.0031     C
C       0.8938   0.7987   0.5031     C
N       0.8984  0.09027   0.9257     N
N       0.8984  0.40973   0.4257     N
N       0.8984  0.59027   0.5743     N
N       0.8984  0.90973   0.0743     N
C       0.8985  0.06836   0.8674     C
C       0.8985  0.43164   0.3674     C
C       0.8985  0.56836   0.6326     C
C       0.8985  0.93164   0.1326     C
O       0.9071  0.11812   0.3511     O
O       0.9071  0.38188   0.8511     O
O       0.9071  0.61812   0.1489     O
O       0.9071  0.88188   0.6489     O
N       0.9101  0.09949   0.1551     N
N       0.9101  0.40051   0.6551     N
N       0.9101  0.59949   0.3449     N
N       0.9101  0.90051   0.8449     N
H       0.9104   0.0529   0.2864     H
H       0.9104   0.4471   0.7864     H
H       0.9104   0.5529   0.2136     H
H       0.9104   0.9471   0.7136     H
C       0.9108   0.0249   0.7555     C
C       0.9108   0.4751   0.2555     C
C       0.9108   0.5249   0.7445     C
C       0.9108   0.9751   0.2445     C
H       0.9153   0.0107   0.7165     H
H       0.9153   0.4893   0.2165     H
H       0.9153   0.5107   0.7835     H
H       0.9153   0.9893   0.2835     H
H       0.9157   0.1523   0.9906     H
H       0.9157   0.3477   0.4906     H
H       0.9157   0.6523   0.5094     H
H       0.9157   0.8477   0.0094     H
C        0.916  0.06353   0.2437     C
C        0.916  0.43647   0.7437     C
C        0.916  0.56353   0.2563     C
C        0.916  0.93647   0.7563     C
H       0.9194   0.0853   0.9577     H
H       0.9194   0.4147   0.4577     H
H       0.9194   0.5853   0.5423     H
H       0.9194   0.9147   0.0423     H
H         0.92   0.1648   0.4287     H
H         0.92   0.3352   0.9287     H
H         0.92   0.6648   0.0713     H
H         0.92   0.8352   0.5713     H
H       0.9215    0.202   0.5256     H
H       0.9215    0.298   0.0256     H
H       0.9215    0.702   0.9744     H
H       0.9215    0.798   0.4744     H
C        0.937   0.0442    0.862     C
C        0.937   0.4558    0.362     C
C        0.937   0.5442    0.638     C
C        0.937   0.9558    0.138     C
N       0.9438  0.07609   0.1424     N
N       0.9438  0.42391   0.6424     N
N       0.9438  0.57609   0.3576     N
N       0.9438  0.92391   0.8576     N
N       0.9448  0.02302   0.8067     N
N       0.9448  0.47698   0.3067     N
N       0.9448  0.52302   0.6933     N
N       0.9448  0.97698   0.1933     N
N       0.9479  0.05301    0.197     N
N       0.9479  0.44699    0.697     N
N       0.9479  0.55301    0.303     N
N       0.9479  0.94699    0.803     N
H        0.959   0.0424   0.8989     H
H        0.959   0.4576   0.3989     H
H        0.959   0.5424   0.6011     H
H        0.959   0.9576   0.1011     H
