data_I
_chemical_name_common  '/home/zhangsd/repos/MofS-CGCNN/ML/data/SSD/clean_cifs/ENESUN_clean'
_cell_length_a 27.09000
_cell_length_b 38.27600
_cell_length_c 19.10700
_cell_angle_alpha 90.00000
_cell_angle_beta  90.00000
_cell_angle_gamma 90.00000
_space_group_name_H-M_alt      'P 1'


loop_
_space_group_symop_operation_xyz
  'x, y, z' 

loop_
_atom_site_label
_atom_site_fract_x
_atom_site_fract_y
_atom_site_fract_z
_atom_site_type_symbol
Co         0.0  0.01211  0.69762    Co
Co         0.0  0.48789  0.19762    Co
Co         0.0  0.51211  0.80238    Co
Co         0.0  0.98789  0.30238    Co
H       0.0408   0.0461   0.3965     H
H       0.0408   0.4539   0.8965     H
H       0.0408   0.5461   0.1035     H
H       0.0408   0.9539   0.6035     H
N      0.05354  0.05292   0.6979     N
N      0.05354  0.44708   0.1979     N
N      0.05354  0.55292   0.8021     N
N      0.05354  0.94708   0.3021     N
N        0.056  0.07627   0.6437     N
N        0.056  0.42373   0.1437     N
N        0.056  0.57627   0.8563     N
N        0.056  0.92373   0.3563     N
N       0.0589  0.02519   0.3062     N
N       0.0589  0.47481   0.8062     N
N       0.0589  0.52519   0.1938     N
N       0.0589  0.97481   0.6938     N
C       0.0643  0.04687   0.3611     C
C       0.0643  0.45313   0.8611     C
C       0.0643  0.54687   0.1389     C
C       0.0643  0.95313   0.6389     C
H       0.0756   0.2014    0.027     H
H       0.0756   0.2986    0.527     H
H       0.0756   0.7014    0.473     H
H       0.0756   0.7986    0.973     H
H       0.0783   0.0881    0.457     H
H       0.0783   0.4119    0.957     H
H       0.0783   0.5881    0.043     H
H       0.0783   0.9119    0.543     H
H       0.0784   0.1635   0.9328     H
H       0.0784   0.3365   0.4328     H
H       0.0784   0.6635   0.5672     H
H       0.0784   0.8365   0.0672     H
H        0.083   0.1526   0.4945     H
H        0.083   0.3474   0.9945     H
H        0.083   0.6526   0.0055     H
H        0.083   0.8474   0.5055     H
C       0.0862  0.06337   0.7441     C
C       0.0862  0.43663   0.2441     C
C       0.0862  0.56337   0.7559     C
C       0.0862  0.93663   0.2559     C
N       0.0888  0.09979    0.657     N
N       0.0888  0.40021    0.157     N
N       0.0888  0.59979    0.843     N
N       0.0888  0.90021    0.343     N
H       0.0904   0.0126   0.2177     H
H       0.0904   0.4874   0.7177     H
H       0.0904   0.5126   0.2823     H
H       0.0904   0.9874   0.7823     H
O       0.0922  0.11692   0.8528     O
O       0.0922  0.38308   0.3528     O
O       0.0922  0.61692   0.6472     O
O       0.0922  0.88308   0.1472     O
H       0.0928   0.0527   0.7868     H
H       0.0928   0.4473   0.2868     H
H       0.0928   0.5527   0.7132     H
H       0.0928   0.9473   0.2132     H
C       0.0937  0.02672    0.257     C
C       0.0937  0.47328    0.757     C
C       0.0937  0.52672    0.243     C
C       0.0937  0.97328    0.743     C
N       0.1008  0.09258   0.4264     N
N       0.1008  0.40742   0.9264     N
N       0.1008  0.59258   0.0736     N
N       0.1008  0.90742   0.5736     N
C       0.1034  0.07051   0.3678     C
C       0.1034  0.42949   0.8678     C
C       0.1034  0.57051   0.1322     C
C       0.1034  0.92949   0.6322     C
C       0.1035  0.20036   0.9988     C
C       0.1035  0.29964   0.4988     C
C       0.1035  0.70036   0.5012     C
C       0.1035  0.79964   0.0012     C
C        0.105    0.178   0.9428     C
C        0.105    0.322   0.4428     C
C        0.105    0.678   0.5572     C
C        0.105    0.822   0.0572     C
H       0.1082   0.1245   0.5426     H
H       0.1082   0.3755   0.0426     H
H       0.1082   0.6245   0.9574     H
H       0.1082   0.8755   0.4574     H
N       0.1083  0.09204   0.7193     N
N       0.1083  0.40796   0.2193     N
N       0.1083  0.59204   0.7807     N
N       0.1083  0.90796   0.2807     N
C       0.1139  0.14068   0.5042     C
C       0.1139  0.35932   0.0042     C
C       0.1139  0.64068   0.9958     C
C       0.1139  0.85932   0.4958     C
C       0.1269  0.12942   0.8209     C
C       0.1269  0.37058   0.3209     C
C       0.1269  0.62942   0.6791     C
C       0.1269  0.87058   0.1791     C
C       0.1304  0.12007   0.4386     C
C       0.1304  0.37993   0.9386     C
C       0.1304  0.62007   0.0614     C
C       0.1304  0.87993   0.5614     C
C       0.1345   0.0481   0.2616     C
C       0.1345   0.4519   0.7616     C
C       0.1345   0.5481   0.2384     C
C       0.1345   0.9519   0.7384     C
C       0.1392   0.0708   0.3168     C
C       0.1392   0.4292   0.8168     C
C       0.1392   0.5708   0.1832     C
C       0.1392   0.9292   0.6832     C
H       0.1423   0.2365   0.0511     H
H       0.1423   0.2635   0.5511     H
H       0.1423   0.7365   0.4489     H
H       0.1423   0.7635   0.9489     H
C       0.1439  0.22142   0.0131     C
C       0.1439  0.27858   0.5131     C
C       0.1439  0.72142   0.4869     C
C       0.1439  0.77858   0.9869     C
C        0.146  0.11443    0.752     C
C        0.146  0.38557    0.252     C
C        0.146  0.61443    0.748     C
C        0.146  0.88557    0.248     C
C        0.147   0.1775   0.9013     C
C        0.147   0.3225   0.4013     C
C        0.147   0.6775   0.5987     C
C        0.147   0.8225   0.0987     C
N      0.15068  0.16594   0.5244     N
N      0.15068  0.33406   0.0244     N
N      0.15068  0.66594   0.9756     N
N      0.15068  0.83406   0.4756     N
N       0.1539  0.15683    0.841     N
N       0.1539  0.34317    0.341     N
N       0.1539  0.65683    0.659     N
N       0.1539  0.84317    0.159     N
H       0.1545   0.1334   0.7205     H
H       0.1545   0.3666   0.2205     H
H       0.1545   0.6334   0.7795     H
H       0.1545   0.8666   0.2795     H
H       0.1588   0.0472   0.2273     H
H       0.1588   0.4528   0.7273     H
H       0.1588   0.5472   0.2727     H
H       0.1588   0.9528   0.7727     H
N       0.1642  0.16921   0.5925     N
N       0.1642  0.33079   0.0925     N
N       0.1642  0.66921   0.9075     N
N       0.1642  0.83079   0.4075     N
O      0.16551  0.12922   0.4041     O
O      0.16551  0.37078   0.9041     O
O      0.16551  0.62922   0.0959     O
O      0.16551  0.87078   0.5959     O
H       0.1659    0.086   0.3197     H
H       0.1659    0.414   0.8197     H
H       0.1659    0.586   0.1803     H
H       0.1659    0.914   0.6803     H
H       0.1717   0.1934   0.4394     H
H       0.1717   0.3066   0.9394     H
H       0.1717   0.6934   0.0606     H
H       0.1717   0.8066   0.5606     H
C       0.1747  0.18991   0.4873     C
C       0.1747  0.31009   0.9873     C
C       0.1747  0.68991   0.0127     C
C       0.1747  0.81009   0.5127     C
H       0.1756   0.1009   0.7607     H
H       0.1756   0.3991   0.2607     H
H       0.1756   0.6009   0.7393     H
H       0.1756   0.8991   0.2393     H
H       0.1782   0.1625   0.8143     H
H       0.1782   0.3375   0.3143     H
H       0.1782   0.6625   0.6857     H
H       0.1782   0.8375   0.1857     H
N       0.1855  0.22089   0.9738     N
N       0.1855  0.27911   0.4738     N
N       0.1855  0.72089   0.5262     N
N       0.1855  0.77911   0.0262     N
C       0.1857  0.19934   0.9199     C
C       0.1857  0.30066   0.4199     C
C       0.1857  0.69934   0.5801     C
C       0.1857  0.80066   0.0801     C
N      0.19647  0.19456   0.5949     N
N      0.19647  0.30544   0.0949     N
N      0.19647  0.69456   0.9051     N
N      0.19647  0.80544   0.4051     N
N      0.20351   0.2079   0.5301     N
N      0.20351   0.2921   0.0301     N
N      0.20351   0.7079   0.9699     N
N      0.20351   0.7921   0.4699     N
H        0.214   0.1988   0.8922     H
H        0.214   0.3012   0.3922     H
H        0.214   0.6988   0.6078     H
H        0.214   0.8012   0.1078     H
Co        0.25     0.25      0.0    Co
Co        0.25     0.25      0.5    Co
Co        0.25     0.75      0.0    Co
Co        0.25     0.75      0.5    Co
H        0.286   0.1988   0.6078     H
H        0.286   0.3012   0.1078     H
H        0.286   0.6988   0.8922     H
H        0.286   0.8012   0.3922     H
N      0.29649   0.2079   0.9699     N
N      0.29649   0.2921   0.4699     N
N      0.29649   0.7079   0.5301     N
N      0.29649   0.7921   0.0301     N
N      0.30353  0.19456   0.9051     N
N      0.30353  0.30544   0.4051     N
N      0.30353  0.69456   0.5949     N
N      0.30353  0.80544   0.0949     N
C       0.3143  0.19934   0.5801     C
C       0.3143  0.30066   0.0801     C
C       0.3143  0.69934   0.9199     C
C       0.3143  0.80066   0.4199     C
N       0.3145  0.22089   0.5262     N
N       0.3145  0.27911   0.0262     N
N       0.3145  0.72089   0.9738     N
N       0.3145  0.77911   0.4738     N
H       0.3218   0.1625   0.6857     H
H       0.3218   0.3375   0.1857     H
H       0.3218   0.6625   0.8143     H
H       0.3218   0.8375   0.3143     H
H       0.3244   0.1009   0.7393     H
H       0.3244   0.3991   0.2393     H
H       0.3244   0.6009   0.7607     H
H       0.3244   0.8991   0.2607     H
C       0.3253  0.18991   0.0127     C
C       0.3253  0.31009   0.5127     C
C       0.3253  0.68991   0.4873     C
C       0.3253  0.81009   0.9873     C
H       0.3283   0.1934   0.0606     H
H       0.3283   0.3066   0.5606     H
H       0.3283   0.6934   0.4394     H
H       0.3283   0.8066   0.9394     H
H       0.3341    0.086   0.1803     H
H       0.3341    0.414   0.6803     H
H       0.3341    0.586   0.3197     H
H       0.3341    0.914   0.8197     H
O      0.33449  0.12922   0.0959     O
O      0.33449  0.37078   0.5959     O
O      0.33449  0.62922   0.4041     O
O      0.33449  0.87078   0.9041     O
N       0.3358  0.16921   0.9075     N
N       0.3358  0.33079   0.4075     N
N       0.3358  0.66921   0.5925     N
N       0.3358  0.83079   0.0925     N
H       0.3412   0.0472   0.2727     H
H       0.3412   0.4528   0.7727     H
H       0.3412   0.5472   0.2273     H
H       0.3412   0.9528   0.7273     H
H       0.3455   0.1334   0.7795     H
H       0.3455   0.3666   0.2795     H
H       0.3455   0.6334   0.7205     H
H       0.3455   0.8666   0.2205     H
N       0.3461  0.15683    0.659     N
N       0.3461  0.34317    0.159     N
N       0.3461  0.65683    0.841     N
N       0.3461  0.84317    0.341     N
N      0.34932  0.16594   0.9756     N
N      0.34932  0.33406   0.4756     N
N      0.34932  0.66594   0.5244     N
N      0.34932  0.83406   0.0244     N
C        0.353   0.1775   0.5987     C
C        0.353   0.3225   0.0987     C
C        0.353   0.6775   0.9013     C
C        0.353   0.8225   0.4013     C
C        0.354  0.11443    0.748     C
C        0.354  0.38557    0.248     C
C        0.354  0.61443    0.752     C
C        0.354  0.88557    0.252     C
C       0.3561  0.22142   0.4869     C
C       0.3561  0.27858   0.9869     C
C       0.3561  0.72142   0.0131     C
C       0.3561  0.77858   0.5131     C
H       0.3577   0.2365   0.4489     H
H       0.3577   0.2635   0.9489     H
H       0.3577   0.7365   0.0511     H
H       0.3577   0.7635   0.5511     H
C       0.3608   0.0708   0.1832     C
C       0.3608   0.4292   0.6832     C
C       0.3608   0.5708   0.3168     C
C       0.3608   0.9292   0.8168     C
C       0.3655   0.0481   0.2384     C
C       0.3655   0.4519   0.7384     C
C       0.3655   0.5481   0.2616     C
C       0.3655   0.9519   0.7616     C
C       0.3696  0.12007   0.0614     C
C       0.3696  0.37993   0.5614     C
C       0.3696  0.62007   0.4386     C
C       0.3696  0.87993   0.9386     C
C       0.3731  0.12942   0.6791     C
C       0.3731  0.37058   0.1791     C
C       0.3731  0.62942   0.8209     C
C       0.3731  0.87058   0.3209     C
C       0.3861  0.14068   0.9958     C
C       0.3861  0.35932   0.4958     C
C       0.3861  0.64068   0.5042     C
C       0.3861  0.85932   0.0042     C
N       0.3917  0.09204   0.7807     N
N       0.3917  0.40796   0.2807     N
N       0.3917  0.59204   0.7193     N
N       0.3917  0.90796   0.2193     N
H       0.3918   0.1245   0.9574     H
H       0.3918   0.3755   0.4574     H
H       0.3918   0.6245   0.5426     H
H       0.3918   0.8755   0.0426     H
C        0.395    0.178   0.5572     C
C        0.395    0.322   0.0572     C
C        0.395    0.678   0.9428     C
C        0.395    0.822   0.4428     C
C       0.3965  0.20036   0.5012     C
C       0.3965  0.29964   0.0012     C
C       0.3965  0.70036   0.9988     C
C       0.3965  0.79964   0.4988     C
C       0.3966  0.07051   0.1322     C
C       0.3966  0.42949   0.6322     C
C       0.3966  0.57051   0.3678     C
C       0.3966  0.92949   0.8678     C
N       0.3992  0.09258   0.0736     N
N       0.3992  0.40742   0.5736     N
N       0.3992  0.59258   0.4264     N
N       0.3992  0.90742   0.9264     N
C       0.4063  0.02672    0.243     C
C       0.4063  0.47328    0.743     C
C       0.4063  0.52672    0.257     C
C       0.4063  0.97328    0.757     C
H       0.4072   0.0527   0.7132     H
H       0.4072   0.4473   0.2132     H
H       0.4072   0.5527   0.7868     H
H       0.4072   0.9473   0.2868     H
O       0.4078  0.11692   0.6472     O
O       0.4078  0.38308   0.1472     O
O       0.4078  0.61692   0.8528     O
O       0.4078  0.88308   0.3528     O
H       0.4096   0.0126   0.2823     H
H       0.4096   0.4874   0.7823     H
H       0.4096   0.5126   0.2177     H
H       0.4096   0.9874   0.7177     H
N       0.4112  0.09979    0.843     N
N       0.4112  0.40021    0.343     N
N       0.4112  0.59979    0.657     N
N       0.4112  0.90021    0.157     N
C       0.4138  0.06337   0.7559     C
C       0.4138  0.43663   0.2559     C
C       0.4138  0.56337   0.7441     C
C       0.4138  0.93663   0.2441     C
H        0.417   0.1526   0.0055     H
H        0.417   0.3474   0.5055     H
H        0.417   0.6526   0.4945     H
H        0.417   0.8474   0.9945     H
H       0.4216   0.1635   0.5672     H
H       0.4216   0.3365   0.0672     H
H       0.4216   0.6635   0.9328     H
H       0.4216   0.8365   0.4328     H
H       0.4217   0.0881    0.043     H
H       0.4217   0.4119    0.543     H
H       0.4217   0.5881    0.457     H
H       0.4217   0.9119    0.957     H
H       0.4244   0.2014    0.473     H
H       0.4244   0.2986    0.973     H
H       0.4244   0.7014    0.027     H
H       0.4244   0.7986    0.527     H
C       0.4357  0.04687   0.1389     C
C       0.4357  0.45313   0.6389     C
C       0.4357  0.54687   0.3611     C
C       0.4357  0.95313   0.8611     C
N       0.4411  0.02519   0.1938     N
N       0.4411  0.47481   0.6938     N
N       0.4411  0.52519   0.3062     N
N       0.4411  0.97481   0.8062     N
N        0.444  0.07627   0.8563     N
N        0.444  0.42373   0.3563     N
N        0.444  0.57627   0.6437     N
N        0.444  0.92373   0.1437     N
N      0.44646  0.05292   0.8021     N
N      0.44646  0.44708   0.3021     N
N      0.44646  0.55292   0.6979     N
N      0.44646  0.94708   0.1979     N
H       0.4592   0.0461   0.1035     H
H       0.4592   0.4539   0.6035     H
H       0.4592   0.5461   0.3965     H
H       0.4592   0.9539   0.8965     H
Co         0.5  0.01211  0.80238    Co
Co         0.5  0.48789  0.30238    Co
Co         0.5  0.51211  0.69762    Co
Co         0.5  0.98789  0.19762    Co
H       0.5408   0.0461   0.1035     H
H       0.5408   0.4539   0.6035     H
H       0.5408   0.5461   0.3965     H
H       0.5408   0.9539   0.8965     H
N      0.55354  0.05292   0.8021     N
N      0.55354  0.44708   0.3021     N
N      0.55354  0.55292   0.6979     N
N      0.55354  0.94708   0.1979     N
N        0.556  0.07627   0.8563     N
N        0.556  0.42373   0.3563     N
N        0.556  0.57627   0.6437     N
N        0.556  0.92373   0.1437     N
N       0.5589  0.02519   0.1938     N
N       0.5589  0.47481   0.6938     N
N       0.5589  0.52519   0.3062     N
N       0.5589  0.97481   0.8062     N
C       0.5643  0.04687   0.1389     C
C       0.5643  0.45313   0.6389     C
C       0.5643  0.54687   0.3611     C
C       0.5643  0.95313   0.8611     C
H       0.5756   0.2014    0.473     H
H       0.5756   0.2986    0.973     H
H       0.5756   0.7014    0.027     H
H       0.5756   0.7986    0.527     H
H       0.5783   0.0881    0.043     H
H       0.5783   0.4119    0.543     H
H       0.5783   0.5881    0.457     H
H       0.5783   0.9119    0.957     H
H       0.5784   0.1635   0.5672     H
H       0.5784   0.3365   0.0672     H
H       0.5784   0.6635   0.9328     H
H       0.5784   0.8365   0.4328     H
H        0.583   0.1526   0.0055     H
H        0.583   0.3474   0.5055     H
H        0.583   0.6526   0.4945     H
H        0.583   0.8474   0.9945     H
C       0.5862  0.06337   0.7559     C
C       0.5862  0.43663   0.2559     C
C       0.5862  0.56337   0.7441     C
C       0.5862  0.93663   0.2441     C
N       0.5888  0.09979    0.843     N
N       0.5888  0.40021    0.343     N
N       0.5888  0.59979    0.657     N
N       0.5888  0.90021    0.157     N
H       0.5904   0.0126   0.2823     H
H       0.5904   0.4874   0.7823     H
H       0.5904   0.5126   0.2177     H
H       0.5904   0.9874   0.7177     H
O       0.5922  0.11692   0.6472     O
O       0.5922  0.38308   0.1472     O
O       0.5922  0.61692   0.8528     O
O       0.5922  0.88308   0.3528     O
H       0.5928   0.0527   0.7132     H
H       0.5928   0.4473   0.2132     H
H       0.5928   0.5527   0.7868     H
H       0.5928   0.9473   0.2868     H
C       0.5937  0.02672    0.243     C
C       0.5937  0.47328    0.743     C
C       0.5937  0.52672    0.257     C
C       0.5937  0.97328    0.757     C
N       0.6008  0.09258   0.0736     N
N       0.6008  0.40742   0.5736     N
N       0.6008  0.59258   0.4264     N
N       0.6008  0.90742   0.9264     N
C       0.6034  0.07051   0.1322     C
C       0.6034  0.42949   0.6322     C
C       0.6034  0.57051   0.3678     C
C       0.6034  0.92949   0.8678     C
C       0.6035  0.20036   0.5012     C
C       0.6035  0.29964   0.0012     C
C       0.6035  0.70036   0.9988     C
C       0.6035  0.79964   0.4988     C
C        0.605    0.178   0.5572     C
C        0.605    0.322   0.0572     C
C        0.605    0.678   0.9428     C
C        0.605    0.822   0.4428     C
H       0.6082   0.1245   0.9574     H
H       0.6082   0.3755   0.4574     H
H       0.6082   0.6245   0.5426     H
H       0.6082   0.8755   0.0426     H
N       0.6083  0.09204   0.7807     N
N       0.6083  0.40796   0.2807     N
N       0.6083  0.59204   0.7193     N
N       0.6083  0.90796   0.2193     N
C       0.6139  0.14068   0.9958     C
C       0.6139  0.35932   0.4958     C
C       0.6139  0.64068   0.5042     C
C       0.6139  0.85932   0.0042     C
C       0.6269  0.12942   0.6791     C
C       0.6269  0.37058   0.1791     C
C       0.6269  0.62942   0.8209     C
C       0.6269  0.87058   0.3209     C
C       0.6304  0.12007   0.0614     C
C       0.6304  0.37993   0.5614     C
C       0.6304  0.62007   0.4386     C
C       0.6304  0.87993   0.9386     C
C       0.6345   0.0481   0.2384     C
C       0.6345   0.4519   0.7384     C
C       0.6345   0.5481   0.2616     C
C       0.6345   0.9519   0.7616     C
C       0.6392   0.0708   0.1832     C
C       0.6392   0.4292   0.6832     C
C       0.6392   0.5708   0.3168     C
C       0.6392   0.9292   0.8168     C
H       0.6423   0.2365   0.4489     H
H       0.6423   0.2635   0.9489     H
H       0.6423   0.7365   0.0511     H
H       0.6423   0.7635   0.5511     H
C       0.6439  0.22142   0.4869     C
C       0.6439  0.27858   0.9869     C
C       0.6439  0.72142   0.0131     C
C       0.6439  0.77858   0.5131     C
C        0.646  0.11443    0.748     C
C        0.646  0.38557    0.248     C
C        0.646  0.61443    0.752     C
C        0.646  0.88557    0.252     C
C        0.647   0.1775   0.5987     C
C        0.647   0.3225   0.0987     C
C        0.647   0.6775   0.9013     C
C        0.647   0.8225   0.4013     C
N      0.65068  0.16594   0.9756     N
N      0.65068  0.33406   0.4756     N
N      0.65068  0.66594   0.5244     N
N      0.65068  0.83406   0.0244     N
N       0.6539  0.15683    0.659     N
N       0.6539  0.34317    0.159     N
N       0.6539  0.65683    0.841     N
N       0.6539  0.84317    0.341     N
H       0.6545   0.1334   0.7795     H
H       0.6545   0.3666   0.2795     H
H       0.6545   0.6334   0.7205     H
H       0.6545   0.8666   0.2205     H
H       0.6588   0.0472   0.2727     H
H       0.6588   0.4528   0.7727     H
H       0.6588   0.5472   0.2273     H
H       0.6588   0.9528   0.7273     H
N       0.6642  0.16921   0.9075     N
N       0.6642  0.33079   0.4075     N
N       0.6642  0.66921   0.5925     N
N       0.6642  0.83079   0.0925     N
O      0.66551  0.12922   0.0959     O
O      0.66551  0.37078   0.5959     O
O      0.66551  0.62922   0.4041     O
O      0.66551  0.87078   0.9041     O
H       0.6659    0.086   0.1803     H
H       0.6659    0.414   0.6803     H
H       0.6659    0.586   0.3197     H
H       0.6659    0.914   0.8197     H
H       0.6717   0.1934   0.0606     H
H       0.6717   0.3066   0.5606     H
H       0.6717   0.6934   0.4394     H
H       0.6717   0.8066   0.9394     H
C       0.6747  0.18991   0.0127     C
C       0.6747  0.31009   0.5127     C
C       0.6747  0.68991   0.4873     C
C       0.6747  0.81009   0.9873     C
H       0.6756   0.1009   0.7393     H
H       0.6756   0.3991   0.2393     H
H       0.6756   0.6009   0.7607     H
H       0.6756   0.8991   0.2607     H
H       0.6782   0.1625   0.6857     H
H       0.6782   0.3375   0.1857     H
H       0.6782   0.6625   0.8143     H
H       0.6782   0.8375   0.3143     H
N       0.6855  0.22089   0.5262     N
N       0.6855  0.27911   0.0262     N
N       0.6855  0.72089   0.9738     N
N       0.6855  0.77911   0.4738     N
C       0.6857  0.19934   0.5801     C
C       0.6857  0.30066   0.0801     C
C       0.6857  0.69934   0.9199     C
C       0.6857  0.80066   0.4199     C
N      0.69647  0.19456   0.9051     N
N      0.69647  0.30544   0.4051     N
N      0.69647  0.69456   0.5949     N
N      0.69647  0.80544   0.0949     N
N      0.70351   0.2079   0.9699     N
N      0.70351   0.2921   0.4699     N
N      0.70351   0.7079   0.5301     N
N      0.70351   0.7921   0.0301     N
H        0.714   0.1988   0.6078     H
H        0.714   0.3012   0.1078     H
H        0.714   0.6988   0.8922     H
H        0.714   0.8012   0.3922     H
Co        0.75     0.25      0.0    Co
Co        0.75     0.25      0.5    Co
Co        0.75     0.75      0.0    Co
Co        0.75     0.75      0.5    Co
H        0.786   0.1988   0.8922     H
H        0.786   0.3012   0.3922     H
H        0.786   0.6988   0.6078     H
H        0.786   0.8012   0.1078     H
N      0.79649   0.2079   0.5301     N
N      0.79649   0.2921   0.0301     N
N      0.79649   0.7079   0.9699     N
N      0.79649   0.7921   0.4699     N
N      0.80353  0.19456   0.5949     N
N      0.80353  0.30544   0.0949     N
N      0.80353  0.69456   0.9051     N
N      0.80353  0.80544   0.4051     N
C       0.8143  0.19934   0.9199     C
C       0.8143  0.30066   0.4199     C
C       0.8143  0.69934   0.5801     C
C       0.8143  0.80066   0.0801     C
N       0.8145  0.22089   0.9738     N
N       0.8145  0.27911   0.4738     N
N       0.8145  0.72089   0.5262     N
N       0.8145  0.77911   0.0262     N
H       0.8218   0.1625   0.8143     H
H       0.8218   0.3375   0.3143     H
H       0.8218   0.6625   0.6857     H
H       0.8218   0.8375   0.1857     H
H       0.8244   0.1009   0.7607     H
H       0.8244   0.3991   0.2607     H
H       0.8244   0.6009   0.7393     H
H       0.8244   0.8991   0.2393     H
C       0.8253  0.18991   0.4873     C
C       0.8253  0.31009   0.9873     C
C       0.8253  0.68991   0.0127     C
C       0.8253  0.81009   0.5127     C
H       0.8283   0.1934   0.4394     H
H       0.8283   0.3066   0.9394     H
H       0.8283   0.6934   0.0606     H
H       0.8283   0.8066   0.5606     H
H       0.8341    0.086   0.3197     H
H       0.8341    0.414   0.8197     H
H       0.8341    0.586   0.1803     H
H       0.8341    0.914   0.6803     H
O      0.83449  0.12922   0.4041     O
O      0.83449  0.37078   0.9041     O
O      0.83449  0.62922   0.0959     O
O      0.83449  0.87078   0.5959     O
N       0.8358  0.16921   0.5925     N
N       0.8358  0.33079   0.0925     N
N       0.8358  0.66921   0.9075     N
N       0.8358  0.83079   0.4075     N
H       0.8412   0.0472   0.2273     H
H       0.8412   0.4528   0.7273     H
H       0.8412   0.5472   0.2727     H
H       0.8412   0.9528   0.7727     H
H       0.8455   0.1334   0.7205     H
H       0.8455   0.3666   0.2205     H
H       0.8455   0.6334   0.7795     H
H       0.8455   0.8666   0.2795     H
N       0.8461  0.15683    0.841     N
N       0.8461  0.34317    0.341     N
N       0.8461  0.65683    0.659     N
N       0.8461  0.84317    0.159     N
N      0.84932  0.16594   0.5244     N
N      0.84932  0.33406   0.0244     N
N      0.84932  0.66594   0.9756     N
N      0.84932  0.83406   0.4756     N
C        0.853   0.1775   0.9013     C
C        0.853   0.3225   0.4013     C
C        0.853   0.6775   0.5987     C
C        0.853   0.8225   0.0987     C
C        0.854  0.11443    0.752     C
C        0.854  0.38557    0.252     C
C        0.854  0.61443    0.748     C
C        0.854  0.88557    0.248     C
C       0.8561  0.22142   0.0131     C
C       0.8561  0.27858   0.5131     C
C       0.8561  0.72142   0.4869     C
C       0.8561  0.77858   0.9869     C
H       0.8577   0.2365   0.0511     H
H       0.8577   0.2635   0.5511     H
H       0.8577   0.7365   0.4489     H
H       0.8577   0.7635   0.9489     H
C       0.8608   0.0708   0.3168     C
C       0.8608   0.4292   0.8168     C
C       0.8608   0.5708   0.1832     C
C       0.8608   0.9292   0.6832     C
C       0.8655   0.0481   0.2616     C
C       0.8655   0.4519   0.7616     C
C       0.8655   0.5481   0.2384     C
C       0.8655   0.9519   0.7384     C
C       0.8696  0.12007   0.4386     C
C       0.8696  0.37993   0.9386     C
C       0.8696  0.62007   0.0614     C
C       0.8696  0.87993   0.5614     C
C       0.8731  0.12942   0.8209     C
C       0.8731  0.37058   0.3209     C
C       0.8731  0.62942   0.6791     C
C       0.8731  0.87058   0.1791     C
C       0.8861  0.14068   0.5042     C
C       0.8861  0.35932   0.0042     C
C       0.8861  0.64068   0.9958     C
C       0.8861  0.85932   0.4958     C
N       0.8917  0.09204   0.7193     N
N       0.8917  0.40796   0.2193     N
N       0.8917  0.59204   0.7807     N
N       0.8917  0.90796   0.2807     N
H       0.8918   0.1245   0.5426     H
H       0.8918   0.3755   0.0426     H
H       0.8918   0.6245   0.9574     H
H       0.8918   0.8755   0.4574     H
C        0.895    0.178   0.9428     C
C        0.895    0.322   0.4428     C
C        0.895    0.678   0.5572     C
C        0.895    0.822   0.0572     C
C       0.8965  0.20036   0.9988     C
C       0.8965  0.29964   0.4988     C
C       0.8965  0.70036   0.5012     C
C       0.8965  0.79964   0.0012     C
C       0.8966  0.07051   0.3678     C
C       0.8966  0.42949   0.8678     C
C       0.8966  0.57051   0.1322     C
C       0.8966  0.92949   0.6322     C
N       0.8992  0.09258   0.4264     N
N       0.8992  0.40742   0.9264     N
N       0.8992  0.59258   0.0736     N
N       0.8992  0.90742   0.5736     N
C       0.9063  0.02672    0.257     C
C       0.9063  0.47328    0.757     C
C       0.9063  0.52672    0.243     C
C       0.9063  0.97328    0.743     C
H       0.9072   0.0527   0.7868     H
H       0.9072   0.4473   0.2868     H
H       0.9072   0.5527   0.7132     H
H       0.9072   0.9473   0.2132     H
O       0.9078  0.11692   0.8528     O
O       0.9078  0.38308   0.3528     O
O       0.9078  0.61692   0.6472     O
O       0.9078  0.88308   0.1472     O
H       0.9096   0.0126   0.2177     H
H       0.9096   0.4874   0.7177     H
H       0.9096   0.5126   0.2823     H
H       0.9096   0.9874   0.7823     H
N       0.9112  0.09979    0.657     N
N       0.9112  0.40021    0.157     N
N       0.9112  0.59979    0.843     N
N       0.9112  0.90021    0.343     N
C       0.9138  0.06337   0.7441     C
C       0.9138  0.43663   0.2441     C
C       0.9138  0.56337   0.7559     C
C       0.9138  0.93663   0.2559     C
H        0.917   0.1526   0.4945     H
H        0.917   0.3474   0.9945     H
H        0.917   0.6526   0.0055     H
H        0.917   0.8474   0.5055     H
H       0.9216   0.1635   0.9328     H
H       0.9216   0.3365   0.4328     H
H       0.9216   0.6635   0.5672     H
H       0.9216   0.8365   0.0672     H
H       0.9217   0.0881    0.457     H
H       0.9217   0.4119    0.957     H
H       0.9217   0.5881    0.043     H
H       0.9217   0.9119    0.543     H
H       0.9244   0.2014    0.027     H
H       0.9244   0.2986    0.527     H
H       0.9244   0.7014    0.473     H
H       0.9244   0.7986    0.973     H
C       0.9357  0.04687   0.3611     C
C       0.9357  0.45313   0.8611     C
C       0.9357  0.54687   0.1389     C
C       0.9357  0.95313   0.6389     C
N       0.9411  0.02519   0.3062     N
N       0.9411  0.47481   0.8062     N
N       0.9411  0.52519   0.1938     N
N       0.9411  0.97481   0.6938     N
N        0.944  0.07627   0.6437     N
N        0.944  0.42373   0.1437     N
N        0.944  0.57627   0.8563     N
N        0.944  0.92373   0.3563     N
N      0.94646  0.05292   0.6979     N
N      0.94646  0.44708   0.1979     N
N      0.94646  0.55292   0.8021     N
N      0.94646  0.94708   0.3021     N
H       0.9592   0.0461   0.3965     H
H       0.9592   0.4539   0.8965     H
H       0.9592   0.5461   0.1035     H
H       0.9592   0.9539   0.6035     H
