data_I
_chemical_name_common  '/home/zhangsd/repos/MofS-CGCNN/ML/data/SSD/clean_cifs/ENITEB_clean'
_cell_length_a 15.62060
_cell_length_b 15.90540
_cell_length_c 22.84960
_cell_angle_alpha 90.00000
_cell_angle_beta  90.00000
_cell_angle_gamma 119.41000
_space_group_name_H-M_alt      'P 1'


loop_
_space_group_symop_operation_xyz
  'x, y, z' 

loop_
_atom_site_label
_atom_site_fract_x
_atom_site_fract_y
_atom_site_fract_z
_atom_site_type_symbol
H       0.0016     0.37   0.5046     H
O      0.00244  0.82846  0.62636     O
H       0.0039    0.851   0.8789     H
C       0.0059   0.8388   0.0408     C
H       0.0064   0.8366   0.0824     H
C       0.0065    0.851   0.9204     C
C      0.01101  0.86602   0.5768     C
C      0.01163  0.47326  0.09096     C
C      0.02258  0.60636  0.03489     C
C      0.02361  0.49202  0.54664     C
H        0.034    0.154   0.9647     H
O      0.04473  0.66106    0.656     O
C      0.04603  0.63466    0.604     C
C      0.06171  0.13982  0.45256     C
C       0.0672    0.152   0.5136     C
C      0.07811  0.13982  0.04744     C
H       0.0793   0.5356   0.5244     H
C       0.0799   0.8418   0.9488     C
C      0.08181  0.83282  0.00907     C
C       0.0848    0.152   0.9864     C
O       0.0875   0.6936   0.5618     O
O      0.09128  0.90356   0.5499     O
C      0.09305   0.5369  0.12353     C
H       0.1005   0.7712   0.1739     H
C        0.104     0.67  0.06745     C
H       0.1171   0.5132   0.1538     H
H         0.12    0.154   0.5353     H
H       0.1309   0.8418   0.9262     H
H       0.1389    0.868   0.2592     H
C      0.13924  0.63528  0.11177     C
C      0.14499  0.13398   0.4232     C
Cd     0.14957  0.82876  0.62997    Cd
C      0.14984  0.83728   0.1724     C
H       0.1529    0.149   0.1211     H
C       0.1555    0.149   0.0796     C
Si     0.16709  0.80472  0.05103    Si
C       0.1671   0.1612   0.9592     C
H       0.1698   0.1634   0.9176     H
O       0.1704   0.8574   0.7302     O
C      0.17291  0.89522   0.2237     C
O      0.17398  0.17154  0.37364     O
O      0.18772  0.09644   0.4501     O
H       0.1949   0.6788    0.134     H
C      0.19784  0.87568   0.1207     C
C      0.21553  0.94686  0.72455     C
H       0.2195   0.7804   0.9316     H
O       0.2309   0.9866  0.67544     O
Cd     0.23505      0.0      0.5    Cd
C       0.2381   0.1582   0.0512     C
O       0.2443   0.0134  0.32456     O
C      0.24471  0.99082  0.22165     C
H       0.2485   0.9036   0.8323     H
C      0.24899  0.16718  0.99093     C
C      0.25389  0.00918  0.77835     C
C      0.26571  0.96982   0.8305     C
C      0.26867  0.05314  0.27545     C
H       0.2709    0.132   0.7408     H
C      0.27468  0.97176   0.1205     C
O       0.2768   0.9002  0.54989     O
C      0.27769  0.10478   0.7763     C
C      0.27995  0.80656  0.95232     C
C      0.28431  0.83386  0.01051     C
H       0.2891   0.1582   0.0738     H
O      0.29551  0.82822  0.62477     O
C      0.29589  0.03018   0.1695     C
C      0.30292  0.02824   0.8795     C
C      0.31256  0.16272   0.8276     C
H       0.3128   0.9972    0.086     H
O        0.313   0.1426   0.2698     O
H       0.3156   0.0028    0.914     H
Cd     0.32081  0.17124  0.37003    Cd
C      0.32133  0.86466   0.5738     C
C      0.32216  0.12432   0.8793     C
H       0.3293   0.2288   0.8261     H
H       0.3449   0.0964   0.1677     H
H       0.3609   0.7988   0.8847     H
Si     0.36237  0.19528  0.94897    Si
C      0.36395  0.81752  0.92448     C
H       0.3684     0.37   0.9954     H
C      0.37269  0.87214  0.04086     C
H       0.3757   0.8908   0.0806     H
O       0.3766   0.0998  0.45011     O
O      0.38367  0.33894    0.344     O
H       0.3921   0.9092   0.4662     H
O       0.3939   0.3064   0.4382     O
H       0.3961   0.5132   0.3462     H
C      0.40347   0.8558  0.54516     C
C      0.41137  0.36534    0.396     C
C      0.41622  0.39364  0.96511     C
C      0.42642  0.88312  0.48697     C
C        0.434     0.33  0.93255     C
H       0.4379   0.7988   0.6153     H
H       0.4391   0.2196   0.0684     H
C      0.44385   0.5369  0.37647     C
C      0.45045  0.16614  0.98949     C
C      0.45233   0.8558  0.95484     C
C      0.45357  0.81752  0.57552     C
H       0.4563   0.5356   0.9756     H
C      0.45667  0.13534   0.4262     C
C       0.4567  0.88312  0.01303     C
C      0.46163  0.47326  0.40904     C
O      0.46729  0.17178  0.37523     O
C      0.46841  0.49202  0.95336     C
C      0.47339  0.19344  0.04768     C
H       0.4829   0.0908   0.5338     H
H       0.4839   0.6788    0.366     H
H       0.4849   0.1092   0.9194     H
C      0.49604  0.63528  0.38823     C
C      0.49945  0.87214  0.45914     C
C      0.50055  0.12786  0.95914     C
C      0.50396  0.36472  0.88823     C
H       0.5151   0.8908   0.4194     H
H       0.5161   0.3212    0.866     H
H       0.5171   0.9092   0.0338     H
C      0.52661  0.80656  0.54768     C
C      0.53159  0.50798  0.45336     C
O      0.53271  0.82822  0.87523     O
C      0.53837  0.52674  0.90904     C
C       0.5433  0.11688  0.51303     C
C      0.54333  0.86466   0.9262     C
H       0.5437   0.4644   0.4756     H
C      0.54643  0.18248  0.07552     C
C      0.54767   0.1442  0.45484     C
C      0.54955  0.83386  0.48949     C
C      0.55615   0.4631  0.87647     C
H       0.5609   0.7804   0.5684     H
H       0.5621   0.2012   0.1153     H
C        0.566     0.67  0.43255     C
C      0.57358  0.11688  0.98697     C
C      0.58378  0.60636  0.46511     C
C      0.58863  0.63466    0.896     C
C      0.59653   0.1442  0.04516     C
H       0.6039   0.4868   0.8462     H
O       0.6061   0.6936   0.9382     O
H       0.6079   0.0908   0.9662     H
O      0.61633  0.66106    0.844     O
O       0.6234   0.9002  0.95011     O
H       0.6243   0.1092   0.5806     H
C      0.62731  0.12786  0.54086     C
H       0.6316     0.63   0.4954     H
C      0.63605  0.18248  0.42448     C
Si     0.63763  0.80472  0.44897    Si
H       0.6391   0.2012   0.3847     H
H       0.6551   0.9036   0.6677     H
H       0.6707   0.7712   0.3261     H
C      0.67784  0.87568   0.3793     C
C      0.67867  0.13534   0.0738     C
Cd     0.67919  0.82876  0.87003    Cd
H       0.6844   0.9972    0.414     H
O        0.687   0.8574   0.7698     O
H       0.6872   0.0028    0.586     H
C      0.68744  0.83728   0.3276     C
C      0.69708  0.97176   0.3795     C
C      0.70411  0.96982   0.6695     C
O      0.70449  0.17178  0.12477     O
H       0.7109   0.8418   0.5738     H
C      0.71569  0.16614  0.51051     C
C      0.72005  0.19344  0.45232     C
C      0.72231  0.89522   0.2763     C
O       0.7232   0.0998  0.04989     O
C      0.72532  0.02824   0.6205     C
H       0.7291    0.868   0.2408     H
C      0.73133  0.94686  0.77545     C
C      0.73429  0.03018   0.3305     C
C      0.74611  0.99082  0.27835     C
C      0.75101  0.83282  0.49093     C
H       0.7515   0.0964   0.3323     H
C      0.75529  0.00918  0.72165     C
O       0.7557   0.9866  0.82456     O
C       0.7619   0.8418   0.5512     C
Cd     0.76495      0.0      0.0    Cd
O       0.7691   0.0134  0.17544     O
H       0.7805   0.2196   0.4316     H
C      0.78447  0.05314  0.22455     C
C      0.80216  0.12432   0.6207     C
H       0.8051   0.3212    0.634     H
O      0.81228  0.90356   0.9501     O
O      0.82602  0.82846  0.87364     O
C      0.82709  0.10478   0.7237     C
O       0.8296   0.1426   0.2302     O
H       0.8302   0.8366   0.4176     H
C       0.8329   0.8388   0.4592     C
Si     0.83291  0.19528  0.55103    Si
C       0.8445    0.851   0.5796     C
H       0.8471    0.851   0.6211     H
C      0.85016  0.16272   0.6724     C
Cd     0.85043  0.17124  0.12996    Cd
C      0.85501  0.86602   0.9232     C
C      0.86076  0.36472  0.61177     C
H       0.8611    0.132   0.7592     H
H       0.8691   0.1582   0.4262     H
H         0.88    0.846   0.0353     H
H       0.8829   0.4868   0.6538     H
C        0.896     0.33  0.56745     C
H       0.8995   0.2288   0.6739     H
C      0.90695   0.4631  0.62353     C
O      0.90872  0.09644   0.0499     O
O       0.9125   0.3064   0.0618     O
C       0.9152    0.848   0.4864     C
C      0.91819  0.16718  0.50907     C
C       0.9201   0.1582   0.4488     C
H       0.9207   0.4644   0.0244     H
C      0.92189  0.86018  0.54744     C
C       0.9328    0.848   0.0136     C
C      0.93829  0.86018  0.95256     C
C      0.95397  0.36534    0.104     C
O      0.95527  0.33894    0.156     O
H        0.966    0.846   0.4647     H
C      0.97639  0.50798  0.04664     C
C      0.97742  0.39364  0.53489     C
C      0.98837  0.52674  0.59096     C
C      0.98899  0.13398   0.0768     C
C       0.9935    0.149   0.4204     C
H       0.9936   0.1634   0.5824     H
C       0.9941   0.1612   0.5408     C
H       0.9961    0.149   0.3789     H
O      0.99756  0.17154  0.12636     O
H       0.9984     0.63   0.0046     H
