data_I
_chemical_name_common  '/home/zhangsd/repos/MofS-CGCNN/ML/data/SSD/clean_cifs/ERAHOV_clean'
_cell_length_a 11.45000
_cell_length_b 11.46700
_cell_length_c 20.94400
_cell_angle_alpha 90.00000
_cell_angle_beta  90.00000
_cell_angle_gamma 90.00000
_space_group_name_H-M_alt      'P 1'


loop_
_space_group_symop_operation_xyz
  'x, y, z' 

loop_
_atom_site_label
_atom_site_fract_x
_atom_site_fract_y
_atom_site_fract_z
_atom_site_type_symbol
Au         0.0      0.0      0.0    Au
C          0.0      0.0   0.0945     C
N          0.0      0.0   0.1493     N
Co         0.0      0.0     0.25    Co
N          0.0      0.0   0.3507     N
C          0.0      0.0   0.4055     C
Au         0.0      0.0      0.5    Au
C          0.0      0.0   0.5945     C
N          0.0      0.0   0.6493     N
Co         0.0      0.0     0.75    Co
N          0.0      0.0   0.8507     N
C          0.0      0.0   0.9055     C
N          0.0   0.1886     0.25     N
N          0.0   0.1886     0.75     N
C          0.0   0.4355     0.25     C
C          0.0   0.4355     0.75     C
C          0.0   0.5645     0.25     C
C          0.0   0.5645     0.75     C
N          0.0   0.8114     0.25     N
N          0.0   0.8114     0.75     N
C       0.0383   0.3725   0.1972     C
C       0.0383   0.3725   0.8028     C
C       0.0383   0.6275   0.3028     C
C       0.0383   0.6275   0.6972     C
C       0.0393   0.2526   0.2001     C
C       0.0393   0.2526   0.7999     C
C       0.0393   0.7474   0.2999     C
C       0.0393   0.7474   0.7001     C
Br      0.0606  0.20367      0.0    Br
Br      0.0606  0.79633      0.5    Br
H       0.0642   0.4107   0.1603     H
H       0.0642   0.4107   0.8397     H
H       0.0642   0.5893   0.3397     H
H       0.0642   0.5893   0.6603     H
H       0.0688   0.2119   0.1655     H
H       0.0688   0.2119   0.8345     H
H       0.0688   0.7881   0.3345     H
H       0.0688   0.7881   0.6655     H
N       0.1899      0.0     0.25     N
N       0.1899      0.0     0.75     N
H         0.21   0.0808    0.331     H
H         0.21   0.0808    0.669     H
H         0.21   0.9192    0.169     H
H         0.21   0.9192    0.831     H
C       0.2515   0.0451   0.2973     C
C       0.2515   0.0451   0.7027     C
C       0.2515   0.9549   0.2027     C
C       0.2515   0.9549   0.7973     C
C       0.3717   0.0445   0.2995     C
C       0.3717   0.0445   0.7005     C
C       0.3717   0.9555   0.2005     C
C       0.3717   0.9555   0.7995     C
H       0.4097   0.0772   0.3347     H
H       0.4097   0.0772   0.6653     H
H       0.4097   0.9228   0.1653     H
H       0.4097   0.9228   0.8347     H
C       0.4356      0.0     0.25     C
C       0.4356      0.0     0.75     C
C       0.5644      0.0     0.25     C
C       0.5644      0.0     0.75     C
H       0.5903   0.0772   0.1653     H
H       0.5903   0.0772   0.8347     H
H       0.5903   0.9228   0.3347     H
H       0.5903   0.9228   0.6653     H
C       0.6283   0.0445   0.2005     C
C       0.6283   0.0445   0.7995     C
C       0.6283   0.9555   0.2995     C
C       0.6283   0.9555   0.7005     C
C       0.7485   0.0451   0.2027     C
C       0.7485   0.0451   0.7973     C
C       0.7485   0.9549   0.2973     C
C       0.7485   0.9549   0.7027     C
H         0.79   0.0808    0.169     H
H         0.79   0.0808    0.831     H
H         0.79   0.9192    0.331     H
H         0.79   0.9192    0.669     H
N       0.8101      0.0     0.25     N
N       0.8101      0.0     0.75     N
H       0.9312   0.2119   0.3345     H
H       0.9312   0.2119   0.6655     H
H       0.9312   0.7881   0.1655     H
H       0.9312   0.7881   0.8345     H
H       0.9358   0.4107   0.3397     H
H       0.9358   0.4107   0.6603     H
H       0.9358   0.5893   0.1603     H
H       0.9358   0.5893   0.8397     H
Br      0.9394  0.20367      0.5    Br
Br      0.9394  0.79633      0.0    Br
C       0.9607   0.2526   0.2999     C
C       0.9607   0.2526   0.7001     C
C       0.9607   0.7474   0.2001     C
C       0.9607   0.7474   0.7999     C
C       0.9617   0.3725   0.3028     C
C       0.9617   0.3725   0.6972     C
C       0.9617   0.6275   0.1972     C
C       0.9617   0.6275   0.8028     C
