data_I
_chemical_name_common  '/home/zhangsd/repos/MofS-CGCNN/ML/data/SSD/clean_cifs/ERUNIQ_clean'
_cell_length_a 13.81470
_cell_length_b 13.81470
_cell_length_c 19.49110
_cell_angle_alpha 90.00000
_cell_angle_beta  90.00000
_cell_angle_gamma 90.00000
_space_group_name_H-M_alt      'P 1'


loop_
_space_group_symop_operation_xyz
  'x, y, z' 

loop_
_atom_site_label
_atom_site_fract_x
_atom_site_fract_y
_atom_site_fract_z
_atom_site_type_symbol
O          0.0      0.0      0.0     O
H       0.0015   0.3028   0.2702     H
C       0.0031   0.7184   0.4952     C
H       0.0167    0.249   0.4547     H
C       0.0189   0.1881   0.1595     C
C       0.0285   0.3765   0.5897     C
Co     0.04313  0.15017  0.01164    Co
O        0.046   0.1235   0.1179     O
C       0.0606   0.3348   0.5326     C
O       0.0611     0.77  0.16038     O
C       0.0649   0.2764   0.2677     C
C       0.0671    0.631   0.6088     C
H       0.0721   0.4119   0.6178     H
O       0.0834   0.2892  0.03524     O
H       0.0873   0.5998   0.6498     H
H       0.0881   0.4279   0.1178     H
C       0.0906   0.2165    0.214     C
C       0.0969   0.7236   0.5181     C
H       0.0998   0.5873   0.1498     H
O      0.10049  0.81969  0.00813     O
H       0.1133   0.3381   0.3545     H
H       0.1135   0.7815   0.9752     H
C       0.1235   0.4715   0.0897     C
O       0.1235    0.954   0.8821     O
C        0.131   0.5671   0.1088     C
N        0.132   0.6791  0.57313     N
C       0.1325   0.2975   0.3176     C
H       0.1406   0.7622   0.4922     H
C       0.1493   0.3364   0.0076     C
Co     0.15017  0.95687  0.98836    Co
H       0.1517   0.7903   0.8268     H
H       0.1619   0.3867   0.8545     H
C       0.1636   0.3507   0.5076     C
C       0.1652   0.4394   0.0326     C
N       0.1791    0.632  0.07313     N
Co     0.17966  0.78445   0.0957    Co
O      0.18031  0.10049  0.99187     O
H        0.185   0.6937   0.2405     H
C       0.1869   0.1884   0.2111     C
C       0.1881   0.9811   0.8405     C
C       0.1884   0.8131   0.7889     C
O       0.1928   0.2943  0.46086     O
H       0.1937    0.685   0.7405     H
H       0.1972   0.4985   0.7702     H
C       0.2025   0.3675   0.8176     C
O       0.2057   0.3072  0.96086     O
H       0.2097   0.1517   0.1732     H
O       0.2108   0.4166  0.53524     O
C       0.2138   0.7505   0.7368     C
Co     0.21555  0.17966   0.9043    Co
C       0.2165   0.9094    0.786     C
C       0.2184   0.5031   0.9952     C
H       0.2185   0.1135   0.0248     H
C       0.2236   0.4351   0.7677     C
C       0.2236   0.5969   0.0181     C
N       0.2248   0.2635  0.31711     N
O         0.23   0.0611  0.83962     O
N       0.2365   0.2752  0.81711     N
H       0.2378   0.1406   0.5078     H
H        0.249   0.9833   0.5453     H
C       0.2495   0.2138   0.2632     C
C       0.2505   0.7138   0.2368     C
H        0.251   0.4833   0.9547     H
H       0.2622   0.6406   0.9922     H
N       0.2635   0.7752  0.68289     N
O         0.27   0.5611  0.66038     O
N       0.2752   0.7635  0.18289     N
C       0.2764   0.0969   0.4819     C
C       0.2764   0.9351   0.7323     C
H       0.2815   0.6135   0.4752     H
C       0.2816   0.0031   0.5048     C
C       0.2835   0.4094    0.714     C
Co     0.28445  0.67966   0.5957    Co
C       0.2862   0.2505   0.7632     C
O       0.2892   0.9166  0.96476     O
H       0.2903   0.6517   0.3268     H
O       0.2943   0.8072  0.53914     O
C       0.2975   0.8675   0.6824     C
H       0.3028   0.9985   0.7298     H
H       0.3063    0.185   0.7595     H
O       0.3072   0.7943  0.03914     O
C       0.3116   0.3131   0.7111     C
C       0.3119   0.4811   0.6595     C
C       0.3131   0.6884   0.2889     C
H        0.315   0.1937   0.2595     H
O      0.31969  0.60049  0.50813     O
Co     0.32034  0.28445   0.4043    Co
N       0.3209    0.132  0.42687     N
C       0.3348   0.9394   0.4674     C
C       0.3364   0.8507   0.9924     C
H       0.3381   0.8867   0.6455     H
H       0.3483   0.2903   0.6732     H
Co     0.34983  0.45687  0.51164    Co
C       0.3507   0.8364   0.4924     C
H       0.3594   0.2622   0.0078     H
C       0.3675   0.7975   0.1824     C
N        0.368   0.1791  0.92687     N
C        0.369   0.0671   0.3912     C
O       0.3765    0.454   0.6179     O
C       0.3765   0.9715   0.4103     C
H       0.3865   0.2815   0.5248     H
H       0.3867   0.8381   0.1455     H
O      0.39951  0.31969  0.49187     O
H       0.4002   0.0873   0.3502     H
C       0.4031   0.2236   0.9819     C
C       0.4094   0.7165    0.286     C
H       0.4119   0.9279   0.3822     H
H       0.4127   0.0998   0.8502     H
O       0.4166   0.7892  0.46476     O
H       0.4279   0.9119   0.8822     H
C       0.4329    0.131   0.8912     C
C       0.4351   0.7764   0.2323     C
O       0.4389     0.27  0.33962     O
C       0.4394   0.8348   0.9674     C
O        0.454   0.6235   0.3821     O
Co     0.45687  0.65017  0.48836    Co
C       0.4715   0.8765   0.9103     C
C       0.4811   0.6881   0.3405     C
H       0.4833    0.749   0.0453     H
C       0.4969   0.2184   0.0048     C
H       0.4985   0.8028   0.2298     H
O          0.5      0.5      0.5     O
H       0.5015   0.1972   0.2298     H
C       0.5031   0.7816   0.0048     C
H       0.5167    0.251   0.0453     H
C       0.5189   0.3119   0.3405     C
C       0.5285   0.1235   0.9103     C
Co     0.54313  0.34983  0.48836    Co
O        0.546   0.3765   0.3821     O
C       0.5606   0.1652   0.9674     C
O       0.5611     0.73  0.33962     O
C       0.5649   0.2236   0.2323     C
C       0.5671    0.869   0.8912     C
H       0.5721   0.0881   0.8822     H
O       0.5834   0.2108  0.46476     O
H       0.5873   0.9002   0.8502     H
H       0.5881   0.0721   0.3822     H
C       0.5906   0.2835    0.286     C
C       0.5969   0.7764   0.9819     C
H       0.5998   0.9127   0.3502     H
O      0.60049  0.68031  0.49187     O
H       0.6133   0.1619   0.1455     H
H       0.6135   0.7185   0.5248     H
C       0.6235   0.0285   0.4103     C
O       0.6235    0.546   0.6179     O
C        0.631   0.9329   0.3912     C
N        0.632   0.8209  0.92687     N
C       0.6325   0.2025   0.1824     C
H       0.6406   0.7378   0.0078     H
C       0.6493   0.1636   0.4924     C
Co     0.65017  0.54313  0.51164    Co
H       0.6517   0.7097   0.6732     H
H       0.6619   0.1133   0.6455     H
C       0.6636   0.1493   0.9924     C
C       0.6652   0.0606   0.4674     C
N       0.6791    0.868  0.42687     N
Co     0.67966  0.71555   0.4043    Co
O      0.68031  0.39951  0.50813     O
H        0.685   0.8063   0.2595     H
C       0.6869   0.3116   0.2889     C
C       0.6881   0.5189   0.6595     C
C       0.6884   0.6869   0.7111     C
O       0.6928   0.2057  0.03914     O
H       0.6937    0.815   0.7595     H
H       0.6972   0.0015   0.7298     H
C       0.7025   0.1325   0.6824     C
O       0.7057   0.1928  0.53914     O
H       0.7097   0.3483   0.3268     H
O       0.7108   0.0834  0.96476     O
C       0.7138   0.7495   0.7632     C
Co     0.71555  0.32034   0.5957    Co
C       0.7165   0.5906    0.714     C
C       0.7184   0.9969   0.5048     C
H       0.7185   0.3865   0.4752     H
C       0.7236   0.0649   0.7323     C
C       0.7236   0.9031   0.4819     C
N       0.7248   0.2365  0.18289     N
O         0.73   0.4389  0.66038     O
N       0.7365   0.2248  0.68289     N
H       0.7378   0.3594   0.9922     H
H        0.749   0.5167   0.9547     H
C       0.7495   0.2862   0.2368     C
C       0.7505   0.7862   0.2632     C
H        0.751   0.0167   0.5453     H
H       0.7622   0.8594   0.5078     H
N       0.7635   0.7248  0.81711     N
O         0.77   0.9389  0.83962     O
N       0.7752   0.7365  0.31711     N
C       0.7764   0.4031   0.0181     C
C       0.7764   0.5649   0.7677     C
H       0.7815   0.8865   0.0248     H
C       0.7816   0.4969   0.9952     C
C       0.7835   0.0906    0.786     C
Co     0.78445  0.82034   0.9043    Co
C       0.7862   0.2495   0.7368     C
O       0.7892   0.5834  0.53524     O
H       0.7903   0.8483   0.1732     H
O       0.7943   0.6928  0.96086     O
C       0.7975   0.6325   0.8176     C
H       0.8028   0.5015   0.7702     H
H       0.8063    0.315   0.7405     H
O       0.8072   0.7057  0.46086     O
C       0.8116   0.1869   0.7889     C
C       0.8119   0.0189   0.8405     C
C       0.8131   0.8116   0.2111     C
H        0.815   0.3063   0.2405     H
O      0.81969  0.89951  0.99187     O
Co     0.82034  0.21555   0.0957    Co
N       0.8209    0.368  0.07313     N
C       0.8348   0.5606   0.0326     C
C       0.8364   0.6493   0.5076     C
H       0.8381   0.6133   0.8545     H
H       0.8483   0.2097   0.8268     H
Co     0.84983  0.04313  0.98836    Co
C       0.8507   0.6636   0.0076     C
H       0.8594   0.2378   0.4922     H
C       0.8675   0.7025   0.3176     C
N        0.868   0.3209  0.57313     N
C        0.869   0.4329   0.1088     C
O       0.8765    0.046   0.8821     O
C       0.8765   0.5285   0.0897     C
H       0.8865   0.2185   0.9752     H
H       0.8867   0.6619   0.3545     H
O      0.89951  0.18031  0.00813     O
H       0.9002   0.4127   0.1498     H
C       0.9031   0.2764   0.5181     C
C       0.9094   0.7835    0.214     C
H       0.9119   0.5721   0.1178     H
H       0.9127   0.4002   0.6498     H
O       0.9166   0.7108  0.03524     O
H       0.9279   0.5881   0.6178     H
C       0.9329    0.369   0.6088     C
C       0.9351   0.7236   0.2677     C
O       0.9389     0.23  0.16038     O
C       0.9394   0.6652   0.5326     C
O        0.954   0.8765   0.1179     O
Co     0.95687  0.84983  0.01164    Co
C       0.9715   0.6235   0.5897     C
C       0.9811   0.8119   0.1595     C
H       0.9833    0.751   0.4547     H
C       0.9969   0.2816   0.4952     C
H       0.9985   0.6972   0.2702     H
