data_I
_chemical_name_common  '/home/zhangsd/repos/MofS-CGCNN/ML/data/SSD/clean_cifs/ESEVIH_clean'
_cell_length_a 11.66950
_cell_length_b 16.32350
_cell_length_c 16.32350
_cell_angle_alpha 90.00000
_cell_angle_beta  90.00000
_cell_angle_gamma 90.00000
_space_group_name_H-M_alt      'P 1'


loop_
_space_group_symop_operation_xyz
  'x, y, z' 

loop_
_atom_site_label
_atom_site_fract_x
_atom_site_fract_y
_atom_site_fract_z
_atom_site_type_symbol
C          0.0   0.0048   0.1898     C
H          0.0     0.05    0.829     H
C          0.0   0.1642   0.2496     C
H          0.0    0.171     0.05     H
C          0.0   0.1898   0.9952     C
C          0.0   0.2484   0.2853     C
C          0.0   0.2496   0.8358     C
C          0.0   0.2853   0.7516     C
O          0.0   0.3955    0.569     O
H          0.0    0.401    0.517     H
O          0.0    0.431   0.3955     O
H          0.0    0.483    0.401     H
H          0.0    0.517    0.599     H
O          0.0    0.569   0.6045     O
H          0.0    0.599    0.483     H
O          0.0   0.6045    0.431     O
C          0.0   0.7147   0.2484     C
C          0.0   0.7504   0.1642     C
C          0.0   0.7516   0.7147     C
C          0.0   0.8102   0.0048     C
H          0.0    0.829     0.95     H
C          0.0   0.8358   0.7504     C
H          0.0     0.95    0.171     H
C          0.0   0.9952   0.8102     C
O       0.0957   0.2799   0.3001     O
O       0.0957   0.3001   0.7201     O
O       0.0957   0.6999   0.2799     O
O       0.0957   0.7201   0.6999     O
C       0.1028    0.125   0.2328     C
C       0.1028   0.2328    0.875     C
C       0.1028   0.7672    0.125     C
C       0.1028    0.875   0.7672     C
C       0.1035   0.0453   0.2028     C
C       0.1035   0.2028   0.9547     C
C       0.1035   0.7972   0.0453     C
C       0.1035   0.9547   0.7972     C
Zn     0.13561  0.34743   0.6139    Zn
Zn     0.13561   0.3861  0.34743    Zn
Zn     0.13561   0.6139  0.65257    Zn
Zn     0.13561  0.65257   0.3861    Zn
H        0.172    0.152     0.24     H
H        0.172     0.24    0.848     H
H        0.172     0.76    0.152     H
H        0.172    0.848     0.76     H
O       0.1989   0.3341   0.4578     O
O       0.1989   0.4578   0.6659     O
O       0.1989   0.5422   0.3341     O
O       0.1989   0.6659   0.5422     O
C       0.2143   0.0026   0.1847     C
C       0.2143   0.1847   0.9974     C
C       0.2143   0.8153   0.0026     C
C       0.2143   0.9974   0.8153     C
O       0.2154   0.0743   0.8101     O
O       0.2154   0.1899   0.0743     O
O       0.2154   0.8101   0.9257     O
O       0.2154   0.9257   0.1899     O
O       0.2846   0.3101   0.5743     O
O       0.2846   0.4257   0.3101     O
O       0.2846   0.5743   0.6899     O
O       0.2846   0.6899   0.4257     O
C       0.2857   0.3153   0.4974     C
C       0.2857   0.4974   0.6847     C
C       0.2857   0.5026   0.3153     C
C       0.2857   0.6847   0.5026     C
O       0.3011   0.0422   0.1659     O
O       0.3011   0.1659   0.9578     O
O       0.3011   0.8341   0.0422     O
O       0.3011   0.9578   0.8341     O
H        0.328     0.26    0.348     H
H        0.328    0.348     0.74     H
H        0.328    0.652     0.26     H
H        0.328     0.74    0.652     H
Zn     0.36439   0.1139  0.84743    Zn
Zn     0.36439  0.15257   0.1139    Zn
Zn     0.36439  0.84743   0.8861    Zn
Zn     0.36439   0.8861  0.15257    Zn
C       0.3965   0.2972   0.4547     C
C       0.3965   0.4547   0.7028     C
C       0.3965   0.5453   0.2972     C
C       0.3965   0.7028   0.5453     C
C       0.3972   0.2672    0.375     C
C       0.3972    0.375   0.7328     C
C       0.3972    0.625   0.2672     C
C       0.3972   0.7328    0.625     C
O       0.4043   0.1999   0.2201     O
O       0.4043   0.2201   0.8001     O
O       0.4043   0.7799   0.1999     O
O       0.4043   0.8001   0.7799     O
H          0.5    0.017    0.901     H
O          0.5    0.069   0.8955     O
H          0.5    0.099    0.017     H
O          0.5   0.1045    0.069     O
C          0.5   0.2147   0.2516     C
C          0.5   0.2504   0.3358     C
C          0.5   0.2516   0.7853     C
C          0.5   0.3102   0.4952     C
H          0.5    0.329     0.55     H
C          0.5   0.3358   0.7496     C
H          0.5     0.45    0.329     H
C          0.5   0.4952   0.6898     C
C          0.5   0.5048   0.3102     C
H          0.5     0.55    0.671     H
C          0.5   0.6642   0.2504     C
H          0.5    0.671     0.45     H
C          0.5   0.6898   0.5048     C
C          0.5   0.7484   0.2147     C
C          0.5   0.7496   0.6642     C
C          0.5   0.7853   0.7484     C
O          0.5   0.8955    0.931     O
H          0.5    0.901    0.983     H
O          0.5    0.931   0.1045     O
H          0.5    0.983    0.099     H
O       0.5957   0.1999   0.2201     O
O       0.5957   0.2201   0.8001     O
O       0.5957   0.7799   0.1999     O
O       0.5957   0.8001   0.7799     O
C       0.6028   0.2672    0.375     C
C       0.6028    0.375   0.7328     C
C       0.6028    0.625   0.2672     C
C       0.6028   0.7328    0.625     C
C       0.6035   0.2972   0.4547     C
C       0.6035   0.4547   0.7028     C
C       0.6035   0.5453   0.2972     C
C       0.6035   0.7028   0.5453     C
Zn     0.63561   0.1139  0.84743    Zn
Zn     0.63561  0.15257   0.1139    Zn
Zn     0.63561  0.84743   0.8861    Zn
Zn     0.63561   0.8861  0.15257    Zn
H        0.672     0.26    0.348     H
H        0.672    0.348     0.74     H
H        0.672    0.652     0.26     H
H        0.672     0.74    0.652     H
O       0.6989   0.0422   0.1659     O
O       0.6989   0.1659   0.9578     O
O       0.6989   0.8341   0.0422     O
O       0.6989   0.9578   0.8341     O
C       0.7143   0.3153   0.4974     C
C       0.7143   0.4974   0.6847     C
C       0.7143   0.5026   0.3153     C
C       0.7143   0.6847   0.5026     C
O       0.7154   0.3101   0.5743     O
O       0.7154   0.4257   0.3101     O
O       0.7154   0.5743   0.6899     O
O       0.7154   0.6899   0.4257     O
O       0.7846   0.0743   0.8101     O
O       0.7846   0.1899   0.0743     O
O       0.7846   0.8101   0.9257     O
O       0.7846   0.9257   0.1899     O
C       0.7857   0.0026   0.1847     C
C       0.7857   0.1847   0.9974     C
C       0.7857   0.8153   0.0026     C
C       0.7857   0.9974   0.8153     C
O       0.8011   0.3341   0.4578     O
O       0.8011   0.4578   0.6659     O
O       0.8011   0.5422   0.3341     O
O       0.8011   0.6659   0.5422     O
H        0.828    0.152     0.24     H
H        0.828     0.24    0.848     H
H        0.828     0.76    0.152     H
H        0.828    0.848     0.76     H
Zn     0.86439  0.34743   0.6139    Zn
Zn     0.86439   0.3861  0.34743    Zn
Zn     0.86439   0.6139  0.65257    Zn
Zn     0.86439  0.65257   0.3861    Zn
C       0.8965   0.0453   0.2028     C
C       0.8965   0.2028   0.9547     C
C       0.8965   0.7972   0.0453     C
C       0.8965   0.9547   0.7972     C
C       0.8972    0.125   0.2328     C
C       0.8972   0.2328    0.875     C
C       0.8972   0.7672    0.125     C
C       0.8972    0.875   0.7672     C
O       0.9043   0.2799   0.3001     O
O       0.9043   0.3001   0.7201     O
O       0.9043   0.6999   0.2799     O
O       0.9043   0.7201   0.6999     O
