data_I
_chemical_name_common  '/home/zhangsd/repos/MofS-CGCNN/ML/data/SSD/clean_cifs/ETEJUJ_clean'
_cell_length_a 10.51520
_cell_length_b 11.10580
_cell_length_c 12.73960
_cell_angle_alpha 103.89100
_cell_angle_beta  109.70900
_cell_angle_gamma 96.68400
_space_group_name_H-M_alt      'P 1'


loop_
_space_group_symop_operation_xyz
  'x, y, z' 

loop_
_atom_site_label
_atom_site_fract_x
_atom_site_fract_y
_atom_site_fract_z
_atom_site_type_symbol
C       0.0025   0.0883   0.5971     C
H       0.0042   0.1486   0.6626     H
O       0.0171   0.6679   0.4122     O
C       0.0218   0.8797   0.5065     C
C       0.0242   0.9707   0.6054     C
C       0.0397   0.7481   0.5077     C
O       0.0478   0.9489     0.71     O
H       0.0597   0.8764    0.705     H
O       0.0741   0.7267   0.6055     O
Sm     0.10207  0.54777  0.68155    Sm
O       0.1277   0.4285   0.3281     O
O       0.1565   0.4926   0.5128     O
O       0.1759   0.7557   0.8494     O
H       0.1846   0.9191   0.9543     H
C       0.2058   0.4678   0.4356     C
O       0.2362   0.9873   0.9971     O
H       0.2525   0.3939   0.2568     H
C       0.2957   0.7722   0.8478     C
O       0.3305   0.6898   0.7826     O
O       0.3343   0.3974   0.2669     O
C       0.3568   0.4844   0.4677     C
C        0.364   0.9888   0.9952     C
C          0.4    0.891   0.9266     C
H       0.4084     0.56   0.6407     H
C       0.4134   0.4485   0.3824     C
H       0.4401   0.1628   0.1133     H
C       0.4454   0.5357    0.584     C
C       0.4639   0.0973   0.0679     C
C       0.5361   0.9027   0.9321     C
C       0.5546   0.4643    0.416     C
H       0.5599   0.8372   0.8867     H
C       0.5866   0.5515   0.6176     C
H       0.5916     0.44   0.3593     H
C          0.6    0.109   0.0734     C
C        0.636   0.0112   0.0048     C
C       0.6432   0.5156   0.5323     C
O       0.6657   0.6026   0.7331     O
O       0.6695   0.3102   0.2174     O
C       0.7043   0.2278   0.1522     C
H       0.7475   0.6061   0.7432     H
O       0.7638   0.0127   0.0029     O
C       0.7942   0.5322   0.5644     C
H       0.8154   0.0809   0.0457     H
O       0.8241   0.2443   0.1506     O
O       0.8435   0.5074   0.4872     O
O       0.8723   0.5715   0.6719     O
Sm     0.89793  0.45223  0.31845    Sm
O       0.9259   0.2733   0.3945     O
H       0.9403   0.1236    0.295     H
O       0.9522   0.0511     0.29     O
C       0.9603   0.2519   0.4923     C
C       0.9758   0.0293   0.3946     C
C       0.9782   0.1203   0.4935     C
O       0.9829   0.3321   0.5878     O
H       0.9958   0.8514   0.3374     H
C       0.9975   0.9117   0.4029     C
