data_I
_chemical_name_common  '/home/zhangsd/repos/MofS-CGCNN/ML/data/SSD/clean_cifs/ETEKAQ_clean'
_cell_length_a 10.52260
_cell_length_b 11.05450
_cell_length_c 12.77110
_cell_angle_alpha 103.82600
_cell_angle_beta  110.02400
_cell_angle_gamma 96.60200
_space_group_name_H-M_alt      'P 1'


loop_
_space_group_symop_operation_xyz
  'x, y, z' 

loop_
_atom_site_label
_atom_site_fract_x
_atom_site_fract_y
_atom_site_fract_z
_atom_site_type_symbol
C       0.0013   0.0884   0.5958     C
H       0.0018   0.1487   0.6607     H
O       0.0166   0.6663   0.4124     O
C       0.0218   0.8788   0.5066     C
C       0.0235   0.9701   0.6052     C
C       0.0386   0.7464   0.5072     C
O        0.045   0.9472   0.7083     O
H       0.0569   0.8743   0.7032     H
O       0.0731   0.7255   0.6057     O
Gd     0.10304  0.54783  0.68168    Gd
O       0.1256     0.43   0.3317     O
O        0.159   0.4937   0.5176     O
O       0.1755   0.7544   0.8484     O
H        0.184   0.9165   0.9533     H
C       0.2063   0.4687   0.4389     C
O       0.2351   0.9852   0.9964     O
H       0.2483   0.3954   0.2578     H
C       0.2953   0.7716   0.8467     C
O       0.3293   0.6899   0.7807     O
O       0.3298   0.3985    0.267     O
C       0.3573   0.4846   0.4693     C
C       0.3641   0.9884   0.9951     C
C       0.4001   0.8909   0.9264     C
C        0.411   0.4492   0.3825     C
H       0.4118   0.5593   0.6424     H
H        0.441   0.1628   0.1138     H
C       0.4475   0.5352   0.5851     C
C       0.4645   0.0972   0.0681     C
C       0.5355   0.9028   0.9319     C
C       0.5525   0.4648   0.4149     C
H        0.559   0.8372   0.8862     H
H       0.5882   0.4407   0.3576     H
C        0.589   0.5508   0.6175     C
C       0.5999   0.1091   0.0736     C
C       0.6359   0.0116   0.0049     C
C       0.6427   0.5154   0.5307     C
O       0.6702   0.6015    0.733     O
O       0.6707   0.3101   0.2193     O
C       0.7047   0.2284   0.1533     C
H       0.7517   0.6046   0.7422     H
O       0.7649   0.0148   0.0036     O
C       0.7937   0.5313   0.5611     C
H        0.816   0.0835   0.0467     H
O       0.8245   0.2456   0.1516     O
O        0.841   0.5063   0.4824     O
O       0.8744     0.57   0.6683     O
Gd     0.89696  0.45217  0.31832    Gd
O       0.9269   0.2745   0.3943     O
H       0.9431   0.1257   0.2968     H
O        0.955   0.0528   0.2917     O
C       0.9614   0.2536   0.4928     C
C       0.9765   0.0299   0.3948     C
C       0.9782   0.1212   0.4934     C
O       0.9834   0.3337   0.5876     O
H       0.9982   0.8513   0.3393     H
C       0.9987   0.9116   0.4042     C
