data_I
_chemical_name_common  '/home/zhangsd/repos/MofS-CGCNN/ML/data/SSD/clean_cifs/EVUDAA_clean'
_cell_length_a 13.48010
_cell_length_b 13.48010
_cell_length_c 24.58200
_cell_angle_alpha 90.00000
_cell_angle_beta  90.00000
_cell_angle_gamma 90.00000
_space_group_name_H-M_alt      'P 1'


loop_
_space_group_symop_operation_xyz
  'x, y, z' 

loop_
_atom_site_label
_atom_site_fract_x
_atom_site_fract_y
_atom_site_fract_z
_atom_site_type_symbol
C          0.0      0.5     0.25     C
C          0.0      0.5     0.75     C
C       0.0203   0.2984    0.141     C
C       0.0203   0.2984    0.859     C
C       0.0297   0.5839  0.21054     C
C       0.0297   0.5839  0.78946     C
O       0.0388   0.8387  0.05893     O
O       0.0388   0.8387  0.94107     O
C       0.0442   0.3663   0.1817     C
C       0.0442   0.3663   0.8183     C
H       0.0701   0.3218   0.2844     H
H       0.0701   0.3218   0.7156     H
H        0.071   0.2646   0.1224     H
H        0.071   0.2646   0.8776     H
C       0.0778   0.7193   0.1279     C
C       0.0778   0.7193   0.8721     C
C       0.0839   0.4703  0.28946     C
C       0.0839   0.4703  0.71054     C
Cd     0.09122  0.17813      0.0    Cd
C       0.1032   0.3729    0.303     C
C       0.1032   0.3729    0.697     C
C       0.1056   0.7881  0.08212     C
C       0.1056   0.7881  0.91788     C
H       0.1112   0.3788   0.1898     H
H       0.1112   0.3788   0.8102     H
H       0.1212   0.6112   0.3102     H
H       0.1212   0.6112   0.6898     H
C       0.1271   0.6032    0.197     C
C       0.1271   0.6032    0.803     C
C       0.1337   0.5442   0.3183     C
C       0.1337   0.5442   0.6817     C
C        0.151   0.6704   0.1564     C
C        0.151   0.6704   0.8436     C
O       0.1613   0.0388  0.05893     O
O       0.1613   0.0388  0.94107     O
C       0.1704    0.349   0.3436     C
C       0.1704    0.349   0.6564     C
Cd     0.17813  0.90878      0.0    Cd
H       0.1782   0.5701   0.2156     H
H       0.1782   0.5701   0.7844     H
H       0.1829   0.2821   0.3518     H
H       0.1829   0.2821   0.6482     H
O       0.1945   0.7935  0.06833     O
O       0.1945   0.7935  0.93167     O
C       0.2016   0.5203    0.359     C
C       0.2016   0.5203    0.641     C
O       0.2065   0.1945  0.06833     O
O       0.2065   0.1945  0.93167     O
C       0.2119   0.1056  0.08212     C
C       0.2119   0.1056  0.91788     C
H       0.2179   0.6829   0.1482     H
H       0.2179   0.6829   0.8518     H
C       0.2193   0.4222   0.3721     C
C       0.2193   0.4222   0.6279     C
H       0.2354    0.571   0.3776     H
H       0.2354    0.571   0.6224     H
H       0.2646    0.929   0.1224     H
H       0.2646    0.929   0.8776     H
C       0.2807   0.0778   0.1279     C
C       0.2807   0.0778   0.8721     C
H       0.2821   0.8171   0.3518     H
H       0.2821   0.8171   0.6482     H
C       0.2881   0.3944  0.41788     C
C       0.2881   0.3944  0.58212     C
O       0.2935   0.3055  0.43167     O
O       0.2935   0.3055  0.56833     O
C       0.2984   0.9797    0.141     C
C       0.2984   0.9797    0.859     C
O       0.3055   0.7065  0.43167     O
O       0.3055   0.7065  0.56833     O
H       0.3171   0.2179   0.1482     H
H       0.3171   0.2179   0.8518     H
H       0.3218   0.9299   0.2844     H
H       0.3218   0.9299   0.7156     H
Cd     0.32187  0.59122      0.5    Cd
C       0.3296    0.151   0.1564     C
C       0.3296    0.151   0.8436     C
O       0.3387   0.4612  0.44107     O
O       0.3387   0.4612  0.55893     O
C        0.349   0.8296   0.3436     C
C        0.349   0.8296   0.6564     C
C       0.3663   0.9558   0.1817     C
C       0.3663   0.9558   0.8183     C
C       0.3729   0.8968    0.303     C
C       0.3729   0.8968    0.697     C
H       0.3788   0.8888   0.1898     H
H       0.3788   0.8888   0.8102     H
H       0.3888   0.1212   0.3102     H
H       0.3888   0.1212   0.6898     H
C       0.3944   0.7119  0.41788     C
C       0.3944   0.7119  0.58212     C
C       0.3968   0.1271    0.197     C
C       0.3968   0.1271    0.803     C
Cd     0.40878  0.32187      0.5    Cd
C       0.4161   0.0297  0.21054     C
C       0.4161   0.0297  0.78946     C
C       0.4222   0.7807   0.3721     C
C       0.4222   0.7807   0.6279     C
H        0.429   0.2354   0.3776     H
H        0.429   0.2354   0.6224     H
H       0.4299   0.1782   0.2156     H
H       0.4299   0.1782   0.7844     H
C       0.4558   0.1337   0.3183     C
C       0.4558   0.1337   0.6817     C
O       0.4612   0.6613  0.44107     O
O       0.4612   0.6613  0.55893     O
C       0.4703   0.9161  0.28946     C
C       0.4703   0.9161  0.71054     C
C       0.4797   0.2016    0.359     C
C       0.4797   0.2016    0.641     C
C          0.5      0.0     0.25     C
C          0.5      0.0     0.75     C
C       0.5203   0.7984    0.359     C
C       0.5203   0.7984    0.641     C
C       0.5297   0.0839  0.28946     C
C       0.5297   0.0839  0.71054     C
O       0.5388   0.3387  0.44107     O
O       0.5388   0.3387  0.55893     O
C       0.5442   0.8663   0.3183     C
C       0.5442   0.8663   0.6817     C
H       0.5701   0.8218   0.2156     H
H       0.5701   0.8218   0.7844     H
H        0.571   0.7646   0.3776     H
H        0.571   0.7646   0.6224     H
C       0.5778   0.2193   0.3721     C
C       0.5778   0.2193   0.6279     C
C       0.5839   0.9703  0.21054     C
C       0.5839   0.9703  0.78946     C
Cd     0.59122  0.67813      0.5    Cd
C       0.6032   0.8729    0.197     C
C       0.6032   0.8729    0.803     C
C       0.6056   0.2881  0.41788     C
C       0.6056   0.2881  0.58212     C
H       0.6112   0.8788   0.3102     H
H       0.6112   0.8788   0.6898     H
H       0.6212   0.1112   0.1898     H
H       0.6212   0.1112   0.8102     H
C       0.6271   0.1032    0.303     C
C       0.6271   0.1032    0.697     C
C       0.6337   0.0442   0.1817     C
C       0.6337   0.0442   0.8183     C
C        0.651   0.1704   0.3436     C
C        0.651   0.1704   0.6564     C
O       0.6613   0.5388  0.44107     O
O       0.6613   0.5388  0.55893     O
C       0.6704    0.849   0.1564     C
C       0.6704    0.849   0.8436     C
Cd     0.67813  0.40878      0.5    Cd
H       0.6782   0.0701   0.2844     H
H       0.6782   0.0701   0.7156     H
H       0.6829   0.7821   0.1482     H
H       0.6829   0.7821   0.8518     H
O       0.6945   0.2935  0.43167     O
O       0.6945   0.2935  0.56833     O
C       0.7016   0.0203    0.141     C
C       0.7016   0.0203    0.859     C
O       0.7065   0.6945  0.43167     O
O       0.7065   0.6945  0.56833     O
C       0.7119   0.6056  0.41788     C
C       0.7119   0.6056  0.58212     C
H       0.7179   0.1829   0.3518     H
H       0.7179   0.1829   0.6482     H
C       0.7193   0.9222   0.1279     C
C       0.7193   0.9222   0.8721     C
H       0.7354    0.071   0.1224     H
H       0.7354    0.071   0.8776     H
H       0.7646    0.429   0.3776     H
H       0.7646    0.429   0.6224     H
C       0.7807   0.5778   0.3721     C
C       0.7807   0.5778   0.6279     C
H       0.7821   0.3171   0.1482     H
H       0.7821   0.3171   0.8518     H
C       0.7881   0.8944  0.08212     C
C       0.7881   0.8944  0.91788     C
O       0.7935   0.8055  0.06833     O
O       0.7935   0.8055  0.93167     O
C       0.7984   0.4797    0.359     C
C       0.7984   0.4797    0.641     C
O       0.8055   0.2065  0.06833     O
O       0.8055   0.2065  0.93167     O
H       0.8171   0.7179   0.3518     H
H       0.8171   0.7179   0.6482     H
H       0.8218   0.4299   0.2156     H
H       0.8218   0.4299   0.7844     H
Cd     0.82187  0.09122      0.0    Cd
C       0.8296    0.651   0.3436     C
C       0.8296    0.651   0.6564     C
O       0.8387   0.9612  0.05893     O
O       0.8387   0.9612  0.94107     O
C        0.849   0.3296   0.1564     C
C        0.849   0.3296   0.8436     C
C       0.8663   0.4558   0.3183     C
C       0.8663   0.4558   0.6817     C
C       0.8729   0.3968    0.197     C
C       0.8729   0.3968    0.803     C
H       0.8788   0.3888   0.3102     H
H       0.8788   0.3888   0.6898     H
H       0.8888   0.6212   0.1898     H
H       0.8888   0.6212   0.8102     H
C       0.8944   0.2119  0.08212     C
C       0.8944   0.2119  0.91788     C
C       0.8968   0.6271    0.303     C
C       0.8968   0.6271    0.697     C
Cd     0.90878  0.82187      0.0    Cd
C       0.9161   0.5297  0.28946     C
C       0.9161   0.5297  0.71054     C
C       0.9222   0.2807   0.1279     C
C       0.9222   0.2807   0.8721     C
H        0.929   0.7354   0.1224     H
H        0.929   0.7354   0.8776     H
H       0.9299   0.6782   0.2844     H
H       0.9299   0.6782   0.7156     H
C       0.9558   0.6337   0.1817     C
C       0.9558   0.6337   0.8183     C
O       0.9612   0.1613  0.05893     O
O       0.9612   0.1613  0.94107     O
C       0.9703   0.4161  0.21054     C
C       0.9703   0.4161  0.78946     C
C       0.9797   0.7016    0.141     C
C       0.9797   0.7016    0.859     C
