data_I
_chemical_name_common  '/home/zhangsd/repos/MofS-CGCNN/ML/data/SSD/clean_cifs/EVUMUE_clean'
_cell_length_a  9.80780
_cell_length_b 13.18670
_cell_length_c 16.79230
_cell_angle_alpha 81.52160
_cell_angle_beta  73.02040
_cell_angle_gamma 68.16830
_space_group_name_H-M_alt      'P 1'


loop_
_space_group_symop_operation_xyz
  'x, y, z' 

loop_
_atom_site_label
_atom_site_fract_x
_atom_site_fract_y
_atom_site_fract_z
_atom_site_type_symbol
C       0.0132   0.7315   0.5653     C
C       0.0165    0.776   0.7668     C
H       0.0228   0.4349   0.1303     H
H       0.0307   0.1883   0.1833     H
N       0.0388   0.4165   0.9261     N
N       0.0486   0.2036    0.296     N
C       0.0543   0.7269   0.6443     C
C       0.0545   0.5089   0.8875     C
O       0.0745   0.2212   0.0032     O
O       0.0953   0.6665   0.5091     O
Zn     0.11391  0.66126   0.0429    Zn
O       0.1145    0.195   0.4392     O
N       0.1543   0.7001   0.7523     N
C       0.1774   0.3548   0.9412     C
Zn     0.18193  0.16126   0.5429    Zn
O       0.1822   0.9695   0.3657     O
C       0.1824   0.6672   0.6732     C
N       0.1931    0.512   0.8772     N
C       0.1938   0.2456    0.981     C
O      0.23854  0.81412   0.1962     O
O       0.2388   0.8118   0.4386     O
O      0.24886  0.68588   0.3038     O
O       0.2513    0.695   0.9392     O
Zn     0.25493  0.10873  0.31575    Zn
C       0.2667   0.8959   0.4057     C
O       0.2709   0.8335   0.9909     O
C       0.2723   0.4149   0.9113     C
O       0.2989   0.2788   0.4968     O
C       0.3066     0.75     0.25     C
C         0.31   0.7685   0.9347     C
O       0.3177    0.181   0.9926     O
Zn     0.32059  0.60873  0.81575    Zn
C       0.3266   0.5785   0.6429     C
O       0.3518   0.0419   0.1889     O
O       0.3609    0.536   0.5728     O
La     0.36791  0.61199  0.42603    La
N       0.3814   0.0835   0.5739     N
N       0.3933   0.2001   0.2523     N
C       0.4015   0.9149   0.4113     C
H       0.4023   0.3117   0.3167     H
La     0.40593  0.88801  0.07397    La
H        0.412   0.9349   0.6303     H
O       0.4174   0.5419   0.6889     O
N       0.4177    0.012   0.3772     N
C       0.4204   0.2544    0.519     C
C       0.4255   0.7731   0.8557     C
C       0.4317   0.3959   0.9057     C
C       0.4407    0.276   0.2668     C
C       0.4509   0.9911   0.6125     C
N       0.4518   0.7036    0.796     N
C        0.452   0.0785   0.1429     C
C       0.4654     0.75     0.25     C
O       0.4697    0.964   0.9272     O
C       0.4734   0.1452   0.5588     C
O       0.4748    0.196   0.8074     O
C       0.4772   0.1672   0.1732     C
O       0.4782    0.304   0.6926     O
O       0.4826   0.4695   0.8657     O
O       0.4892   0.6882   0.0614     O
O       0.4913    0.319   0.5074     O
O       0.5087    0.681   0.4926     O
O       0.5108   0.3118   0.9386     O
O       0.5174   0.5305   0.1343     O
O       0.5218    0.696   0.3074     O
C       0.5228   0.8328   0.8268     C
O       0.5252    0.804   0.1926     O
C       0.5266   0.8548   0.4412     C
O       0.5303    0.036   0.0728     O
C       0.5346     0.25     0.75     C
C        0.548   0.9215   0.8571     C
N       0.5482   0.2964    0.204     N
C       0.5491   0.0089   0.3875     C
C       0.5593    0.724   0.7332     C
C       0.5683   0.6041   0.0943     C
C       0.5745   0.2269   0.1443     C
C       0.5796   0.7456    0.481     C
N       0.5823    0.988   0.6228     N
O       0.5826   0.4581   0.3111     O
H        0.588   0.0651   0.3697     H
La     0.59407  0.11199  0.92603    La
H       0.5977   0.6883   0.6833     H
C       0.5985   0.0851   0.5887     C
N       0.6067   0.7999   0.7477     N
N       0.6186   0.9165   0.4261     N
La     0.63209  0.38801  0.57397    La
O       0.6391    0.464   0.4272     O
O       0.6482   0.9581   0.8111     O
C       0.6734   0.4215   0.3571     C
Zn     0.67941  0.39127  0.18425    Zn
O       0.6823    0.819   0.0074     O
C         0.69   0.2315   0.0653     C
C       0.6934     0.25     0.75     C
O       0.7011   0.7212   0.5032     O
C       0.7277   0.5851   0.0887     C
O       0.7291   0.1665   0.0091     O
C       0.7333   0.1041   0.5943     C
Zn     0.74507  0.89127  0.68425    Zn
O       0.7487    0.305   0.0608     O
O      0.75114  0.31412   0.6962     O
O       0.7612   0.1882   0.5614     O
O      0.76146  0.18588   0.8038     O
C       0.8062   0.7544    0.019     C
N       0.8069    0.488   0.1228     N
C       0.8176   0.3328   0.3268     C
O       0.8178   0.0305   0.6343     O
Zn     0.81807  0.83874   0.4571    Zn
C       0.8226   0.6452   0.0588     C
N       0.8457   0.2999   0.2477     N
O       0.8855    0.805   0.5608     O
Zn     0.88609  0.33874   0.9571    Zn
O       0.9047   0.3335   0.4909     O
O       0.9255   0.7788   0.9968     O
C       0.9455   0.4911   0.1125     C
C       0.9457   0.2731   0.3557     C
N       0.9514   0.7964    0.704     N
N       0.9612   0.5835   0.0739     N
H       0.9693   0.8117   0.8167     H
H       0.9772   0.5651   0.8697     H
C       0.9835    0.224   0.2332     C
C       0.9868   0.2685   0.4347     C
