data_I
_chemical_name_common  '/home/zhangsd/repos/MofS-CGCNN/ML/data/SSD/clean_cifs/EVUNAL_clean'
_cell_length_a  9.82140
_cell_length_b 13.19940
_cell_length_c 16.61150
_cell_angle_alpha 81.35270
_cell_angle_beta  72.80530
_cell_angle_gamma 68.15860
_space_group_name_H-M_alt      'P 1'


loop_
_space_group_symop_operation_xyz
  'x, y, z' 

loop_
_atom_site_label
_atom_site_fract_x
_atom_site_fract_y
_atom_site_fract_z
_atom_site_type_symbol
C       0.0201     0.73    0.563     C
C       0.0224   0.7771   0.7661     C
H       0.0242   0.4323   0.1305     H
H       0.0248   0.1864   0.1838     H
N      0.03761  0.41738   0.9252     N
N      0.04251  0.20398   0.2968     N
C        0.053   0.5111   0.8873     C
C       0.0618    0.727    0.642     C
O      0.07345   0.2215   0.0022     O
O      0.10306   0.6666  0.50608     O
O      0.10855   0.1977   0.4406     O
Zn     0.11428   0.6604  0.04452    Zn
N      0.16069  0.70132   0.7515     N
C       0.1758   0.3562   0.9402     C
O      0.17953  0.97134   0.3692     O
Zn      0.1808   0.1604  0.54452    Zn
C        0.188   0.6673   0.6723     C
N      0.19133  0.51464   0.8779     N
C       0.1925   0.2462   0.9808     C
O      0.24191  0.81148   0.4387     O
Zn      0.2501  0.10961  0.31669    Zn
O      0.25097  0.81156   0.1955     O
O      0.25315   0.6977   0.9406     O
O      0.25803  0.68844   0.3045     O
C        0.266   0.8973   0.4071     C
C       0.2705   0.4165   0.9111     C
O      0.27574   0.8334  0.99392     O
O      0.29715   0.2785   0.4978     O
C       0.3123     0.75     0.25     C
C       0.3131     0.77    0.937     C
O      0.31653  0.18194   0.9918     O
Zn      0.3236  0.60961  0.81669    Zn
C       0.3319   0.5765   0.6421     C
O      0.35238  0.03839  0.19005     O
O      0.36618  0.53564   0.5712     O
Nd     0.37156    0.616   0.4265    Nd
N      0.38019  0.08262   0.5748     N
N      0.38649  0.20132   0.2515     N
H        0.395   0.3136   0.3162     H
C       0.4019   0.9165   0.4111     C
H        0.413   0.9323   0.6305     H
Nd     0.41406    0.884   0.0735    Nd
N      0.41613  0.01464   0.3779     N
O      0.41918  0.53839  0.69005     O
C       0.4195   0.2538   0.5192     C
C       0.4296   0.3973   0.9071     C
C       0.4308    0.773    0.858     C
C       0.4344   0.2771   0.2661     C
C       0.4495   0.0765   0.1421     C
C       0.4514   0.9889   0.6127     C
N      0.45671  0.70398   0.7968     N
C       0.4699     0.75     0.25     C
O      0.46992  0.19592  0.80824     O
C       0.4722   0.1438   0.5598     C
C       0.4724   0.1673   0.1723     C
O      0.47302  0.96436   0.9288     O
O      0.47408  0.30408  0.69176     O
O      0.47993  0.47134   0.8692     O
O      0.49027  0.31806   0.5082     O
O      0.49209  0.68852   0.0613     O
O      0.50791  0.31148   0.9387     O
O      0.50973  0.68194   0.4918     O
O      0.52007  0.52866   0.1308     O
O      0.52592  0.69592  0.30824     O
O      0.52698  0.03564   0.0712     O
C       0.5276   0.8327   0.8277     C
C       0.5278   0.8562   0.4402     C
O      0.53008  0.80408  0.19176     O
C       0.5301     0.25     0.75     C
N      0.54329  0.29602   0.2032     N
C       0.5486   0.0111   0.3873     C
C       0.5505   0.9235   0.8579     C
C       0.5656   0.7229   0.7339     C
C       0.5692    0.227    0.142     C
C       0.5704   0.6027   0.0929     C
C       0.5805   0.7462   0.4808     C
O      0.58082  0.46161  0.30995     O
N      0.58387  0.98536   0.6221     N
Nd     0.58594    0.116   0.9265    Nd
H        0.587   0.0677   0.3695     H
C       0.5981   0.0835   0.5889     C
H        0.605   0.6864   0.6838     H
N      0.61351  0.79868   0.7485     N
N      0.61981  0.91738   0.4252     N
Nd     0.62844    0.384   0.5735    Nd
O      0.63382  0.46436   0.4288     O
O      0.64762  0.96161  0.80995     O
C       0.6681   0.4235   0.3579     C
Zn      0.6764  0.39039  0.18331    Zn
O      0.68347  0.81806   0.0082     O
C       0.6869     0.23    0.063     C
C       0.6877     0.25     0.75     C
O      0.70285   0.7215   0.5022     O
O      0.72426   0.1666  0.00608     O
C       0.7295   0.5835   0.0889     C
C        0.734   0.1027   0.5929     C
O      0.74197  0.31156   0.6955     O
O      0.74685   0.3023   0.0594     O
O      0.74903  0.18844   0.8045     O
Zn      0.7499  0.89039  0.68331    Zn
O      0.75809  0.18852   0.5613     O
C       0.8075   0.7538   0.0192     C
N      0.80867  0.48536   0.1221     N
C        0.812   0.3327   0.3277     C
Zn      0.8192   0.8396  0.45548    Zn
O      0.82047  0.02866   0.6308     O
C       0.8242   0.6438   0.0598     C
N      0.83931  0.29868   0.2485     N
Zn     0.88572   0.3396  0.95548    Zn
O      0.89145   0.8023   0.5594     O
O      0.89694   0.3334  0.49392     O
O      0.92655   0.7785   0.9978     O
C       0.9382    0.273    0.358     C
C        0.947   0.4889   0.1127     C
N      0.95749  0.79602   0.7032     N
N      0.96239  0.58262   0.0748     N
H       0.9752   0.8136   0.8162     H
H       0.9758   0.5677   0.8695     H
C       0.9776   0.2229   0.2339     C
C       0.9799     0.27    0.437     C
