data_I
_chemical_name_common  '/home/zhangsd/repos/MofS-CGCNN/ML/data/SSD/clean_cifs/EVUQUI_clean'
_cell_length_a  9.52110
_cell_length_b  9.98350
_cell_length_c 11.48430
_cell_angle_alpha 96.34200
_cell_angle_beta  97.06300
_cell_angle_gamma 111.76300
_space_group_name_H-M_alt      'P 1'


loop_
_space_group_symop_operation_xyz
  'x, y, z' 

loop_
_atom_site_label
_atom_site_fract_x
_atom_site_fract_y
_atom_site_fract_z
_atom_site_type_symbol
C       0.0074   0.6759   0.3855     C
C       0.0082   0.1668   0.4478     C
C       0.0124   0.4382   0.1477     C
C       0.0484    0.581   0.1999     C
H       0.0533   0.1051   0.4138     H
O       0.0533   0.3903   0.7321     O
O       0.0544   0.8412   0.9812     O
C       0.0617   0.2358   0.5657     C
C       0.0776   0.2524   0.0253     C
H       0.0796   0.6378   0.8429     H
C       0.1111   0.8127   0.6211     C
C       0.1117   0.4072   0.0817     C
O       0.1196   0.9873    0.785     O
C       0.1259    0.653   0.4534     C
H       0.1678   0.1527   0.6815     H
H       0.1712   0.5913   0.4195     H
C       0.1718   0.8942   0.7446     C
C       0.1762    0.695   0.1824     C
C       0.1765    0.722   0.5714     C
O       0.1852   0.2277   0.9877     O
N       0.1883    0.224   0.6353     N
H       0.1943   0.7933   0.2134     H
C       0.2476   0.5184   0.0698     C
H       0.2569   0.7069   0.6186     H
H       0.2621   0.3038   0.6846     H
O       0.2774   0.8737   0.8097     O
C       0.2782    0.663   0.1185     C
Nd     0.28629  0.04512  0.99079    Nd
H       0.3191   0.4961   0.0287     H
O       0.4165   0.9023   0.0768     O
C       0.4224   0.7827   0.1012     C
O       0.4554   0.2391   0.8896     O
O       0.5446   0.7609   0.1104     O
C       0.5776   0.2173   0.8988     C
O       0.5835   0.0977   0.9232     O
H       0.6809   0.5039   0.9713     H
Nd     0.71371  0.95488  0.00921    Nd
C       0.7218    0.337   0.8815     C
O       0.7226   0.1263   0.1903     O
H       0.7379   0.6962   0.3154     H
H       0.7431   0.2931   0.3814     H
C       0.7524   0.4816   0.9302     C
H       0.8057   0.2067   0.7866     H
N       0.8117    0.776   0.3647     N
O       0.8148   0.7723   0.0123     O
C       0.8235    0.278   0.4286     C
C       0.8238    0.305   0.8176     C
C       0.8282   0.1058   0.2554     C
H       0.8288   0.4087   0.5805     H
H       0.8322   0.8473   0.3185     H
C       0.8741    0.347   0.5466     C
O       0.8804   0.0127    0.215     O
C       0.8883   0.5928   0.9183     C
C       0.8889   0.1873   0.3789     C
H       0.9204   0.3622   0.1571     H
C       0.9224   0.7476   0.9747     C
C       0.9383   0.7642   0.4343     C
O       0.9456   0.1588   0.0188     O
O       0.9467   0.6097   0.2679     O
H       0.9467   0.8949   0.5862     H
C       0.9516    0.419   0.8001     C
C       0.9876   0.5618   0.8523     C
C       0.9918   0.8332   0.5522     C
C       0.9926   0.3241   0.6145     C
