data_I
_chemical_name_common  '/home/zhangsd/repos/MofS-CGCNN/ML/data/SSD/clean_cifs/EWESAC_clean'
_cell_length_a 15.11230
_cell_length_b 19.90690
_cell_length_c 31.25910
_cell_angle_alpha 90.00000
_cell_angle_beta  90.00000
_cell_angle_gamma 90.00000
_space_group_name_H-M_alt      'P 1'


loop_
_space_group_symop_operation_xyz
  'x, y, z' 

loop_
_atom_site_label
_atom_site_fract_x
_atom_site_fract_y
_atom_site_fract_z
_atom_site_type_symbol
O       0.0169   0.1658  0.63677     O
O       0.0169   0.3342  0.13677     O
O       0.0169   0.6658  0.36323     O
O       0.0169   0.8342  0.86323     O
H       0.0241   0.0386   0.6407     H
H       0.0241   0.4614   0.1407     H
H       0.0241   0.5386   0.3593     H
H       0.0241   0.9614   0.8593     H
H        0.029   0.1008   0.2899     H
H        0.029   0.3992   0.7899     H
H        0.029   0.6008   0.7101     H
H        0.029   0.8992   0.2101     H
H        0.038   0.1067    0.217     H
H        0.038   0.3933    0.717     H
H        0.038   0.6067    0.783     H
H        0.038   0.8933    0.283     H
O       0.0486   0.1326  0.36638     O
O       0.0486   0.3674  0.86638     O
O       0.0486   0.6326  0.63362     O
O       0.0486   0.8674  0.13362     O
C       0.0559   0.1377  0.27717     C
C       0.0559   0.3623  0.77717     C
C       0.0559   0.6377  0.72283     C
C       0.0559   0.8623  0.22283     C
C       0.0616   0.1416  0.23321     C
C       0.0616   0.3584  0.73321     C
C       0.0616   0.6416  0.76679     C
C       0.0616   0.8584  0.26679     C
C        0.081   0.1824   0.3502     C
C        0.081   0.3176   0.8502     C
C        0.081   0.6824   0.6498     C
C        0.081   0.8176   0.1498     C
C       0.0854   0.0349  0.64093     C
C       0.0854   0.4651  0.14093     C
C       0.0854   0.5349  0.35907     C
C       0.0854   0.9651  0.85907     C
H       0.0897   0.0666   0.8576     H
H       0.0897   0.4334   0.3576     H
H       0.0897   0.5666   0.1424     H
H       0.0897   0.9334   0.6424     H
C       0.0902   0.1884  0.30225     C
C       0.0902   0.3116  0.80225     C
C       0.0902   0.6884  0.69775     C
C       0.0902   0.8116  0.19775     C
C       0.0972   0.1605  0.64146     C
C       0.0972   0.3395  0.14146     C
C       0.0972   0.6605  0.35854     C
C       0.0972   0.8395  0.85854     C
N       0.0994   0.1933  0.21284     N
N       0.0994   0.3067  0.71284     N
N       0.0994   0.6933  0.78716     N
N       0.0994   0.8067  0.28716     N
H       0.1064   0.1074   0.0625     H
H       0.1064   0.3926   0.5625     H
H       0.1064   0.6074   0.9375     H
H       0.1064   0.8926   0.4375     H
N       0.1083   0.2326   0.4167     N
N       0.1083   0.2674   0.9167     N
N       0.1083   0.7326   0.5833     N
N       0.1083   0.7674   0.0833     N
Zn     0.10911  0.19556  0.14187    Zn
Zn     0.10911  0.30444  0.64187    Zn
Zn     0.10911  0.69556  0.85813    Zn
Zn     0.10911  0.80444  0.35813    Zn
N       0.1105   0.2355  0.37256     N
N       0.1105   0.2645  0.87256     N
N       0.1105   0.7355  0.62744     N
N       0.1105   0.7645  0.12744     N
C       0.1131   0.1485   0.0488     C
C       0.1131   0.3515   0.5488     C
C       0.1131   0.6485   0.9512     C
C       0.1131   0.8515   0.4512     C
H       0.1137   0.1093   0.9892     H
H       0.1137   0.3907   0.4892     H
H       0.1137   0.6093   0.0108     H
H       0.1137   0.8907   0.5108     H
C       0.1157   0.1495   0.0043     C
C       0.1157   0.3505   0.5043     C
C       0.1157   0.6495   0.9957     C
C       0.1157   0.8505   0.4957     C
N       0.1197   0.2024  0.07186     N
N       0.1197   0.2976  0.57186     N
N       0.1197   0.7024  0.92814     N
N       0.1197   0.7976  0.42814     N
C       0.1212   0.2091  0.98236     C
C       0.1212   0.2909  0.48236     C
C       0.1212   0.7091  0.01764     C
C       0.1212   0.7909  0.51764     C
C        0.122   0.2121  0.93576     C
C        0.122   0.2879  0.43576     C
C        0.122   0.7121  0.06424     C
C        0.122   0.7879  0.56424     C
C       0.1247   0.0282  0.85816     C
C       0.1247   0.4718  0.35816     C
C       0.1247   0.5282  0.14184     C
C       0.1247   0.9718  0.64184     C
C       0.1275   0.2397   0.5508     C
C       0.1275   0.2603   0.0508     C
C       0.1275   0.7397   0.4492     C
C       0.1275   0.7603   0.9492     C
C       0.1287   0.2346   0.5069     C
C       0.1287   0.2654   0.0069     C
C       0.1287   0.7346   0.4931     C
C       0.1287   0.7654   0.9931     C
H        0.129    0.225   0.8642     H
H        0.129    0.275   0.3642     H
H        0.129    0.725   0.1358     H
H        0.129    0.775   0.6358     H
C       0.1307   0.2409  0.28154     C
C       0.1307   0.2591  0.78154     C
C       0.1307   0.7409  0.71846     C
C       0.1307   0.7591  0.21846     C
H       0.1323   0.2004   0.5668     H
H       0.1323   0.2996   0.0668     H
H       0.1323   0.7004   0.4332     H
H       0.1323   0.7996   0.9332     H
H       0.1326   0.1733     0.92     H
H       0.1326   0.3267     0.42     H
H       0.1326   0.6733     0.08     H
H       0.1326   0.8267     0.58     H
C       0.1335   0.2412  0.23728     C
C       0.1335   0.2588  0.73728     C
C       0.1335   0.7412  0.76272     C
C       0.1335   0.7588  0.26272     C
H       0.1347   0.1927    0.494     H
H       0.1347   0.3073    0.994     H
H       0.1347   0.6927    0.506     H
H       0.1347   0.8073    0.006     H
C       0.1367   0.0917  0.64042     C
C       0.1367   0.4083  0.14042     C
C       0.1367   0.5917  0.35958     C
C       0.1367   0.9083  0.85958     C
O       0.1499  0.20957  0.64664     O
O       0.1499  0.29043  0.14664     O
O       0.1499  0.70957  0.35336     O
O       0.1499  0.79043  0.85336     O
H       0.1559   0.2241   0.7971     H
H       0.1559   0.2759   0.2971     H
H       0.1559   0.7241   0.2029     H
H       0.1559   0.7759   0.7029     H
O       0.1567  0.10236  0.14123     O
O       0.1567  0.39764  0.64123     O
O       0.1567  0.60236  0.85877     O
O       0.1567  0.89764  0.35877     O
H        0.161   0.2227   0.7238     H
H        0.161   0.2773   0.2238     H
H        0.161   0.7227   0.2762     H
H        0.161   0.7773   0.7762     H
H       0.1709   0.0195   0.3621     H
H       0.1709   0.4805   0.8621     H
H       0.1709   0.5195   0.6379     H
H       0.1709   0.9805   0.1379     H
O       0.2146   0.1533  0.85017     O
O       0.2146   0.3467  0.35017     O
O       0.2146   0.6533  0.14983     O
O       0.2146   0.8467  0.64983     O
C       0.2158   0.0339  0.85806     C
C       0.2158   0.4661  0.35806     C
C       0.2158   0.5339  0.14194     C
C       0.2158   0.9661  0.64194     C
C       0.2284   0.0856   0.6387     C
C       0.2284   0.4144   0.1387     C
C       0.2284   0.5856   0.3613     C
C       0.2284   0.9144   0.8613     C
C       0.2322   0.0232   0.3607     C
C       0.2322   0.4768   0.8607     C
C       0.2322   0.5232   0.6393     C
C       0.2322   0.9768   0.1393     C
H       0.2366    0.124   0.3629     H
H       0.2366    0.376   0.8629     H
H       0.2366    0.624   0.6371     H
H       0.2366    0.876   0.1371     H
C       0.2405   0.1019  0.14458     C
C       0.2405   0.3981  0.64458     C
C       0.2405   0.6019  0.85542     C
C       0.2405   0.8981  0.35542     C
C       0.2595   0.1019  0.85542     C
C       0.2595   0.3981  0.35542     C
C       0.2595   0.6019  0.14458     C
C       0.2595   0.8981  0.64458     C
H       0.2634    0.124   0.6371     H
H       0.2634    0.376   0.1371     H
H       0.2634    0.624   0.3629     H
H       0.2634    0.876   0.8629     H
C       0.2678   0.0232   0.6393     C
C       0.2678   0.4768   0.1393     C
C       0.2678   0.5232   0.3607     C
C       0.2678   0.9768   0.8607     C
C       0.2716   0.0856   0.3613     C
C       0.2716   0.4144   0.8613     C
C       0.2716   0.5856   0.6387     C
C       0.2716   0.9144   0.1387     C
C       0.2842   0.0339  0.14194     C
C       0.2842   0.4661  0.64194     C
C       0.2842   0.5339  0.85806     C
C       0.2842   0.9661  0.35806     C
O       0.2854   0.1533  0.14983     O
O       0.2854   0.3467  0.64983     O
O       0.2854   0.6533  0.85017     O
O       0.2854   0.8467  0.35017     O
H       0.3291   0.0195   0.6379     H
H       0.3291   0.4805   0.1379     H
H       0.3291   0.5195   0.3621     H
H       0.3291   0.9805   0.8621     H
H        0.339   0.2227   0.2762     H
H        0.339   0.2773   0.7762     H
H        0.339   0.7227   0.7238     H
H        0.339   0.7773   0.2238     H
O       0.3433  0.10236  0.85877     O
O       0.3433  0.39764  0.35877     O
O       0.3433  0.60236  0.14123     O
O       0.3433  0.89764  0.64123     O
H       0.3441   0.2241   0.2029     H
H       0.3441   0.2759   0.7029     H
H       0.3441   0.7241   0.7971     H
H       0.3441   0.7759   0.2971     H
O       0.3501  0.20957  0.35336     O
O       0.3501  0.29043  0.85336     O
O       0.3501  0.70957  0.64664     O
O       0.3501  0.79043  0.14664     O
C       0.3633   0.0917  0.35958     C
C       0.3633   0.4083  0.85958     C
C       0.3633   0.5917  0.64042     C
C       0.3633   0.9083  0.14042     C
H       0.3653   0.1927    0.506     H
H       0.3653   0.3073    0.006     H
H       0.3653   0.6927    0.494     H
H       0.3653   0.8073    0.994     H
C       0.3665   0.2412  0.76272     C
C       0.3665   0.2588  0.26272     C
C       0.3665   0.7412  0.23728     C
C       0.3665   0.7588  0.73728     C
H       0.3674   0.1733     0.08     H
H       0.3674   0.3267     0.58     H
H       0.3674   0.6733     0.92     H
H       0.3674   0.8267     0.42     H
H       0.3677   0.2004   0.4332     H
H       0.3677   0.2996   0.9332     H
H       0.3677   0.7004   0.5668     H
H       0.3677   0.7996   0.0668     H
C       0.3693   0.2409  0.71846     C
C       0.3693   0.2591  0.21846     C
C       0.3693   0.7409  0.28154     C
C       0.3693   0.7591  0.78154     C
H        0.371    0.225   0.1358     H
H        0.371    0.275   0.6358     H
H        0.371    0.725   0.8642     H
H        0.371    0.775   0.3642     H
C       0.3713   0.2346   0.4931     C
C       0.3713   0.2654   0.9931     C
C       0.3713   0.7346   0.5069     C
C       0.3713   0.7654   0.0069     C
C       0.3725   0.2397   0.4492     C
C       0.3725   0.2603   0.9492     C
C       0.3725   0.7397   0.5508     C
C       0.3725   0.7603   0.0508     C
C       0.3753   0.0282  0.14184     C
C       0.3753   0.4718  0.64184     C
C       0.3753   0.5282  0.85816     C
C       0.3753   0.9718  0.35816     C
C        0.378   0.2121  0.06424     C
C        0.378   0.2879  0.56424     C
C        0.378   0.7121  0.93576     C
C        0.378   0.7879  0.43576     C
C       0.3788   0.2091  0.01764     C
C       0.3788   0.2909  0.51764     C
C       0.3788   0.7091  0.98236     C
C       0.3788   0.7909  0.48236     C
N       0.3803   0.2024  0.92814     N
N       0.3803   0.2976  0.42814     N
N       0.3803   0.7024  0.07186     N
N       0.3803   0.7976  0.57186     N
C       0.3843   0.1495   0.9957     C
C       0.3843   0.3505   0.4957     C
C       0.3843   0.6495   0.0043     C
C       0.3843   0.8505   0.5043     C
H       0.3863   0.1093   0.0108     H
H       0.3863   0.3907   0.5108     H
H       0.3863   0.6093   0.9892     H
H       0.3863   0.8907   0.4892     H
C       0.3869   0.1485   0.9512     C
C       0.3869   0.3515   0.4512     C
C       0.3869   0.6485   0.0488     C
C       0.3869   0.8515   0.5488     C
N       0.3895   0.2355  0.62744     N
N       0.3895   0.2645  0.12744     N
N       0.3895   0.7355  0.37256     N
N       0.3895   0.7645  0.87256     N
Zn     0.39089  0.19556  0.85813    Zn
Zn     0.39089  0.30444  0.35813    Zn
Zn     0.39089  0.69556  0.14187    Zn
Zn     0.39089  0.80444  0.64187    Zn
N       0.3917   0.2326   0.5833     N
N       0.3917   0.2674   0.0833     N
N       0.3917   0.7326   0.4167     N
N       0.3917   0.7674   0.9167     N
H       0.3936   0.1074   0.9375     H
H       0.3936   0.3926   0.4375     H
H       0.3936   0.6074   0.0625     H
H       0.3936   0.8926   0.5625     H
N       0.4006   0.1933  0.78716     N
N       0.4006   0.3067  0.28716     N
N       0.4006   0.6933  0.21284     N
N       0.4006   0.8067  0.71284     N
C       0.4028   0.1605  0.35854     C
C       0.4028   0.3395  0.85854     C
C       0.4028   0.6605  0.64146     C
C       0.4028   0.8395  0.14146     C
C       0.4098   0.1884  0.69775     C
C       0.4098   0.3116  0.19775     C
C       0.4098   0.6884  0.30225     C
C       0.4098   0.8116  0.80225     C
H       0.4103   0.0666   0.1424     H
H       0.4103   0.4334   0.6424     H
H       0.4103   0.5666   0.8576     H
H       0.4103   0.9334   0.3576     H
C       0.4146   0.0349  0.35907     C
C       0.4146   0.4651  0.85907     C
C       0.4146   0.5349  0.64093     C
C       0.4146   0.9651  0.14093     C
C        0.419   0.1824   0.6498     C
C        0.419   0.3176   0.1498     C
C        0.419   0.6824   0.3502     C
C        0.419   0.8176   0.8502     C
C       0.4384   0.1416  0.76679     C
C       0.4384   0.3584  0.26679     C
C       0.4384   0.6416  0.23321     C
C       0.4384   0.8584  0.73321     C
C       0.4441   0.1377  0.72283     C
C       0.4441   0.3623  0.22283     C
C       0.4441   0.6377  0.27717     C
C       0.4441   0.8623  0.77717     C
O       0.4514   0.1326  0.63362     O
O       0.4514   0.3674  0.13362     O
O       0.4514   0.6326  0.36638     O
O       0.4514   0.8674  0.86638     O
H        0.462   0.1067    0.783     H
H        0.462   0.3933    0.283     H
H        0.462   0.6067    0.217     H
H        0.462   0.8933    0.717     H
H        0.471   0.1008   0.7101     H
H        0.471   0.3992   0.2101     H
H        0.471   0.6008   0.2899     H
H        0.471   0.8992   0.7899     H
H       0.4759   0.0386   0.3593     H
H       0.4759   0.4614   0.8593     H
H       0.4759   0.5386   0.6407     H
H       0.4759   0.9614   0.1407     H
O       0.4831   0.1658  0.36323     O
O       0.4831   0.3342  0.86323     O
O       0.4831   0.6658  0.63677     O
O       0.4831   0.8342  0.13677     O
O       0.5169   0.1658  0.86323     O
O       0.5169   0.3342  0.36323     O
O       0.5169   0.6658  0.13677     O
O       0.5169   0.8342  0.63677     O
H       0.5241   0.0386   0.8593     H
H       0.5241   0.4614   0.3593     H
H       0.5241   0.5386   0.1407     H
H       0.5241   0.9614   0.6407     H
H        0.529   0.1008   0.2101     H
H        0.529   0.3992   0.7101     H
H        0.529   0.6008   0.7899     H
H        0.529   0.8992   0.2899     H
H        0.538   0.1067    0.283     H
H        0.538   0.3933    0.783     H
H        0.538   0.6067    0.717     H
H        0.538   0.8933    0.217     H
O       0.5486   0.1326  0.13362     O
O       0.5486   0.3674  0.63362     O
O       0.5486   0.6326  0.86638     O
O       0.5486   0.8674  0.36638     O
C       0.5559   0.1377  0.22283     C
C       0.5559   0.3623  0.72283     C
C       0.5559   0.6377  0.77717     C
C       0.5559   0.8623  0.27717     C
C       0.5616   0.1416  0.26679     C
C       0.5616   0.3584  0.76679     C
C       0.5616   0.6416  0.73321     C
C       0.5616   0.8584  0.23321     C
C        0.581   0.1824   0.1498     C
C        0.581   0.3176   0.6498     C
C        0.581   0.6824   0.8502     C
C        0.581   0.8176   0.3502     C
C       0.5854   0.0349  0.85907     C
C       0.5854   0.4651  0.35907     C
C       0.5854   0.5349  0.14093     C
C       0.5854   0.9651  0.64093     C
H       0.5897   0.0666   0.6424     H
H       0.5897   0.4334   0.1424     H
H       0.5897   0.5666   0.3576     H
H       0.5897   0.9334   0.8576     H
C       0.5902   0.1884  0.19775     C
C       0.5902   0.3116  0.69775     C
C       0.5902   0.6884  0.80225     C
C       0.5902   0.8116  0.30225     C
C       0.5972   0.1605  0.85854     C
C       0.5972   0.3395  0.35854     C
C       0.5972   0.6605  0.14146     C
C       0.5972   0.8395  0.64146     C
N       0.5994   0.1933  0.28716     N
N       0.5994   0.3067  0.78716     N
N       0.5994   0.6933  0.71284     N
N       0.5994   0.8067  0.21284     N
H       0.6064   0.1074   0.4375     H
H       0.6064   0.3926   0.9375     H
H       0.6064   0.6074   0.5625     H
H       0.6064   0.8926   0.0625     H
N       0.6083   0.2326   0.0833     N
N       0.6083   0.2674   0.5833     N
N       0.6083   0.7326   0.9167     N
N       0.6083   0.7674   0.4167     N
Zn     0.60911  0.19556  0.35813    Zn
Zn     0.60911  0.30444  0.85813    Zn
Zn     0.60911  0.69556  0.64187    Zn
Zn     0.60911  0.80444  0.14187    Zn
N       0.6105   0.2355  0.12744     N
N       0.6105   0.2645  0.62744     N
N       0.6105   0.7355  0.87256     N
N       0.6105   0.7645  0.37256     N
C       0.6131   0.1485   0.4512     C
C       0.6131   0.3515   0.9512     C
C       0.6131   0.6485   0.5488     C
C       0.6131   0.8515   0.0488     C
H       0.6137   0.1093   0.5108     H
H       0.6137   0.3907   0.0108     H
H       0.6137   0.6093   0.4892     H
H       0.6137   0.8907   0.9892     H
C       0.6157   0.1495   0.4957     C
C       0.6157   0.3505   0.9957     C
C       0.6157   0.6495   0.5043     C
C       0.6157   0.8505   0.0043     C
N       0.6197   0.2024  0.42814     N
N       0.6197   0.2976  0.92814     N
N       0.6197   0.7024  0.57186     N
N       0.6197   0.7976  0.07186     N
C       0.6212   0.2091  0.51764     C
C       0.6212   0.2909  0.01764     C
C       0.6212   0.7091  0.48236     C
C       0.6212   0.7909  0.98236     C
C        0.622   0.2121  0.56424     C
C        0.622   0.2879  0.06424     C
C        0.622   0.7121  0.43576     C
C        0.622   0.7879  0.93576     C
C       0.6247   0.0282  0.64184     C
C       0.6247   0.4718  0.14184     C
C       0.6247   0.5282  0.35816     C
C       0.6247   0.9718  0.85816     C
C       0.6275   0.2397   0.9492     C
C       0.6275   0.2603   0.4492     C
C       0.6275   0.7397   0.0508     C
C       0.6275   0.7603   0.5508     C
C       0.6287   0.2346   0.9931     C
C       0.6287   0.2654   0.4931     C
C       0.6287   0.7346   0.0069     C
C       0.6287   0.7654   0.5069     C
H        0.629    0.225   0.6358     H
H        0.629    0.275   0.1358     H
H        0.629    0.725   0.3642     H
H        0.629    0.775   0.8642     H
C       0.6307   0.2409  0.21846     C
C       0.6307   0.2591  0.71846     C
C       0.6307   0.7409  0.78154     C
C       0.6307   0.7591  0.28154     C
H       0.6323   0.2004   0.9332     H
H       0.6323   0.2996   0.4332     H
H       0.6323   0.7004   0.0668     H
H       0.6323   0.7996   0.5668     H
H       0.6326   0.1733     0.58     H
H       0.6326   0.3267     0.08     H
H       0.6326   0.6733     0.42     H
H       0.6326   0.8267     0.92     H
C       0.6335   0.2412  0.26272     C
C       0.6335   0.2588  0.76272     C
C       0.6335   0.7412  0.73728     C
C       0.6335   0.7588  0.23728     C
H       0.6347   0.1927    0.006     H
H       0.6347   0.3073    0.506     H
H       0.6347   0.6927    0.994     H
H       0.6347   0.8073    0.494     H
C       0.6367   0.0917  0.85958     C
C       0.6367   0.4083  0.35958     C
C       0.6367   0.5917  0.14042     C
C       0.6367   0.9083  0.64042     C
O       0.6499  0.20957  0.85336     O
O       0.6499  0.29043  0.35336     O
O       0.6499  0.70957  0.14664     O
O       0.6499  0.79043  0.64664     O
H       0.6559   0.2241   0.7029     H
H       0.6559   0.2759   0.2029     H
H       0.6559   0.7241   0.2971     H
H       0.6559   0.7759   0.7971     H
O       0.6567  0.10236  0.35877     O
O       0.6567  0.39764  0.85877     O
O       0.6567  0.60236  0.64123     O
O       0.6567  0.89764  0.14123     O
H        0.661   0.2227   0.7762     H
H        0.661   0.2773   0.2762     H
H        0.661   0.7227   0.2238     H
H        0.661   0.7773   0.7238     H
H       0.6709   0.0195   0.1379     H
H       0.6709   0.4805   0.6379     H
H       0.6709   0.5195   0.8621     H
H       0.6709   0.9805   0.3621     H
O       0.7146   0.1533  0.64983     O
O       0.7146   0.3467  0.14983     O
O       0.7146   0.6533  0.35017     O
O       0.7146   0.8467  0.85017     O
C       0.7158   0.0339  0.64194     C
C       0.7158   0.4661  0.14194     C
C       0.7158   0.5339  0.35806     C
C       0.7158   0.9661  0.85806     C
C       0.7284   0.0856   0.8613     C
C       0.7284   0.4144   0.3613     C
C       0.7284   0.5856   0.1387     C
C       0.7284   0.9144   0.6387     C
C       0.7322   0.0232   0.1393     C
C       0.7322   0.4768   0.6393     C
C       0.7322   0.5232   0.8607     C
C       0.7322   0.9768   0.3607     C
H       0.7366    0.124   0.1371     H
H       0.7366    0.376   0.6371     H
H       0.7366    0.624   0.8629     H
H       0.7366    0.876   0.3629     H
C       0.7405   0.1019  0.35542     C
C       0.7405   0.3981  0.85542     C
C       0.7405   0.6019  0.64458     C
C       0.7405   0.8981  0.14458     C
C       0.7595   0.1019  0.64458     C
C       0.7595   0.3981  0.14458     C
C       0.7595   0.6019  0.35542     C
C       0.7595   0.8981  0.85542     C
H       0.7634    0.124   0.8629     H
H       0.7634    0.376   0.3629     H
H       0.7634    0.624   0.1371     H
H       0.7634    0.876   0.6371     H
C       0.7678   0.0232   0.8607     C
C       0.7678   0.4768   0.3607     C
C       0.7678   0.5232   0.1393     C
C       0.7678   0.9768   0.6393     C
C       0.7716   0.0856   0.1387     C
C       0.7716   0.4144   0.6387     C
C       0.7716   0.5856   0.8613     C
C       0.7716   0.9144   0.3613     C
C       0.7842   0.0339  0.35806     C
C       0.7842   0.4661  0.85806     C
C       0.7842   0.5339  0.64194     C
C       0.7842   0.9661  0.14194     C
O       0.7854   0.1533  0.35017     O
O       0.7854   0.3467  0.85017     O
O       0.7854   0.6533  0.64983     O
O       0.7854   0.8467  0.14983     O
H       0.8291   0.0195   0.8621     H
H       0.8291   0.4805   0.3621     H
H       0.8291   0.5195   0.1379     H
H       0.8291   0.9805   0.6379     H
H        0.839   0.2227   0.2238     H
H        0.839   0.2773   0.7238     H
H        0.839   0.7227   0.7762     H
H        0.839   0.7773   0.2762     H
O       0.8433  0.10236  0.64123     O
O       0.8433  0.39764  0.14123     O
O       0.8433  0.60236  0.35877     O
O       0.8433  0.89764  0.85877     O
H       0.8441   0.2241   0.2971     H
H       0.8441   0.2759   0.7971     H
H       0.8441   0.7241   0.7029     H
H       0.8441   0.7759   0.2029     H
O       0.8501  0.20957  0.14664     O
O       0.8501  0.29043  0.64664     O
O       0.8501  0.70957  0.85336     O
O       0.8501  0.79043  0.35336     O
C       0.8633   0.0917  0.14042     C
C       0.8633   0.4083  0.64042     C
C       0.8633   0.5917  0.85958     C
C       0.8633   0.9083  0.35958     C
H       0.8653   0.1927    0.994     H
H       0.8653   0.3073    0.494     H
H       0.8653   0.6927    0.006     H
H       0.8653   0.8073    0.506     H
C       0.8665   0.2412  0.73728     C
C       0.8665   0.2588  0.23728     C
C       0.8665   0.7412  0.26272     C
C       0.8665   0.7588  0.76272     C
H       0.8674   0.1733     0.42     H
H       0.8674   0.3267     0.92     H
H       0.8674   0.6733     0.58     H
H       0.8674   0.8267     0.08     H
H       0.8677   0.2004   0.0668     H
H       0.8677   0.2996   0.5668     H
H       0.8677   0.7004   0.9332     H
H       0.8677   0.7996   0.4332     H
C       0.8693   0.2409  0.78154     C
C       0.8693   0.2591  0.28154     C
C       0.8693   0.7409  0.21846     C
C       0.8693   0.7591  0.71846     C
H        0.871    0.225   0.3642     H
H        0.871    0.275   0.8642     H
H        0.871    0.725   0.6358     H
H        0.871    0.775   0.1358     H
C       0.8713   0.2346   0.0069     C
C       0.8713   0.2654   0.5069     C
C       0.8713   0.7346   0.9931     C
C       0.8713   0.7654   0.4931     C
C       0.8725   0.2397   0.0508     C
C       0.8725   0.2603   0.5508     C
C       0.8725   0.7397   0.9492     C
C       0.8725   0.7603   0.4492     C
C       0.8753   0.0282  0.35816     C
C       0.8753   0.4718  0.85816     C
C       0.8753   0.5282  0.64184     C
C       0.8753   0.9718  0.14184     C
C        0.878   0.2121  0.43576     C
C        0.878   0.2879  0.93576     C
C        0.878   0.7121  0.56424     C
C        0.878   0.7879  0.06424     C
C       0.8788   0.2091  0.48236     C
C       0.8788   0.2909  0.98236     C
C       0.8788   0.7091  0.51764     C
C       0.8788   0.7909  0.01764     C
N       0.8803   0.2024  0.57186     N
N       0.8803   0.2976  0.07186     N
N       0.8803   0.7024  0.42814     N
N       0.8803   0.7976  0.92814     N
C       0.8843   0.1495   0.5043     C
C       0.8843   0.3505   0.0043     C
C       0.8843   0.6495   0.4957     C
C       0.8843   0.8505   0.9957     C
H       0.8863   0.1093   0.4892     H
H       0.8863   0.3907   0.9892     H
H       0.8863   0.6093   0.5108     H
H       0.8863   0.8907   0.0108     H
C       0.8869   0.1485   0.5488     C
C       0.8869   0.3515   0.0488     C
C       0.8869   0.6485   0.4512     C
C       0.8869   0.8515   0.9512     C
N       0.8895   0.2355  0.87256     N
N       0.8895   0.2645  0.37256     N
N       0.8895   0.7355  0.12744     N
N       0.8895   0.7645  0.62744     N
Zn     0.89089  0.19556  0.64187    Zn
Zn     0.89089  0.30444  0.14187    Zn
Zn     0.89089  0.69556  0.35813    Zn
Zn     0.89089  0.80444  0.85813    Zn
N       0.8917   0.2326   0.9167     N
N       0.8917   0.2674   0.4167     N
N       0.8917   0.7326   0.0833     N
N       0.8917   0.7674   0.5833     N
H       0.8936   0.1074   0.5625     H
H       0.8936   0.3926   0.0625     H
H       0.8936   0.6074   0.4375     H
H       0.8936   0.8926   0.9375     H
N       0.9006   0.1933  0.71284     N
N       0.9006   0.3067  0.21284     N
N       0.9006   0.6933  0.28716     N
N       0.9006   0.8067  0.78716     N
C       0.9028   0.1605  0.14146     C
C       0.9028   0.3395  0.64146     C
C       0.9028   0.6605  0.85854     C
C       0.9028   0.8395  0.35854     C
C       0.9098   0.1884  0.80225     C
C       0.9098   0.3116  0.30225     C
C       0.9098   0.6884  0.19775     C
C       0.9098   0.8116  0.69775     C
H       0.9103   0.0666   0.3576     H
H       0.9103   0.4334   0.8576     H
H       0.9103   0.5666   0.6424     H
H       0.9103   0.9334   0.1424     H
C       0.9146   0.0349  0.14093     C
C       0.9146   0.4651  0.64093     C
C       0.9146   0.5349  0.85907     C
C       0.9146   0.9651  0.35907     C
C        0.919   0.1824   0.8502     C
C        0.919   0.3176   0.3502     C
C        0.919   0.6824   0.1498     C
C        0.919   0.8176   0.6498     C
C       0.9384   0.1416  0.73321     C
C       0.9384   0.3584  0.23321     C
C       0.9384   0.6416  0.26679     C
C       0.9384   0.8584  0.76679     C
C       0.9441   0.1377  0.77717     C
C       0.9441   0.3623  0.27717     C
C       0.9441   0.6377  0.22283     C
C       0.9441   0.8623  0.72283     C
O       0.9514   0.1326  0.86638     O
O       0.9514   0.3674  0.36638     O
O       0.9514   0.6326  0.13362     O
O       0.9514   0.8674  0.63362     O
H        0.962   0.1067    0.717     H
H        0.962   0.3933    0.217     H
H        0.962   0.6067    0.283     H
H        0.962   0.8933    0.783     H
H        0.971   0.1008   0.7899     H
H        0.971   0.3992   0.2899     H
H        0.971   0.6008   0.2101     H
H        0.971   0.8992   0.7101     H
H       0.9759   0.0386   0.1407     H
H       0.9759   0.4614   0.6407     H
H       0.9759   0.5386   0.8593     H
H       0.9759   0.9614   0.3593     H
O       0.9831   0.1658  0.13677     O
O       0.9831   0.3342  0.63677     O
O       0.9831   0.6658  0.86323     O
O       0.9831   0.8342  0.36323     O
