data_I
_chemical_name_common  '/home/zhangsd/repos/MofS-CGCNN/ML/data/SSD/clean_cifs/EWILON_clean'
_cell_length_a 20.78200
_cell_length_b 20.78200
_cell_length_c 20.78200
_cell_angle_alpha 90.00000
_cell_angle_beta  90.00000
_cell_angle_gamma 90.00000
_space_group_name_H-M_alt      'P 1'


loop_
_space_group_symop_operation_xyz
  'x, y, z' 

loop_
_atom_site_label
_atom_site_fract_x
_atom_site_fract_y
_atom_site_fract_z
_atom_site_type_symbol
Zr         0.0      0.0  0.12048    Zr
Zr         0.0      0.0  0.87952    Zr
O          0.0   0.0848   0.1805     O
O          0.0   0.0848   0.8195     O
Zr         0.0  0.12048      0.0    Zr
N          0.0  0.12171  0.28428     N
N          0.0  0.12171  0.71572     N
C          0.0   0.1536   0.1536     C
C          0.0   0.1536   0.8464     C
O          0.0   0.1805   0.0848     O
O          0.0   0.1805   0.9152     O
C          0.0   0.1844   0.2675     C
C          0.0   0.1844   0.7325     C
C          0.0    0.205    0.205     C
C          0.0    0.205    0.795     C
N          0.0  0.21572  0.37829     N
N          0.0  0.21572  0.62171     N
C          0.0   0.2325   0.3156     C
C          0.0   0.2325   0.6844     C
C          0.0   0.2675   0.1844     C
C          0.0   0.2675   0.8156     C
N          0.0  0.28428  0.12171     N
N          0.0  0.28428  0.87829     N
C          0.0    0.295    0.295     C
C          0.0    0.295    0.705     C
C          0.0   0.3156   0.2325     C
C          0.0   0.3156   0.7675     C
O          0.0   0.3195   0.4152     O
O          0.0   0.3195   0.5848     O
C          0.0   0.3464   0.3464     C
C          0.0   0.3464   0.6536     C
N          0.0  0.37829  0.21572     N
N          0.0  0.37829  0.78428     N
Zr         0.0  0.37952      0.5    Zr
O          0.0   0.4152   0.3195     O
O          0.0   0.4152   0.6805     O
Zr         0.0      0.5  0.37952    Zr
Zr         0.0      0.5  0.62048    Zr
O          0.0   0.5848   0.3195     O
O          0.0   0.5848   0.6805     O
Zr         0.0  0.62048      0.5    Zr
N          0.0  0.62171  0.21572     N
N          0.0  0.62171  0.78428     N
C          0.0   0.6536   0.3464     C
C          0.0   0.6536   0.6536     C
O          0.0   0.6805   0.4152     O
O          0.0   0.6805   0.5848     O
C          0.0   0.6844   0.2325     C
C          0.0   0.6844   0.7675     C
C          0.0    0.705    0.295     C
C          0.0    0.705    0.705     C
N          0.0  0.71572  0.12171     N
N          0.0  0.71572  0.87829     N
C          0.0   0.7325   0.1844     C
C          0.0   0.7325   0.8156     C
C          0.0   0.7675   0.3156     C
C          0.0   0.7675   0.6844     C
N          0.0  0.78428  0.37829     N
N          0.0  0.78428  0.62171     N
C          0.0    0.795    0.205     C
C          0.0    0.795    0.795     C
C          0.0   0.8156   0.2675     C
C          0.0   0.8156   0.7325     C
O          0.0   0.8195   0.0848     O
O          0.0   0.8195   0.9152     O
C          0.0   0.8464   0.1536     C
C          0.0   0.8464   0.8464     C
N          0.0  0.87829  0.28428     N
N          0.0  0.87829  0.71572     N
Zr         0.0  0.87952      0.0    Zr
O          0.0   0.9152   0.1805     O
O          0.0   0.9152   0.8195     O
O       0.0628   0.0628   0.0628     O
O       0.0628   0.0628   0.9372     O
O       0.0628   0.4372   0.4372     O
O       0.0628   0.4372   0.5628     O
O       0.0628   0.5628   0.4372     O
O       0.0628   0.5628   0.5628     O
O       0.0628   0.9372   0.0628     O
O       0.0628   0.9372   0.9372     O
O       0.0848      0.0   0.1805     O
O       0.0848      0.0   0.8195     O
O       0.0848   0.1805      0.0     O
O       0.0848   0.3195      0.5     O
O       0.0848      0.5   0.3195     O
O       0.0848      0.5   0.6805     O
O       0.0848   0.6805      0.5     O
O       0.0848   0.8195      0.0     O
Zr     0.12048      0.0      0.0    Zr
Zr     0.12048      0.5      0.5    Zr
N      0.12171      0.0  0.28428     N
N      0.12171      0.0  0.71572     N
N      0.12171  0.21572      0.5     N
N      0.12171  0.28428      0.0     N
N      0.12171      0.5  0.21572     N
N      0.12171      0.5  0.78428     N
N      0.12171  0.71572      0.0     N
N      0.12171  0.78428      0.5     N
C       0.1536      0.0   0.1536     C
C       0.1536      0.0   0.8464     C
C       0.1536   0.1536      0.0     C
C       0.1536   0.3464      0.5     C
C       0.1536      0.5   0.3464     C
C       0.1536      0.5   0.6536     C
C       0.1536   0.6536      0.5     C
C       0.1536   0.8464      0.0     C
O       0.1805      0.0   0.0848     O
O       0.1805      0.0   0.9152     O
O       0.1805   0.0848      0.0     O
O       0.1805   0.4152      0.5     O
O       0.1805      0.5   0.4152     O
O       0.1805      0.5   0.5848     O
O       0.1805   0.5848      0.5     O
O       0.1805   0.9152      0.0     O
C       0.1844      0.0   0.2675     C
C       0.1844      0.0   0.7325     C
C       0.1844   0.2325      0.5     C
C       0.1844   0.2675      0.0     C
C       0.1844      0.5   0.2325     C
C       0.1844      0.5   0.7675     C
C       0.1844   0.7325      0.0     C
C       0.1844   0.7675      0.5     C
C        0.205      0.0    0.205     C
C        0.205      0.0    0.795     C
C        0.205    0.205      0.0     C
C        0.205    0.295      0.5     C
C        0.205      0.5    0.295     C
C        0.205      0.5    0.705     C
C        0.205    0.705      0.5     C
C        0.205    0.795      0.0     C
N      0.21572      0.0  0.37829     N
N      0.21572      0.0  0.62171     N
N      0.21572  0.12171      0.5     N
N      0.21572  0.37829      0.0     N
N      0.21572      0.5  0.12171     N
N      0.21572      0.5  0.87829     N
N      0.21572  0.62171      0.0     N
N      0.21572  0.87829      0.5     N
C       0.2325      0.0   0.3156     C
C       0.2325      0.0   0.6844     C
C       0.2325   0.1844      0.5     C
C       0.2325   0.3156      0.0     C
C       0.2325      0.5   0.1844     C
C       0.2325      0.5   0.8156     C
C       0.2325   0.6844      0.0     C
C       0.2325   0.8156      0.5     C
C       0.2675      0.0   0.1844     C
C       0.2675      0.0   0.8156     C
C       0.2675   0.1844      0.0     C
C       0.2675   0.3156      0.5     C
C       0.2675      0.5   0.3156     C
C       0.2675      0.5   0.6844     C
C       0.2675   0.6844      0.5     C
C       0.2675   0.8156      0.0     C
N      0.28428      0.0  0.12171     N
N      0.28428      0.0  0.87829     N
N      0.28428  0.12171      0.0     N
N      0.28428  0.37829      0.5     N
N      0.28428      0.5  0.37829     N
N      0.28428      0.5  0.62171     N
N      0.28428  0.62171      0.5     N
N      0.28428  0.87829      0.0     N
C        0.295      0.0    0.295     C
C        0.295      0.0    0.705     C
C        0.295    0.205      0.5     C
C        0.295    0.295      0.0     C
C        0.295      0.5    0.205     C
C        0.295      0.5    0.795     C
C        0.295    0.705      0.0     C
C        0.295    0.795      0.5     C
C       0.3156      0.0   0.2325     C
C       0.3156      0.0   0.7675     C
C       0.3156   0.2325      0.0     C
C       0.3156   0.2675      0.5     C
C       0.3156      0.5   0.2675     C
C       0.3156      0.5   0.7325     C
C       0.3156   0.7325      0.5     C
C       0.3156   0.7675      0.0     C
O       0.3195      0.0   0.4152     O
O       0.3195      0.0   0.5848     O
O       0.3195   0.0848      0.5     O
O       0.3195   0.4152      0.0     O
O       0.3195      0.5   0.0848     O
O       0.3195      0.5   0.9152     O
O       0.3195   0.5848      0.0     O
O       0.3195   0.9152      0.5     O
C       0.3464      0.0   0.3464     C
C       0.3464      0.0   0.6536     C
C       0.3464   0.1536      0.5     C
C       0.3464   0.3464      0.0     C
C       0.3464      0.5   0.1536     C
C       0.3464      0.5   0.8464     C
C       0.3464   0.6536      0.0     C
C       0.3464   0.8464      0.5     C
N      0.37829      0.0  0.21572     N
N      0.37829      0.0  0.78428     N
N      0.37829  0.21572      0.0     N
N      0.37829  0.28428      0.5     N
N      0.37829      0.5  0.28428     N
N      0.37829      0.5  0.71572     N
N      0.37829  0.71572      0.5     N
N      0.37829  0.78428      0.0     N
Zr     0.37952      0.0      0.5    Zr
Zr     0.37952      0.5      0.0    Zr
O       0.4152      0.0   0.3195     O
O       0.4152      0.0   0.6805     O
O       0.4152   0.1805      0.5     O
O       0.4152   0.3195      0.0     O
O       0.4152      0.5   0.1805     O
O       0.4152      0.5   0.8195     O
O       0.4152   0.6805      0.0     O
O       0.4152   0.8195      0.5     O
O       0.4372   0.0628   0.4372     O
O       0.4372   0.0628   0.5628     O
O       0.4372   0.4372   0.0628     O
O       0.4372   0.4372   0.9372     O
O       0.4372   0.5628   0.0628     O
O       0.4372   0.5628   0.9372     O
O       0.4372   0.9372   0.4372     O
O       0.4372   0.9372   0.5628     O
Zr         0.5      0.0  0.37952    Zr
Zr         0.5      0.0  0.62048    Zr
O          0.5   0.0848   0.3195     O
O          0.5   0.0848   0.6805     O
Zr         0.5  0.12048      0.5    Zr
N          0.5  0.12171  0.21572     N
N          0.5  0.12171  0.78428     N
C          0.5   0.1536   0.3464     C
C          0.5   0.1536   0.6536     C
O          0.5   0.1805   0.4152     O
O          0.5   0.1805   0.5848     O
C          0.5   0.1844   0.2325     C
C          0.5   0.1844   0.7675     C
C          0.5    0.205    0.295     C
C          0.5    0.205    0.705     C
N          0.5  0.21572  0.12171     N
N          0.5  0.21572  0.87829     N
C          0.5   0.2325   0.1844     C
C          0.5   0.2325   0.8156     C
C          0.5   0.2675   0.3156     C
C          0.5   0.2675   0.6844     C
N          0.5  0.28428  0.37829     N
N          0.5  0.28428  0.62171     N
C          0.5    0.295    0.205     C
C          0.5    0.295    0.795     C
C          0.5   0.3156   0.2675     C
C          0.5   0.3156   0.7325     C
O          0.5   0.3195   0.0848     O
O          0.5   0.3195   0.9152     O
C          0.5   0.3464   0.1536     C
C          0.5   0.3464   0.8464     C
N          0.5  0.37829  0.28428     N
N          0.5  0.37829  0.71572     N
Zr         0.5  0.37952      0.0    Zr
O          0.5   0.4152   0.1805     O
O          0.5   0.4152   0.8195     O
Zr         0.5      0.5  0.12048    Zr
Zr         0.5      0.5  0.87952    Zr
O          0.5   0.5848   0.1805     O
O          0.5   0.5848   0.8195     O
Zr         0.5  0.62048      0.0    Zr
N          0.5  0.62171  0.28428     N
N          0.5  0.62171  0.71572     N
C          0.5   0.6536   0.1536     C
C          0.5   0.6536   0.8464     C
O          0.5   0.6805   0.0848     O
O          0.5   0.6805   0.9152     O
C          0.5   0.6844   0.2675     C
C          0.5   0.6844   0.7325     C
C          0.5    0.705    0.205     C
C          0.5    0.705    0.795     C
N          0.5  0.71572  0.37829     N
N          0.5  0.71572  0.62171     N
C          0.5   0.7325   0.3156     C
C          0.5   0.7325   0.6844     C
C          0.5   0.7675   0.1844     C
C          0.5   0.7675   0.8156     C
N          0.5  0.78428  0.12171     N
N          0.5  0.78428  0.87829     N
C          0.5    0.795    0.295     C
C          0.5    0.795    0.705     C
C          0.5   0.8156   0.2325     C
C          0.5   0.8156   0.7675     C
O          0.5   0.8195   0.4152     O
O          0.5   0.8195   0.5848     O
C          0.5   0.8464   0.3464     C
C          0.5   0.8464   0.6536     C
N          0.5  0.87829  0.21572     N
N          0.5  0.87829  0.78428     N
Zr         0.5  0.87952      0.5    Zr
O          0.5   0.9152   0.3195     O
O          0.5   0.9152   0.6805     O
O       0.5628   0.0628   0.4372     O
O       0.5628   0.0628   0.5628     O
O       0.5628   0.4372   0.0628     O
O       0.5628   0.4372   0.9372     O
O       0.5628   0.5628   0.0628     O
O       0.5628   0.5628   0.9372     O
O       0.5628   0.9372   0.4372     O
O       0.5628   0.9372   0.5628     O
O       0.5848      0.0   0.3195     O
O       0.5848      0.0   0.6805     O
O       0.5848   0.1805      0.5     O
O       0.5848   0.3195      0.0     O
O       0.5848      0.5   0.1805     O
O       0.5848      0.5   0.8195     O
O       0.5848   0.6805      0.0     O
O       0.5848   0.8195      0.5     O
Zr     0.62048      0.0      0.5    Zr
Zr     0.62048      0.5      0.0    Zr
N      0.62171      0.0  0.21572     N
N      0.62171      0.0  0.78428     N
N      0.62171  0.21572      0.0     N
N      0.62171  0.28428      0.5     N
N      0.62171      0.5  0.28428     N
N      0.62171      0.5  0.71572     N
N      0.62171  0.71572      0.5     N
N      0.62171  0.78428      0.0     N
C       0.6536      0.0   0.3464     C
C       0.6536      0.0   0.6536     C
C       0.6536   0.1536      0.5     C
C       0.6536   0.3464      0.0     C
C       0.6536      0.5   0.1536     C
C       0.6536      0.5   0.8464     C
C       0.6536   0.6536      0.0     C
C       0.6536   0.8464      0.5     C
O       0.6805      0.0   0.4152     O
O       0.6805      0.0   0.5848     O
O       0.6805   0.0848      0.5     O
O       0.6805   0.4152      0.0     O
O       0.6805      0.5   0.0848     O
O       0.6805      0.5   0.9152     O
O       0.6805   0.5848      0.0     O
O       0.6805   0.9152      0.5     O
C       0.6844      0.0   0.2325     C
C       0.6844      0.0   0.7675     C
C       0.6844   0.2325      0.0     C
C       0.6844   0.2675      0.5     C
C       0.6844      0.5   0.2675     C
C       0.6844      0.5   0.7325     C
C       0.6844   0.7325      0.5     C
C       0.6844   0.7675      0.0     C
C        0.705      0.0    0.295     C
C        0.705      0.0    0.705     C
C        0.705    0.205      0.5     C
C        0.705    0.295      0.0     C
C        0.705      0.5    0.205     C
C        0.705      0.5    0.795     C
C        0.705    0.705      0.0     C
C        0.705    0.795      0.5     C
N      0.71572      0.0  0.12171     N
N      0.71572      0.0  0.87829     N
N      0.71572  0.12171      0.0     N
N      0.71572  0.37829      0.5     N
N      0.71572      0.5  0.37829     N
N      0.71572      0.5  0.62171     N
N      0.71572  0.62171      0.5     N
N      0.71572  0.87829      0.0     N
C       0.7325      0.0   0.1844     C
C       0.7325      0.0   0.8156     C
C       0.7325   0.1844      0.0     C
C       0.7325   0.3156      0.5     C
C       0.7325      0.5   0.3156     C
C       0.7325      0.5   0.6844     C
C       0.7325   0.6844      0.5     C
C       0.7325   0.8156      0.0     C
C       0.7675      0.0   0.3156     C
C       0.7675      0.0   0.6844     C
C       0.7675   0.1844      0.5     C
C       0.7675   0.3156      0.0     C
C       0.7675      0.5   0.1844     C
C       0.7675      0.5   0.8156     C
C       0.7675   0.6844      0.0     C
C       0.7675   0.8156      0.5     C
N      0.78428      0.0  0.37829     N
N      0.78428      0.0  0.62171     N
N      0.78428  0.12171      0.5     N
N      0.78428  0.37829      0.0     N
N      0.78428      0.5  0.12171     N
N      0.78428      0.5  0.87829     N
N      0.78428  0.62171      0.0     N
N      0.78428  0.87829      0.5     N
C        0.795      0.0    0.205     C
C        0.795      0.0    0.795     C
C        0.795    0.205      0.0     C
C        0.795    0.295      0.5     C
C        0.795      0.5    0.295     C
C        0.795      0.5    0.705     C
C        0.795    0.705      0.5     C
C        0.795    0.795      0.0     C
C       0.8156      0.0   0.2675     C
C       0.8156      0.0   0.7325     C
C       0.8156   0.2325      0.5     C
C       0.8156   0.2675      0.0     C
C       0.8156      0.5   0.2325     C
C       0.8156      0.5   0.7675     C
C       0.8156   0.7325      0.0     C
C       0.8156   0.7675      0.5     C
O       0.8195      0.0   0.0848     O
O       0.8195      0.0   0.9152     O
O       0.8195   0.0848      0.0     O
O       0.8195   0.4152      0.5     O
O       0.8195      0.5   0.4152     O
O       0.8195      0.5   0.5848     O
O       0.8195   0.5848      0.5     O
O       0.8195   0.9152      0.0     O
C       0.8464      0.0   0.1536     C
C       0.8464      0.0   0.8464     C
C       0.8464   0.1536      0.0     C
C       0.8464   0.3464      0.5     C
C       0.8464      0.5   0.3464     C
C       0.8464      0.5   0.6536     C
C       0.8464   0.6536      0.5     C
C       0.8464   0.8464      0.0     C
N      0.87829      0.0  0.28428     N
N      0.87829      0.0  0.71572     N
N      0.87829  0.21572      0.5     N
N      0.87829  0.28428      0.0     N
N      0.87829      0.5  0.21572     N
N      0.87829      0.5  0.78428     N
N      0.87829  0.71572      0.0     N
N      0.87829  0.78428      0.5     N
Zr     0.87952      0.0      0.0    Zr
Zr     0.87952      0.5      0.5    Zr
O       0.9152      0.0   0.1805     O
O       0.9152      0.0   0.8195     O
O       0.9152   0.1805      0.0     O
O       0.9152   0.3195      0.5     O
O       0.9152      0.5   0.3195     O
O       0.9152      0.5   0.6805     O
O       0.9152   0.6805      0.5     O
O       0.9152   0.8195      0.0     O
O       0.9372   0.0628   0.0628     O
O       0.9372   0.0628   0.9372     O
O       0.9372   0.4372   0.4372     O
O       0.9372   0.4372   0.5628     O
O       0.9372   0.5628   0.4372     O
O       0.9372   0.5628   0.5628     O
O       0.9372   0.9372   0.0628     O
O       0.9372   0.9372   0.9372     O
