data_I
_chemical_name_common  '/home/zhangsd/repos/MofS-CGCNN/ML/data/SSD/clean_cifs/EXEQII_SL'
_cell_length_a 12.38450
_cell_length_b 12.49440
_cell_length_c 12.49440
_cell_angle_alpha 75.78130
_cell_angle_beta  60.29050
_cell_angle_gamma 60.29040
_space_group_name_H-M_alt      'P 1'


loop_
_space_group_symop_operation_xyz
  'x, y, z' 

loop_
_atom_site_label
_atom_site_fract_x
_atom_site_fract_y
_atom_site_fract_z
_atom_site_type_symbol
O        0.007  0.98412  0.22974     O
O      0.00888  0.98412  0.77026     O
C      0.01821  0.39337  0.53113     C
O      0.02914  0.72974  0.48412     O
C       0.0369      0.5      0.5     C
Sc     0.06278  0.87444      0.5    Sc
O      0.08736  0.19402  0.61604     O
H       0.1136      0.5      0.5     H
C      0.12334  0.27774  0.55598     C
H        0.125  0.08053  0.44174     H
O        0.125  0.99796  0.50204     O
C      0.12666  0.94402  0.22226     C
H       0.1364      0.0     -0.0     H
O      0.16264  0.88396  0.30598     O
Sc     0.18722     -0.0  0.62556    Sc
C       0.2131     -0.0      0.0     C
O      0.22086  0.01588  0.77026     O
C      0.23179  0.96887  0.10663     C
O      0.24112  0.72974  0.51588     O
O        0.243  0.27026  0.51588     O
C      0.29294  0.05598  0.77774     C
O       0.2966  0.80598  0.61604     O
C      0.30729  0.03113  0.89337     C
C      0.32068  0.72226  0.55598     C
C      0.34659  0.96692  0.10524     C
O      0.35258  0.11604  0.69402     O
H       0.3612   0.9427   0.1771     H
O      0.37296  0.00204  0.50204     O
H       0.3864      0.5      0.5     H
C      0.41875  0.03308  0.89476     C
Sc     0.43722  0.12556      0.5    Sc
C        0.439     -0.0     -0.0     C
C      0.45066  0.60663  0.53113     C
H       0.4617   0.0573   0.1771     H
C       0.4631      0.5      0.5     C
H      0.47672  0.91984  0.43124     H
H        0.481   0.0573   0.8229     H
O      0.48674  0.27026  0.48412     O
O      0.53138  0.11604  0.30598     O
C      0.54817  0.03308  0.10524     C
H       0.5539   0.6771   0.5573     H
C        0.561     -0.0     -0.0     C
C      0.56351  0.60524  0.53308     C
C      0.58842  0.39337  0.46887     C
C      0.59892  0.27774  0.44402     C
O        0.625  0.00204  0.49796     O
H        0.625  0.91947  0.51824     H
C      0.65108  0.05598  0.22226     C
C      0.66158  0.03113  0.10663     C
C      0.68649  0.96692  0.89476     C
C        0.689      0.5      0.5     C
H       0.6961   0.9427   0.8229     H
C      0.70183  0.39476  0.46692     C
O      0.71862  0.19402  0.38396     O
O      0.76326  0.01588  0.22974     O
H        0.769   0.6771   0.4427     H
C       0.7869     -0.0      1.0     C
H       0.7883   0.3229   0.4427     H
C      0.79934  0.96887  0.89337     C
C        0.811      0.5      0.5     C
Sc     0.81278     -0.0  0.37444    Sc
C      0.83125  0.60524  0.46692     C
H       0.8636     -0.0      1.0     H
H      0.87704  0.08053  0.47768     H
O      0.87704  0.99796  0.49796     O
H       0.8888   0.3229   0.5573     H
O      0.89742  0.80598  0.38396     O
C      0.90341  0.39476  0.53308     C
C      0.92932  0.94402  0.77774     C
C      0.94271  0.60663  0.46887     C
O       0.9534  0.88396  0.69402     O
C      0.95706  0.72226  0.44402     C
