data_I
_chemical_name_common  '/home/zhangsd/repos/MofS-CGCNN/ML/data/SSD/clean_cifs/FAFCEW_clean'
_cell_length_a 15.40000
_cell_length_b  6.72870
_cell_length_c 14.25200
_cell_angle_alpha 90.00000
_cell_angle_beta  90.00000
_cell_angle_gamma 90.00000
_space_group_name_H-M_alt      'P 1'


loop_
_space_group_symop_operation_xyz
  'x, y, z' 

loop_
_atom_site_label
_atom_site_fract_x
_atom_site_fract_y
_atom_site_fract_z
_atom_site_type_symbol
C       0.0033     0.75   0.5074     C
C       0.0201     0.25   0.3326     C
C       0.0227     0.75   0.7623     C
O        0.024     0.25   0.1669     O
N       0.0334     0.75   0.5948     N
O       0.0492     0.75   0.3501     O
C       0.0723     0.75   0.4317     C
C       0.0867     0.25   0.5076     C
O       0.1048     0.75   0.7615     O
C       0.1096     0.25   0.3492     C
C       0.1284     0.25   0.6041     C
N       0.1421     0.25   0.4365     N
O       0.1481   0.0863   0.6389     O
O       0.1481   0.4137   0.6389     O
O       0.1508     0.75   0.4635     O
C       0.1767     0.25   0.2728     C
Eu     0.19665     0.75  0.62359    Eu
O         0.21   0.0917    0.249     O
O         0.21   0.4083    0.249     O
K       0.2328     0.25   0.8095     K
K       0.2672     0.75   0.3095     K
O         0.29   0.5917    0.749     O
O         0.29   0.9083    0.749     O
Eu     0.30335     0.25  0.12359    Eu
C       0.3233     0.75   0.7728     C
O       0.3492     0.25   0.9635     O
O       0.3519   0.5863   0.1389     O
O       0.3519   0.9137   0.1389     O
N       0.3579     0.75   0.9365     N
C       0.3716     0.75   0.1041     C
C       0.3904     0.75   0.8492     C
O       0.3952     0.25   0.2615     O
C       0.4133     0.75   0.0076     C
C       0.4277     0.25   0.9317     C
O       0.4508     0.25   0.8501     O
N       0.4666     0.25   0.0948     N
O        0.476     0.75   0.6669     O
C       0.4773     0.25   0.2623     C
C       0.4799     0.75   0.8326     C
C       0.4967     0.25   0.0074     C
C       0.5033     0.75   0.9926     C
C       0.5201     0.25   0.1674     C
C       0.5227     0.75   0.7377     C
O        0.524     0.25   0.3331     O
N       0.5334     0.75   0.9052     N
O       0.5492     0.75   0.1499     O
C       0.5723     0.75   0.0683     C
C       0.5867     0.25   0.9924     C
O       0.6048     0.75   0.7385     O
C       0.6096     0.25   0.1508     C
C       0.6284     0.25   0.8959     C
N       0.6421     0.25   0.0635     N
O       0.6481   0.0863   0.8611     O
O       0.6481   0.4137   0.8611     O
O       0.6508     0.75   0.0365     O
C       0.6767     0.25   0.2272     C
Eu     0.69665     0.75  0.87641    Eu
O         0.71   0.0917    0.251     O
O         0.71   0.4083    0.251     O
K       0.7328     0.25   0.6905     K
K       0.7672     0.75   0.1905     K
O         0.79   0.5917    0.751     O
O         0.79   0.9083    0.751     O
Eu     0.80335     0.25  0.37641    Eu
C       0.8233     0.75   0.7272     C
O       0.8492     0.25   0.5365     O
O       0.8519   0.5863   0.3611     O
O       0.8519   0.9137   0.3611     O
N       0.8579     0.75   0.5635     N
C       0.8716     0.75   0.3959     C
C       0.8904     0.75   0.6508     C
O       0.8952     0.25   0.2385     O
C       0.9133     0.75   0.4924     C
C       0.9277     0.25   0.5683     C
O       0.9508     0.25   0.6499     O
N       0.9666     0.25   0.4052     N
O        0.976     0.75   0.8331     O
C       0.9773     0.25   0.2377     C
C       0.9799     0.75   0.6674     C
C       0.9967     0.25   0.4926     C
