data_I
_chemical_name_common  '/home/zhangsd/repos/MofS-CGCNN/ML/data/SSD/clean_cifs/FAGMEI_clean'
_cell_length_a 24.25380
_cell_length_b 24.25380
_cell_length_c 13.68090
_cell_angle_alpha 90.00000
_cell_angle_beta  90.00000
_cell_angle_gamma 90.00000
_space_group_name_H-M_alt      'P 1'


loop_
_space_group_symop_operation_xyz
  'x, y, z' 

loop_
_atom_site_label
_atom_site_fract_x
_atom_site_fract_y
_atom_site_fract_z
_atom_site_type_symbol
S      0.02224  0.66197  0.74709     S
S      0.02224  0.83803  0.50291     S
H       0.0281   0.1722   0.6781     H
H       0.0281   0.3278   0.5719     H
C       0.0351   0.1271    0.553     C
C       0.0351   0.3729    0.697     C
H       0.0387    0.744    0.393     H
H       0.0387    0.756    0.857     H
H       0.0396   0.1312   0.8498     H
H       0.0396   0.3688   0.4002     H
H       0.0507    0.134   0.2557     H
H       0.0507    0.366   0.9943     H
C        0.051   0.1464   0.6451     C
C        0.051   0.3536   0.6049     C
H       0.0517   0.1643   0.3595     H
H       0.0517   0.3357   0.8905     H
S       0.0529  0.06894  0.38121     S
S       0.0529  0.43106  0.86879     S
C       0.0612   0.7129   0.4066     C
C       0.0612   0.7871   0.8434     C
H       0.0655   0.6711   0.2712     H
H       0.0655   0.8289   0.9788     H
H       0.0674   0.2229   0.7776     H
H       0.0674   0.2771   0.4724     H
C       0.0678   0.0891   0.5022     C
C       0.0678   0.4109   0.7478     C
C       0.0681    0.614   0.8008     C
C       0.0681    0.886   0.4492     C
C       0.0682   0.1339   0.3211     C
C       0.0682   0.3661   0.9289     C
S      0.06894   0.5529  0.63121     S
S      0.06894   0.9471  0.61879     S
H       0.0735   0.6615   0.9245     H
H       0.0735   0.8385   0.3255     H
C       0.0758    0.673   0.3382     C
C       0.0758    0.827   0.9118     C
Ag     0.07766     0.75    0.625    Ag
C       0.0783   0.1265   0.8682     C
C       0.0783   0.3735   0.3818     C
N       0.0829   0.7018   0.4931     N
N       0.0829   0.7982   0.7569     N
H       0.0851   0.1445   0.9312     H
H       0.0851   0.3555   0.3188     H
H       0.0868   0.0871   0.8735     H
H       0.0868   0.4129   0.3765     H
H       0.0871   0.5868   0.1235     H
H       0.0871   0.9132   0.1265     H
C       0.0881   0.6297   0.8933     C
C       0.0881   0.8703   0.3567     C
C       0.0891   0.5678   0.7522     C
C       0.0891   0.9322   0.4978     C
C       0.0991   0.1292   0.6893     C
C       0.0991   0.3708   0.5607     C
H       0.1026   0.6819   0.0736     H
H       0.1026   0.8181   0.1764     H
H       0.1054   0.1259   0.1133     H
H       0.1054   0.3741   0.1367     H
C       0.1064   0.2151   0.7897     C
C       0.1064   0.2849   0.4603     C
C       0.1083   0.6372   0.3893     C
C       0.1083   0.8628   0.8607     C
N       0.1113   0.6543   0.4812     N
N       0.1113   0.8457   0.7688     N
C        0.114   0.0681   0.5508     C
C        0.114   0.4319   0.6992     C
C       0.1157   0.1529   0.7889     C
C       0.1157   0.3471   0.4611     C
H       0.1171     0.23   0.8535     H
H       0.1171     0.27   0.3965     H
H       0.1259   0.6054   0.3633     H
H       0.1259   0.8946   0.8867     H
C       0.1265   0.5783   0.1182     C
C       0.1265   0.9217   0.1318     C
C       0.1271   0.5351    0.803     C
C       0.1271   0.9649    0.447     C
H       0.1288   0.2322   0.7384     H
H       0.1288   0.2678   0.5116     H
C       0.1292   0.5991   0.9393     C
C       0.1292   0.9009   0.3107     C
C       0.1295    0.145   0.3092     C
C       0.1295    0.355   0.9408     C
C       0.1297   0.0881   0.6433     C
C       0.1297   0.4119   0.6067     C
H       0.1312   0.5396   0.0998     H
H       0.1312   0.9604   0.1502     H
C       0.1339   0.5682   0.5711     C
C       0.1339   0.9318   0.6789     C
H        0.134   0.5507   0.5057     H
H        0.134   0.9493   0.7443     H
H       0.1351   0.1845   0.2939     H
H       0.1351   0.3155   0.9561     H
H        0.137   0.6484   0.6217     H
H        0.137   0.8516   0.6283     H
C       0.1372   0.1083   0.1393     C
C       0.1372   0.3917   0.1107     C
C       0.1421   0.6764    0.062     C
C       0.1421   0.8236    0.188     C
H       0.1445   0.5851   0.1812     H
H       0.1445   0.9149   0.0688     H
C        0.145   0.6295   0.5592     C
C        0.145   0.8705   0.6908     C
C       0.1464    0.551   0.8951     C
C       0.1464    0.949   0.3549     C
H       0.1484    0.137   0.3717     H
H       0.1484    0.363   0.8783     H
C       0.1529   0.6157   0.0389     C
C       0.1529   0.8843   0.2111     C
H        0.154   0.6992   0.0067     H
H        0.154   0.8008   0.2433     H
N       0.1543   0.1113   0.2312     N
N       0.1543   0.3887   0.0188     N
H       0.1615   0.0735   0.6745     H
H       0.1615   0.4265   0.5755     H
S      0.16197  0.02224  0.49709     S
S      0.16197  0.47776  0.75291     S
H       0.1628   0.6869   0.1206     H
H       0.1628   0.8131   0.1294     H
H       0.1643   0.5517   0.6095     H
H       0.1643   0.9483   0.6405     H
H       0.1711   0.0655   0.0212     H
H       0.1711   0.4345   0.2288     H
H       0.1722   0.5281   0.9281     H
H       0.1722   0.9719   0.3219     H
C        0.173   0.0758   0.0882     C
C        0.173   0.4242   0.1618     C
C       0.1764   0.1421    0.812     C
C       0.1764   0.3579    0.438     C
H       0.1819   0.1026   0.8236     H
H       0.1819   0.3974   0.4264     H
H       0.1845   0.6351   0.5439     H
H       0.1845   0.8649   0.7061     H
H       0.1869   0.1628   0.8706     H
H       0.1869   0.3372   0.3794     H
H       0.1992    0.154   0.7567     H
H       0.1992    0.346   0.4933     H
N       0.2018   0.0829   0.2431     N
N       0.2018   0.4171   0.0069     N
C       0.2129   0.0612   0.1566     C
C       0.2129   0.4388   0.0934     C
C       0.2151   0.6064   0.0397     C
C       0.2151   0.8936   0.2103     C
H       0.2229   0.5674   0.0276     H
H       0.2229   0.9326   0.2224     H
H         0.23   0.6171   0.1035     H
H         0.23   0.8829   0.1465     H
H       0.2322   0.6288   0.9884     H
H       0.2322   0.8712   0.2616     H
H        0.244   0.0387    0.143     H
H        0.244   0.4613    0.107     H
Ag        0.25  0.07766    0.375    Ag
Ag        0.25  0.42234    0.875    Ag
H        0.256   0.0387    0.607     H
H        0.256   0.4613    0.643     H
H       0.2678   0.6288   0.7616     H
H       0.2678   0.8712   0.4884     H
H         0.27   0.6171   0.6465     H
H         0.27   0.8829   0.6035     H
H       0.2771   0.5674   0.7224     H
H       0.2771   0.9326   0.5276     H
C       0.2849   0.6064   0.7103     C
C       0.2849   0.8936   0.5397     C
C       0.2871   0.0612   0.5934     C
C       0.2871   0.4388   0.6566     C
N       0.2982   0.0829   0.5069     N
N       0.2982   0.4171   0.7431     N
H       0.3008    0.154   0.9933     H
H       0.3008    0.346   0.2567     H
H       0.3131   0.1628   0.8794     H
H       0.3131   0.3372   0.3706     H
H       0.3155   0.6351   0.2061     H
H       0.3155   0.8649   0.0439     H
H       0.3181   0.1026   0.9264     H
H       0.3181   0.3974   0.3236     H
C       0.3236   0.1421    0.938     C
C       0.3236   0.3579    0.312     C
C        0.327   0.0758   0.6618     C
C        0.327   0.4242   0.5882     C
H       0.3278   0.5281   0.8219     H
H       0.3278   0.9719   0.4281     H
H       0.3289   0.0655   0.7288     H
H       0.3289   0.4345   0.5212     H
H       0.3357   0.5517   0.1405     H
H       0.3357   0.9483   0.1095     H
H       0.3372   0.6869   0.6294     H
H       0.3372   0.8131   0.6206     H
S      0.33803  0.02224  0.25291     S
S      0.33803  0.47776  0.99709     S
H       0.3385   0.0735   0.0755     H
H       0.3385   0.4265   0.1745     H
N       0.3457   0.1113   0.5188     N
N       0.3457   0.3887   0.7312     N
H        0.346   0.6992   0.7433     H
H        0.346   0.8008   0.5067     H
C       0.3471   0.6157   0.7111     C
C       0.3471   0.8843   0.5389     C
H       0.3516    0.137   0.3783     H
H       0.3516    0.363   0.8717     H
C       0.3536    0.551   0.8549     C
C       0.3536    0.949   0.3951     C
C        0.355   0.6295   0.1908     C
C        0.355   0.8705   0.0592     C
H       0.3555   0.5851   0.5688     H
H       0.3555   0.9149   0.6812     H
C       0.3579   0.6764    0.688     C
C       0.3579   0.8236    0.562     C
C       0.3628   0.1083   0.6107     C
C       0.3628   0.3917   0.6393     C
H        0.363   0.6484   0.1283     H
H        0.363   0.8516   0.1217     H
H       0.3649   0.1845   0.4561     H
H       0.3649   0.3155   0.7939     H
H        0.366   0.5507   0.2443     H
H        0.366   0.9493   0.0057     H
C       0.3661   0.5682   0.1789     C
C       0.3661   0.9318   0.0711     C
H       0.3688   0.5396   0.6502     H
H       0.3688   0.9604   0.5998     H
C       0.3703   0.0881   0.1067     C
C       0.3703   0.4119   0.1433     C
C       0.3705    0.145   0.4408     C
C       0.3705    0.355   0.8092     C
C       0.3708   0.5991   0.8107     C
C       0.3708   0.9009   0.4393     C
H       0.3712   0.2322   0.0116     H
H       0.3712   0.2678   0.2384     H
C       0.3729   0.5351    0.947     C
C       0.3729   0.9649    0.303     C
C       0.3735   0.5783   0.6318     C
C       0.3735   0.9217   0.6182     C
H       0.3741   0.6054   0.3867     H
H       0.3741   0.8946   0.8633     H
H       0.3829     0.23   0.8965     H
H       0.3829     0.27   0.3535     H
C       0.3843   0.1529   0.9611     C
C       0.3843   0.3471   0.2889     C
C        0.386   0.0681   0.1992     C
C        0.386   0.4319   0.0508     C
N       0.3887   0.6543   0.2688     N
N       0.3887   0.8457   0.9812     N
C       0.3917   0.6372   0.3607     C
C       0.3917   0.8628   0.8893     C
C       0.3936   0.2151   0.9603     C
C       0.3936   0.2849   0.2897     C
H       0.3946   0.1259   0.6367     H
H       0.3946   0.3741   0.6133     H
H       0.3974   0.6819   0.6764     H
H       0.3974   0.8181   0.5736     H
C       0.4009   0.1292   0.0607     C
C       0.4009   0.3708   0.1893     C
C       0.4109   0.5678   0.9978     C
C       0.4109   0.9322   0.2522     C
C       0.4119   0.6297   0.8567     C
C       0.4119   0.8703   0.3933     C
H       0.4129   0.5868   0.6265     H
H       0.4129   0.9132   0.6235     H
H       0.4132   0.0871   0.8765     H
H       0.4132   0.4129   0.3735     H
H       0.4149   0.1445   0.8188     H
H       0.4149   0.3555   0.4312     H
N       0.4171   0.7018   0.2569     N
N       0.4171   0.7982   0.9931     N
C       0.4217   0.1265   0.8818     C
C       0.4217   0.3735   0.3682     C
Ag     0.42234     0.75    0.125    Ag
C       0.4242    0.673   0.4118     C
C       0.4242    0.827   0.8382     C
H       0.4265   0.6615   0.8255     H
H       0.4265   0.8385   0.4245     H
S      0.43106   0.5529  0.11879     S
S      0.43106   0.9471  0.13121     S
C       0.4318   0.1339   0.4289     C
C       0.4318   0.3661   0.8211     C
C       0.4319    0.614   0.9492     C
C       0.4319    0.886   0.3008     C
C       0.4322   0.0891   0.2478     C
C       0.4322   0.4109   0.0022     C
H       0.4326   0.2229   0.9724     H
H       0.4326   0.2771   0.2776     H
H       0.4345   0.6711   0.4788     H
H       0.4345   0.8289   0.7712     H
C       0.4388   0.7129   0.3434     C
C       0.4388   0.7871   0.9066     C
S       0.4471  0.06894  0.36879     S
S       0.4471  0.43106  0.88121     S
H       0.4483   0.1643   0.3905     H
H       0.4483   0.3357   0.8595     H
C        0.449   0.1464   0.1049     C
C        0.449   0.3536   0.1451     C
H       0.4493    0.134   0.4943     H
H       0.4493    0.366   0.7557     H
H       0.4604   0.1312   0.9002     H
H       0.4604   0.3688   0.3498     H
H       0.4613    0.744    0.357     H
H       0.4613    0.756    0.893     H
C       0.4649   0.1271    0.197     C
C       0.4649   0.3729    0.053     C
H       0.4719   0.1722   0.0719     H
H       0.4719   0.3278   0.1781     H
S      0.47776  0.66197  0.00291     S
S      0.47776  0.83803  0.24709     S
S      0.52224  0.16197  0.24709     S
S      0.52224  0.33803  0.00291     S
H       0.5281   0.6722   0.1781     H
H       0.5281   0.8278   0.0719     H
C       0.5351   0.6271    0.053     C
C       0.5351   0.8729    0.197     C
H       0.5387    0.244    0.893     H
H       0.5387    0.256    0.357     H
H       0.5396   0.6312   0.3498     H
H       0.5396   0.8688   0.9002     H
H       0.5507    0.634   0.7557     H
H       0.5507    0.866   0.4943     H
C        0.551   0.6464   0.1451     C
C        0.551   0.8536   0.1049     C
H       0.5517   0.6643   0.8595     H
H       0.5517   0.8357   0.3905     H
S       0.5529  0.56894  0.88121     S
S       0.5529  0.93106  0.36879     S
C       0.5612   0.2129   0.9066     C
C       0.5612   0.2871   0.3434     C
H       0.5655   0.1711   0.7712     H
H       0.5655   0.3289   0.4788     H
H       0.5674   0.7229   0.2776     H
H       0.5674   0.7771   0.9724     H
C       0.5678   0.5891   0.0022     C
C       0.5678   0.9109   0.2478     C
C       0.5681    0.114   0.3008     C
C       0.5681    0.386   0.9492     C
C       0.5682   0.6339   0.8211     C
C       0.5682   0.8661   0.4289     C
S      0.56894   0.0529  0.13121     S
S      0.56894   0.4471  0.11879     S
H       0.5735   0.1615   0.4245     H
H       0.5735   0.3385   0.8255     H
C       0.5758    0.173   0.8382     C
C       0.5758    0.327   0.4118     C
Ag     0.57766     0.25    0.125    Ag
C       0.5783   0.6265   0.3682     C
C       0.5783   0.8735   0.8818     C
N       0.5829   0.2018   0.9931     N
N       0.5829   0.2982   0.2569     N
H       0.5851   0.6445   0.4312     H
H       0.5851   0.8555   0.8188     H
H       0.5868   0.5871   0.3735     H
H       0.5868   0.9129   0.8765     H
H       0.5871   0.0868   0.6235     H
H       0.5871   0.4132   0.6265     H
C       0.5881   0.1297   0.3933     C
C       0.5881   0.3703   0.8567     C
C       0.5891   0.0678   0.2522     C
C       0.5891   0.4322   0.9978     C
C       0.5991   0.6292   0.1893     C
C       0.5991   0.8708   0.0607     C
H       0.6026   0.1819   0.5736     H
H       0.6026   0.3181   0.6764     H
H       0.6054   0.6259   0.6133     H
H       0.6054   0.8741   0.6367     H
C       0.6064   0.7151   0.2897     C
C       0.6064   0.7849   0.9603     C
C       0.6083   0.1372   0.8893     C
C       0.6083   0.3628   0.3607     C
N       0.6113   0.1543   0.9812     N
N       0.6113   0.3457   0.2688     N
C        0.614   0.5681   0.0508     C
C        0.614   0.9319   0.1992     C
C       0.6157   0.6529   0.2889     C
C       0.6157   0.8471   0.9611     C
H       0.6171     0.73   0.3535     H
H       0.6171     0.77   0.8965     H
H       0.6259   0.1054   0.8633     H
H       0.6259   0.3946   0.3867     H
C       0.6265   0.0783   0.6182     C
C       0.6265   0.4217   0.6318     C
C       0.6271   0.0351    0.303     C
C       0.6271   0.4649    0.947     C
H       0.6288   0.7322   0.2384     H
H       0.6288   0.7678   0.0116     H
C       0.6292   0.0991   0.4393     C
C       0.6292   0.4009   0.8107     C
C       0.6295    0.645   0.8092     C
C       0.6295    0.855   0.4408     C
C       0.6297   0.5881   0.1433     C
C       0.6297   0.9119   0.1067     C
H       0.6312   0.0396   0.5998     H
H       0.6312   0.4604   0.6502     H
C       0.6339   0.0682   0.0711     C
C       0.6339   0.4318   0.1789     C
H        0.634   0.0507   0.0057     H
H        0.634   0.4493   0.2443     H
H       0.6351   0.6845   0.7939     H
H       0.6351   0.8155   0.4561     H
H        0.637   0.1484   0.1217     H
H        0.637   0.3516   0.1283     H
C       0.6372   0.6083   0.6393     C
C       0.6372   0.8917   0.6107     C
C       0.6421   0.1764    0.562     C
C       0.6421   0.3236    0.688     C
H       0.6445   0.0851   0.6812     H
H       0.6445   0.4149   0.5688     H
C        0.645   0.1295   0.0592     C
C        0.645   0.3705   0.1908     C
C       0.6464    0.051   0.3951     C
C       0.6464    0.449   0.8549     C
H       0.6484    0.637   0.8717     H
H       0.6484    0.863   0.3783     H
C       0.6529   0.1157   0.5389     C
C       0.6529   0.3843   0.7111     C
H        0.654   0.1992   0.5067     H
H        0.654   0.3008   0.7433     H
N       0.6543   0.6113   0.7312     N
N       0.6543   0.8887   0.5188     N
H       0.6615   0.5735   0.1745     H
H       0.6615   0.9265   0.0755     H
S      0.66197  0.52224  0.99709     S
S      0.66197  0.97776  0.25291     S
H       0.6628   0.1869   0.6206     H
H       0.6628   0.3131   0.6294     H
H       0.6643   0.0517   0.1095     H
H       0.6643   0.4483   0.1405     H
H       0.6711   0.5655   0.5212     H
H       0.6711   0.9345   0.7288     H
H       0.6722   0.0281   0.4281     H
H       0.6722   0.4719   0.8219     H
C        0.673   0.5758   0.5882     C
C        0.673   0.9242   0.6618     C
C       0.6764   0.6421    0.312     C
C       0.6764   0.8579    0.938     C
H       0.6819   0.6026   0.3236     H
H       0.6819   0.8974   0.9264     H
H       0.6845   0.1351   0.0439     H
H       0.6845   0.3649   0.2061     H
H       0.6869   0.6628   0.3706     H
H       0.6869   0.8372   0.8794     H
H       0.6992    0.654   0.2567     H
H       0.6992    0.846   0.9933     H
N       0.7018   0.5829   0.7431     N
N       0.7018   0.9171   0.5069     N
C       0.7129   0.5612   0.6566     C
C       0.7129   0.9388   0.5934     C
C       0.7151   0.1064   0.5397     C
C       0.7151   0.3936   0.7103     C
H       0.7229   0.0674   0.5276     H
H       0.7229   0.4326   0.7224     H
H         0.73   0.1171   0.6035     H
H         0.73   0.3829   0.6465     H
H       0.7322   0.1288   0.4884     H
H       0.7322   0.3712   0.7616     H
H        0.744   0.5387    0.643     H
H        0.744   0.9613    0.607     H
Ag        0.75  0.57766    0.875    Ag
Ag        0.75  0.92234    0.375    Ag
H        0.756   0.5387    0.107     H
H        0.756   0.9613    0.143     H
H       0.7678   0.1288   0.2616     H
H       0.7678   0.3712   0.9884     H
H         0.77   0.1171   0.1465     H
H         0.77   0.3829   0.1035     H
H       0.7771   0.0674   0.2224     H
H       0.7771   0.4326   0.0276     H
C       0.7849   0.1064   0.2103     C
C       0.7849   0.3936   0.0397     C
C       0.7871   0.5612   0.0934     C
C       0.7871   0.9388   0.1566     C
N       0.7982   0.5829   0.0069     N
N       0.7982   0.9171   0.2431     N
H       0.8008    0.654   0.4933     H
H       0.8008    0.846   0.7567     H
H       0.8131   0.6628   0.3794     H
H       0.8131   0.8372   0.8706     H
H       0.8155   0.1351   0.7061     H
H       0.8155   0.3649   0.5439     H
H       0.8181   0.6026   0.4264     H
H       0.8181   0.8974   0.8236     H
C       0.8236   0.6421    0.438     C
C       0.8236   0.8579    0.812     C
C        0.827   0.5758   0.1618     C
C        0.827   0.9242   0.0882     C
H       0.8278   0.0281   0.3219     H
H       0.8278   0.4719   0.9281     H
H       0.8289   0.5655   0.2288     H
H       0.8289   0.9345   0.0212     H
H       0.8357   0.0517   0.6405     H
H       0.8357   0.4483   0.6095     H
H       0.8372   0.1869   0.1294     H
H       0.8372   0.3131   0.1206     H
S      0.83803  0.52224  0.75291     S
S      0.83803  0.97776  0.49709     S
H       0.8385   0.5735   0.5755     H
H       0.8385   0.9265   0.6745     H
N       0.8457   0.6113   0.0188     N
N       0.8457   0.8887   0.2312     N
H        0.846   0.1992   0.2433     H
H        0.846   0.3008   0.0067     H
C       0.8471   0.1157   0.2111     C
C       0.8471   0.3843   0.0389     C
H       0.8516    0.637   0.8783     H
H       0.8516    0.863   0.3717     H
C       0.8536    0.051   0.3549     C
C       0.8536    0.449   0.8951     C
C        0.855   0.1295   0.6908     C
C        0.855   0.3705   0.5592     C
H       0.8555   0.0851   0.0688     H
H       0.8555   0.4149   0.1812     H
C       0.8579   0.1764    0.188     C
C       0.8579   0.3236    0.062     C
C       0.8628   0.6083   0.1107     C
C       0.8628   0.8917   0.1393     C
H        0.863   0.1484   0.6283     H
H        0.863   0.3516   0.6217     H
H       0.8649   0.6845   0.9561     H
H       0.8649   0.8155   0.2939     H
H        0.866   0.0507   0.7443     H
H        0.866   0.4493   0.5057     H
C       0.8661   0.0682   0.6789     C
C       0.8661   0.4318   0.5711     C
H       0.8688   0.0396   0.1502     H
H       0.8688   0.4604   0.0998     H
C       0.8703   0.5881   0.6067     C
C       0.8703   0.9119   0.6433     C
C       0.8705    0.645   0.9408     C
C       0.8705    0.855   0.3092     C
C       0.8708   0.0991   0.3107     C
C       0.8708   0.4009   0.9393     C
H       0.8712   0.7322   0.5116     H
H       0.8712   0.7678   0.7384     H
C       0.8729   0.0351    0.447     C
C       0.8729   0.4649    0.803     C
C       0.8735   0.0783   0.1318     C
C       0.8735   0.4217   0.1182     C
H       0.8741   0.1054   0.8867     H
H       0.8741   0.3946   0.3633     H
H       0.8829     0.73   0.3965     H
H       0.8829     0.77   0.8535     H
C       0.8843   0.6529   0.4611     C
C       0.8843   0.8471   0.7889     C
C        0.886   0.5681   0.6992     C
C        0.886   0.9319   0.5508     C
N       0.8887   0.1543   0.7688     N
N       0.8887   0.3457   0.4812     N
C       0.8917   0.1372   0.8607     C
C       0.8917   0.3628   0.3893     C
C       0.8936   0.7151   0.4603     C
C       0.8936   0.7849   0.7897     C
H       0.8946   0.6259   0.1367     H
H       0.8946   0.8741   0.1133     H
H       0.8974   0.1819   0.1764     H
H       0.8974   0.3181   0.0736     H
C       0.9009   0.6292   0.5607     C
C       0.9009   0.8708   0.6893     C
C       0.9109   0.0678   0.4978     C
C       0.9109   0.4322   0.7522     C
C       0.9119   0.1297   0.3567     C
C       0.9119   0.3703   0.8933     C
H       0.9129   0.0868   0.1265     H
H       0.9129   0.4132   0.1235     H
H       0.9132   0.5871   0.3765     H
H       0.9132   0.9129   0.8735     H
H       0.9149   0.6445   0.3188     H
H       0.9149   0.8555   0.9312     H
N       0.9171   0.2018   0.7569     N
N       0.9171   0.2982   0.4931     N
C       0.9217   0.6265   0.3818     C
C       0.9217   0.8735   0.8682     C
Ag     0.92234     0.25    0.625    Ag
C       0.9242    0.173   0.9118     C
C       0.9242    0.327   0.3382     C
H       0.9265   0.1615   0.3255     H
H       0.9265   0.3385   0.9245     H
S      0.93106   0.0529  0.61879     S
S      0.93106   0.4471  0.63121     S
C       0.9318   0.6339   0.9289     C
C       0.9318   0.8661   0.3211     C
C       0.9319    0.114   0.4492     C
C       0.9319    0.386   0.8008     C
C       0.9322   0.5891   0.7478     C
C       0.9322   0.9109   0.5022     C
H       0.9326   0.7229   0.4724     H
H       0.9326   0.7771   0.7776     H
H       0.9345   0.1711   0.9788     H
H       0.9345   0.3289   0.2712     H
C       0.9388   0.2129   0.8434     C
C       0.9388   0.2871   0.4066     C
S       0.9471  0.56894  0.86879     S
S       0.9471  0.93106  0.38121     S
H       0.9483   0.6643   0.8905     H
H       0.9483   0.8357   0.3595     H
C        0.949   0.6464   0.6049     C
C        0.949   0.8536   0.6451     C
H       0.9493    0.634   0.9943     H
H       0.9493    0.866   0.2557     H
H       0.9604   0.6312   0.4002     H
H       0.9604   0.8688   0.8498     H
H       0.9613    0.244    0.857     H
H       0.9613    0.256    0.393     H
C       0.9649   0.6271    0.697     C
C       0.9649   0.8729    0.553     C
H       0.9719   0.6722   0.5719     H
H       0.9719   0.8278   0.6781     H
S      0.97776  0.16197  0.50291     S
S      0.97776  0.33803  0.74709     S
