data_I
_chemical_name_common  '/home/zhangsd/repos/MofS-CGCNN/ML/data/SSD/clean_cifs/FARFUA_clean'
_cell_length_a 15.10100
_cell_length_b 18.65280
_cell_length_c 30.23970
_cell_angle_alpha 100.15500
_cell_angle_beta  90.00000
_cell_angle_gamma 113.87800
_space_group_name_H-M_alt      'P 1'


loop_
_space_group_symop_operation_xyz
  'x, y, z' 

loop_
_atom_site_label
_atom_site_fract_x
_atom_site_fract_y
_atom_site_fract_z
_atom_site_type_symbol
N       0.0034   0.6372   0.2476     N
C       0.0049   0.9446   0.4461     C
H       0.0092     0.98   0.4263     H
C       0.0104    0.154    0.495     C
H       0.0124     0.31   0.1621     H
H       0.0181   0.1878   0.4739     H
H       0.0209    0.748   0.3108     H
H       0.0214   0.1746   0.6328     H
C       0.0229   0.5874    0.216     C
H       0.0292     0.02   0.0737     H
I       0.0309  0.51132  0.68777     I
N       0.0335   0.1158   0.0518     N
N       0.0435   0.4738   0.8124     N
C       0.0457    0.265   0.6849     C
Zn     0.04735  0.84912  0.90052    Zn
H        0.053   0.2036     0.02     H
C       0.0603   0.0554   0.0539     C
C       0.0654   0.2974   0.1686     C
N       0.0691   0.2314   0.1438     N
C       0.0718   0.2186   0.6515     C
C       0.0734   0.1624   0.0224     C
H       0.0759   0.6396   0.6313     H
C       0.0786   0.9044   0.5008     C
N       0.0823   0.1158   0.5518     N
C       0.0874    0.957   0.4713     C
H       0.0879   0.7276   0.5823     H
C        0.089   0.1624   0.5224     C
C        0.091     0.38   0.7481     C
H       0.1074    0.504   0.1654     H
C       0.1164   0.3302   0.7118     C
I      0.12189  0.77142  0.93686     I
C       0.1261   0.6008   0.2138     C
H       0.1268   0.3924   0.2197     H
C       0.1285   0.6908   0.6361     C
H       0.1296   0.5866   0.8792     H
C       0.1304    0.043   0.0287     C
I      0.13277   0.9619  0.85877     I
C       0.1334   0.3472   0.2026     C
C        0.136   0.7426   0.6064     C
C       0.1361   0.4846   0.8065     C
I      0.13961  0.77136  0.41354     I
C       0.1436    0.154    0.995     C
C       0.1468   0.2186   0.1515     C
H        0.148   0.9994   0.4689     H
H       0.1486   0.0006   0.0311     H
H       0.1506   0.2036     0.52     H
N       0.1508   0.8608   0.5563     N
H       0.1532   0.1746   0.1328     H
C       0.1545   0.5486   0.1852     C
N       0.1623   0.2314   0.6438     N
N        0.163   0.4414   0.7733     N
C       0.1657   0.9118   0.5284     C
H       0.1697   0.1878   0.9739     H
I      0.17087   0.0381  0.64123     I
C       0.1742   0.0956   0.9992     C
Zn     0.17632  0.64054  0.71808    Zn
H       0.1803   0.6278    0.359     H
H       0.1809      0.7   0.2645     H
I      0.18795  0.72908  0.79491     I
N       0.1932    0.712   0.6707     N
C       0.1948    0.594   0.8747     C
C       0.1973   0.6636   0.2439     C
Zn     0.19823  0.15088  0.59948    Zn
H       0.2047   0.5318    0.307     H
C       0.2138   0.3302   0.2118     C
C       0.2138   0.3472   0.7026     C
C       0.2153   0.5478   0.8379     C
C       0.2164   0.8172   0.6131     C
C       0.2193    0.265   0.1849     C
C       0.2278   0.8706   0.5812     C
C        0.232   0.2974   0.6686     C
C       0.2372    0.619   0.3631     C
C       0.2508   0.5614    0.332     C
C       0.2512   0.5612   0.1856     C
N        0.252   0.9686   0.5233     N
C       0.2539   0.0882   0.9716     C
H        0.255   0.6804   0.9292     H
H       0.2568   0.5272   0.6643     H
I      0.26114   0.6823  0.51793     I
H       0.2656   0.3924   0.7197     H
C       0.2676    0.782   0.6775     C
Zn     0.26907   0.7394    0.448    Zn
C       0.2695   0.6498    0.904     C
H       0.2704   0.5272   0.1643     H
H       0.2729    0.252   0.1892     H
N       0.2784   0.4414   0.2733     N
C       0.2808   0.8348   0.6485     C
N       0.2834   0.0314   0.9767     N
C        0.289     0.38   0.2481     C
N         0.29   0.1392   0.9437     N
C       0.2911   0.6708   0.2429     C
H       0.2976     0.31   0.6621     H
N       0.2996   0.6628   0.3984     N
N       0.3015    0.621   0.7156     N
C         0.31   0.5612   0.6856     C
C       0.3106   0.5614    0.832     C
H       0.3131   0.7966   0.7027     H
N       0.3166   0.9278   0.5799     N
N       0.3195    0.621   0.2156     N
C       0.3251   0.9742   0.5504     C
H       0.3271   0.5318    0.807     H
C       0.3325   0.5478   0.3379     C
H       0.3349   0.9402   0.0112     H
H       0.3363   0.8844   0.6538     H
H       0.3393   0.7142   0.2629     H
C       0.3485   0.4846   0.3065     C
I      0.35047  0.22858  0.56314     I
C       0.3509   0.0258   0.9496     C
C       0.3572   0.1294   0.9188     C
H       0.3603   0.2724   0.9177     H
N       0.3632   0.6628   0.8984     N
N       0.3662   0.3628   0.2524     N
C        0.368    0.925   0.9871     C
I      0.36825  0.22864  0.08646     I
H       0.3716    0.859   0.3939     H
H       0.3749   0.7142   0.7629     H
C       0.3797   0.6708   0.7429     C
C       0.3803   0.6498    0.404     C
C       0.3818    0.619   0.8631     C
H       0.3856   0.8376    0.014     H
C       0.3858   0.9632   0.9528     C
N       0.3888   0.0722   0.9201     N
C       0.3934   0.2574   0.8936     C
C       0.3941   0.5486   0.6852     C
H       0.3947   0.0598   0.4888     H
H       0.3966    0.504   0.6654     H
C       0.3968   0.8628   0.9886     C
N       0.3991   0.8396   0.4539     N
C       0.3992   0.1828   0.8869     C
C       0.3992    0.594   0.3747     C
C       0.4194   0.8768   0.4185     C
I      0.42116   0.6823  0.01793     I
C       0.4226   0.0368   0.5472     C
H       0.4254   0.6804   0.4292     H
N       0.4303   0.4738   0.3124     N
C       0.4329   0.9404   0.9164     C
C       0.4355   0.4126    0.284     C
H       0.4363   0.3604   0.8687     H
C       0.4377   0.3092   0.8639     C
N       0.4405   0.8396   0.9539     N
C        0.443    0.075   0.5129     C
C        0.446   0.1652   0.8515     C
H       0.4472    0.967   0.8916     H
H       0.4475   0.6278    0.859     H
H       0.4519   0.1156   0.8462     H
H        0.452   0.8376    0.514     H
H        0.457   0.5866   0.3792     H
C       0.4574   0.8768   0.9185     C
I      0.45887  0.27092  0.70509     I
Zn     0.46422  0.64054  0.21808    Zn
C        0.466   0.8628   0.4886     C
C       0.4663   0.6636   0.7439     C
Zn     0.47033   0.7394    0.948    Zn
C       0.4747   0.6008   0.7138     C
H       0.4802    0.033   0.6084     H
I      0.48042  0.51132  0.18777     I
H       0.4809      0.3   0.2355     H
N       0.4812    0.288   0.8293     N
H       0.4835   0.7966   0.2027     H
C       0.4856    0.218   0.8225     C
H       0.4874    0.859   0.8939     H
C       0.4925   0.0596   0.5836     C
C       0.5075   0.9404   0.4164     C
H       0.5126    0.141   0.1061     H
C       0.5144    0.782   0.1775     C
H       0.5165   0.2034   0.7973     H
N       0.5188    0.712   0.1707     N
H       0.5191      0.7   0.7645     H
I      0.51958  0.48868  0.81223     I
H       0.5198    0.967   0.3916     H
C       0.5253   0.3992   0.2862     C
Zn     0.52967   0.2606    0.052    Zn
C       0.5337   0.3364   0.2561     C
C        0.534   0.1372   0.5114     C
Zn     0.53578  0.35946  0.78192    Zn
I      0.54113  0.72908  0.29491     I
C       0.5426   0.1232   0.0815     C
H        0.543   0.4134   0.6208     H
H        0.548   0.1624    0.486     H
H       0.5481   0.8844   0.1538     H
H       0.5525   0.3722    0.141     H
H       0.5528    0.033   0.1084     H
C        0.554   0.8348   0.1485     C
C        0.557    0.925   0.4871     C
N       0.5595   0.1604   0.0461     N
C       0.5623   0.6908   0.1361     C
H       0.5637   0.6396   0.1313     H
C       0.5645   0.5874    0.716     C
C       0.5671   0.0596   0.0836     C
N       0.5697   0.5262   0.6876     N
H       0.5746   0.3196   0.5708     H
C       0.5774   0.9632   0.4528     C
I      0.57884   0.3177  0.98207     I
C       0.5806   0.1232   0.5815     C
C       0.6008    0.406   0.6253     C
C       0.6008   0.8172   0.1131     C
N       0.6009   0.1604   0.5461     N
C       0.6032   0.1372   0.0114     C
H       0.6034    0.496   0.3346     H
H       0.6053   0.9402   0.5112     H
C       0.6059   0.4514   0.3148     C
C       0.6066   0.7426   0.1064     C
N       0.6112   0.9278   0.0799     N
C       0.6142   0.0368   0.0472     C
H       0.6144   0.1624    0.986     H
C       0.6182    0.381   0.1369     C
C       0.6197   0.3502    0.596     C
C       0.6203   0.3292   0.2571     C
H       0.6251   0.2858   0.2371     H
H       0.6284    0.141   0.6061     H
I      0.63175  0.77136  0.91354     I
C        0.632    0.075   0.0129     C
N       0.6338   0.6372   0.7476     N
N       0.6368   0.3372   0.1016     N
H       0.6397   0.7276   0.0823     H
C       0.6428   0.8706   0.0812     C
C       0.6491   0.9742   0.0504     C
I      0.64953  0.77142  0.43686     I
C       0.6515   0.5154   0.6935     C
H       0.6607   0.2858   0.7371     H
H       0.6637   0.1156   0.3462     H
H       0.6651   0.0598   0.9888     H
C       0.6675   0.4522   0.6621     C
H       0.6729   0.4682    0.193     H
C       0.6749   0.0258   0.4496     C
N       0.6805    0.379   0.7844     N
N       0.6834   0.0722   0.4201     N
H       0.6869   0.2034   0.2973     H
C       0.6894   0.4386    0.168     C
C         0.69   0.4388   0.3144     C
N       0.6985    0.379   0.2844     N
N       0.7004   0.3372   0.6016     N
H       0.7024     0.69   0.3379     H
C       0.7089   0.3292   0.7571     C
N         0.71   0.8608   0.0563     N
C        0.711     0.62   0.7519     C
N       0.7166   0.9686   0.0233     N
C       0.7192   0.1652   0.3515     C
N       0.7216   0.5586   0.7267     N
H       0.7271    0.748   0.8108     H
H       0.7296   0.4728   0.8357     H
C       0.7305   0.3502    0.096     C
Zn     0.73093   0.2606    0.552    Zn
C       0.7324    0.218   0.3225     C
H       0.7344   0.6076   0.2803     H
I      0.73886   0.3177  0.48207     I
H       0.7432   0.4728   0.3357     H
H        0.745   0.3196   0.0708     H
C       0.7461   0.9118   0.0284     C
N        0.748   0.0314   0.4767     N
C       0.7488   0.4388   0.8144     C
C       0.7492   0.4386    0.668     C
C       0.7628    0.381   0.6369     C
C        0.768   0.7026   0.3314     C
C       0.7722   0.1294   0.4188     C
C       0.7807    0.735   0.8151     C
C       0.7836   0.1828   0.3869     C
C       0.7847   0.4522   0.1621     C
C       0.7862   0.6528   0.2974     C
C       0.7862   0.6698   0.7882     C
H       0.7953   0.4682    0.693     H
Zn     0.80177  0.84912  0.40052    Zn
C       0.8027   0.3364   0.7561     C
C       0.8052    0.406   0.1253     C
N       0.8068    0.288   0.3293     N
I      0.81205  0.27092  0.20509     I
H       0.8191      0.3   0.7355     H
H       0.8197   0.3722    0.641     H
Zn     0.82368  0.35946  0.28192    Zn
C       0.8258   0.9044   0.0008     C
I      0.82913   0.9619  0.35877     I
H       0.8303   0.8122   0.0261     H
C       0.8343   0.0882   0.4716     C
N        0.837   0.5586   0.2267     N
N       0.8377   0.7686   0.3562     N
C       0.8455   0.4514   0.8148     C
H       0.8468   0.8254   0.8672     H
N       0.8492   0.1392   0.4437     N
H       0.8494   0.7964     0.48     H
H       0.8514   0.9994   0.9689     H
H        0.852   0.0006   0.5311     H
C       0.8532   0.7814   0.8485     C
C       0.8564    0.846    0.005     C
I      0.86039  0.22864  0.58646     I
C       0.8639   0.5154   0.1935     C
C        0.864   0.2574   0.3936     C
C       0.8666   0.6528   0.7974     C
I      0.86723   0.0381  0.14123     I
C       0.8696    0.957   0.9713     C
H       0.8704   0.4134   0.1208     H
C       0.8715   0.3092   0.3639     C
H       0.8732   0.6076   0.7803     H
C       0.8739   0.3992   0.7862     C
I      0.87811  0.22858  0.06314     I
C       0.8836   0.6698   0.2882     C
H       0.8926    0.496   0.8346     H
C        0.909     0.62   0.2519     C
C        0.911   0.8376   0.4776     C
H       0.9121   0.2724   0.4177     H
C       0.9126    0.043   0.5287     C
N       0.9177   0.8842   0.4482     N
C       0.9214   0.0956   0.4992     C
H       0.9241   0.3604   0.3687     H
C       0.9266   0.8376   0.9776     C
C       0.9282   0.7814   0.3485     C
N       0.9309   0.7686   0.8562     N
C       0.9346   0.7026   0.8314     C
C       0.9397   0.9446   0.9461     C
H        0.947   0.7964     0.98     H
Zn     0.95265  0.15088  0.09948    Zn
C       0.9543    0.735   0.3151     C
N       0.9565   0.5262   0.1876     N
N       0.9665   0.8842   0.9482     N
I       0.9691  0.48868  0.31223     I
H       0.9708     0.98   0.9263     H
C       0.9771   0.4126    0.784     C
H       0.9786   0.8254   0.3672     H
H       0.9791    0.252   0.6892     H
H       0.9819   0.8122   0.5261     H
H       0.9876     0.69   0.8379     H
C       0.9896    0.846    0.505     C
H       0.9908     0.02   0.5737     H
C       0.9951   0.0554   0.5539     C
N       0.9966   0.3628   0.7524     N
