data_I
_chemical_name_common  '/home/zhangsd/repos/MofS-CGCNN/ML/data/SSD/clean_cifs/FAWCEN01_SL'
_cell_length_a 14.64640
_cell_length_b 14.64640
_cell_length_c 14.64640
_cell_angle_alpha 109.47120
_cell_angle_beta  109.47120
_cell_angle_gamma 109.47120
_space_group_name_H-M_alt      'P 1'


loop_
_space_group_symop_operation_xyz
  'x, y, z' 

loop_
_atom_site_label
_atom_site_fract_x
_atom_site_fract_y
_atom_site_fract_z
_atom_site_type_symbol
C         -0.0   0.3161   0.5103     C
C         -0.0   0.3694   0.6164     C
C          0.0   0.5103   0.3161     C
C          0.0   0.6164   0.3694     C
H      0.04494  0.26637  0.51758     H
H      0.04494  0.38355  0.49379     H
H      0.04494  0.49379  0.38355     H
H      0.04494  0.51758  0.26637     H
C       0.0558   0.4753   0.7901     C
C       0.0558   0.7901   0.4753     C
N       0.0928   0.4438   0.7154     N
N       0.0928   0.7154   0.4438     N
H       0.1011   0.5267   0.8662     H
H       0.1011   0.8662   0.5267     H
H       0.1338   0.2349   0.6605     H
H       0.1338   0.6605   0.2349     H
H      0.13502   0.6967  0.62233     H
H      0.14525  0.62758  0.70847     H
C       0.1942   0.6839   0.6839     C
C       0.2099   0.2657   0.6852     C
C       0.2099   0.6852   0.2657     C
H       0.2349   0.1338   0.6605     H
H       0.2349   0.6605   0.1338     H
H       0.2381  0.50001   0.0062     H
C        0.247   0.6306   0.6306     C
Zn        0.25      0.5     0.75    Zn
Zn        0.25     0.75      0.5    Zn
H      0.25211  0.91043  0.43957     H
H      0.26189  0.76824  0.76172     H
C       0.2657   0.2099   0.6852     C
C       0.2657   0.6852   0.2099     C
N       0.2716   0.5562    0.649     N
N       0.2716    0.649   0.5562     N
H      0.27252  0.05123  0.52011     H
N       0.2846   0.3774   0.7284     N
N       0.2846   0.7284   0.3774     N
H      0.29182  0.43681  0.91925     H
C       0.3148   0.5247   0.5805     C
C       0.3148   0.5805   0.5247     C
C       0.3161      0.0   0.5103     C
C       0.3161   0.5103     -0.0     C
H       0.3395   0.4733   0.5744     H
H       0.3395   0.5744   0.4733     H
N        0.351   0.6226   0.9072     N
N        0.351   0.9072   0.6226     N
C       0.3694      0.0   0.6164     C
C       0.3694   0.6164     -0.0     C
N       0.3774   0.2846   0.7284     N
N       0.3774   0.7284   0.2846     N
H      0.37755  0.51282  0.07455     H
H      0.38285  0.03834  0.48996     H
C       0.3836   0.3836    0.753     C
C       0.3836    0.753   0.3836     C
C       0.4195   0.7343   0.9442     C
C       0.4195   0.9442   0.7343     C
H       0.4256   0.7651   0.8989     H
H       0.4256   0.8989   0.7651     H
H      0.43623  0.27791   0.9136     H
H      0.43886  0.92757  0.30633     H
N       0.4438   0.0928   0.7154     N
N       0.4438   0.7154   0.0928     N
H       0.4733   0.3395   0.5744     H
H       0.4733   0.5744   0.3395     H
C       0.4753   0.0558   0.7901     C
C       0.4753   0.7901   0.0558     C
H      0.48116  0.56346    0.852     H
C       0.4897   0.4897   0.8058     C
C       0.4897   0.8058   0.4897     C
H      0.49193  0.99014  0.23032     H
H      0.49257  0.74032  0.51435     H
H      0.49402  0.87584  0.55864     H
Zn         0.5     0.25     0.75    Zn
Zn         0.5     0.75     0.25    Zn
H      0.50598  0.38182  0.06463     H
H      0.50743  0.24774  0.02178     H
H      0.50807   0.4982  0.73838     H
C       0.5103     -0.0   0.3161     C
C       0.5103   0.3161     -0.0     C
H      0.51884  0.08229  0.37083     H
C       0.5247   0.3148   0.5805     C
C       0.5247   0.5805   0.3148     C
H       0.5267   0.1011   0.8662     H
H       0.5267   0.8662   0.1011     H
N       0.5562   0.2716    0.649     N
N       0.5562    0.649   0.2716     N
H      0.56114   0.4887  0.86746     H
H      0.56377  0.84168  0.47737     H
H       0.5744   0.3395   0.4733     H
H       0.5744   0.4733   0.3395     H
C       0.5805   0.3148   0.5247     C
C       0.5805   0.5247   0.3148     C
C       0.6164     -0.0   0.3694     C
C       0.6164   0.3694      0.0     C
H      0.61715  0.65549  0.10711     H
H      0.62244  0.13526  0.69699     H
N       0.6226    0.351   0.9072     N
N       0.6226   0.9072    0.351     N
C       0.6306    0.247   0.6306     C
C       0.6306   0.6306    0.247     C
N        0.649   0.2716   0.5562     N
N        0.649   0.5562   0.2716     N
H       0.6605   0.1338   0.2349     H
H       0.6605   0.2349   0.1338     H
C       0.6839   0.1942   0.6839     C
C       0.6839   0.6839   0.1942     C
C       0.6852   0.2099   0.2657     C
C       0.6852   0.2657   0.2099     C
H      0.70818  0.14499  0.62743     H
N       0.7154   0.0928   0.4438     N
N       0.7154   0.4438   0.0928     N
H      0.72748  0.77871  0.24759     H
N       0.7284   0.2846   0.3774     N
N       0.7284   0.3774   0.2846     N
C       0.7343   0.4195   0.9442     C
C       0.7343   0.9442   0.4195     C
H      0.73811  0.50635  0.49983     H
H      0.74789  0.65832  0.18746     H
Zn        0.75     0.25      0.5    Zn
Zn        0.75      0.5     0.25    Zn
C        0.753   0.3836   0.3836     C
H       0.7619  0.26191   0.7681     H
H       0.7651   0.4256   0.8989     H
H       0.7651   0.8989   0.4256     H
C       0.7901   0.0558   0.4753     C
C       0.7901   0.4753   0.0558     C
C       0.8058   0.4897   0.4897     C
H      0.85475  0.48233  0.56322     H
H      0.86498  0.56168  0.48732     H
H       0.8662   0.1011   0.5267     H
H       0.8662   0.5267   0.1011     H
H       0.8989   0.4256   0.7651     H
H       0.8989   0.7651   0.4256     H
N       0.9072    0.351   0.6226     N
N       0.9072   0.6226    0.351     N
H      0.91012  0.25756  0.43828     H
H      0.91012  0.43828  0.25755     H
C       0.9442   0.4195   0.7343     C
C       0.9442   0.7343   0.4195     C
