data_I
_chemical_name_common  '/home/zhangsd/repos/MofS-CGCNN/ML/data/SSD/clean_cifs/FAWCEN02_SL'
_cell_length_a 14.71640
_cell_length_b 14.71640
_cell_length_c 14.71640
_cell_angle_alpha 109.47120
_cell_angle_beta  109.47120
_cell_angle_gamma 109.47120
_space_group_name_H-M_alt      'P 1'


loop_
_space_group_symop_operation_xyz
  'x, y, z' 

loop_
_atom_site_label
_atom_site_fract_x
_atom_site_fract_y
_atom_site_fract_z
_atom_site_type_symbol
C         -0.0    0.319   0.5098     C
C         -0.0   0.3698   0.6166     C
C          0.0   0.5098    0.319     C
C          0.0   0.6166   0.3698     C
H        0.003  0.47266  0.37594     H
H      0.02081  0.38301  0.48188     H
C       0.0561    0.471   0.7879     C
C       0.0561   0.7879    0.471     C
H      0.06494  0.29157  0.52314     H
H      0.07592  0.52679  0.30793     H
N       0.0936   0.4432   0.7158     N
N       0.0936   0.7158   0.4432     N
H       0.0972  0.63106  0.62087     H
H       0.1009   0.5209    0.864     H
H       0.1009    0.864   0.5209     H
H        0.136   0.2369   0.6569     H
H        0.136   0.6569   0.2369     H
C       0.1908    0.681    0.681     C
H      0.20842  0.68007  0.76212     H
C       0.2121   0.2682   0.6831     C
C       0.2121   0.6831   0.2682     C
H      0.22419  0.77052  0.69865     H
H      0.23059   0.9262  0.45235     H
H      0.23448   0.4487  0.92108     H
H       0.2369    0.136   0.6569     H
H       0.2369   0.6569    0.136     H
C       0.2468   0.6302   0.6302     C
Zn        0.25      0.5     0.75    Zn
Zn        0.25     0.75      0.5    Zn
C       0.2682   0.2121   0.6831     C
C       0.2682   0.6831   0.2121     C
N       0.2726   0.5568   0.6504     N
N       0.2726   0.6504   0.5568     N
N       0.2842   0.3778   0.7274     N
N       0.2842   0.7274   0.3778     N
H      0.30793  0.52679  0.07592     H
C       0.3169    0.529   0.5851     C
C       0.3169   0.5851    0.529     C
H      0.31692  0.08067  0.52805     H
C        0.319      0.0   0.5098     C
C        0.319   0.5098     -0.0     C
H       0.3431   0.4791     0.58     H
H       0.3431     0.58   0.4791     H
N       0.3496   0.6222   0.9064     N
N       0.3496   0.9064   0.6222     N
C       0.3698      0.0   0.6166     C
C       0.3698   0.6166     -0.0     C
H      0.37084  0.99313  0.46776     H
H      0.37594  0.47266    0.003     H
N       0.3778   0.2842   0.7274     N
N       0.3778   0.7274   0.2842     N
C       0.3834   0.3834   0.7532     C
C       0.3834   0.7532   0.3834     C
C       0.4149   0.7318   0.9439     C
C       0.4149   0.9439   0.7318     C
H         0.42   0.7631   0.8991     H
H         0.42   0.8991   0.7631     H
H      0.44314  0.24378  0.91426     H
N       0.4432   0.0936   0.7158     N
N       0.4432   0.7158   0.0936     N
H      0.45235   0.9262  0.23059     H
H      0.46776  0.99313  0.37084     H
C        0.471   0.0561   0.7879     C
C        0.471   0.7879   0.0561     C
H      0.47301   0.5624  0.82635     H
H       0.4791   0.3431     0.58     H
H       0.4791     0.58   0.3431     H
H      0.48188  0.38301  0.02081     H
H      0.48491  0.75418  0.52963     H
C       0.4902   0.4902   0.8092     C
C       0.4902   0.8092   0.4902     C
Zn         0.5     0.25     0.75    Zn
Zn         0.5     0.75     0.25    Zn
H      0.50493  0.89262  0.54966     H
C       0.5098     -0.0    0.319     C
C       0.5098    0.319      0.0     C
H       0.5209   0.1009    0.864     H
H       0.5209    0.864   0.1009     H
H      0.52314  0.29157  0.06494     H
H      0.52798  0.48614  0.75276     H
H      0.52805  0.08067  0.31692     H
C        0.529   0.3169   0.5851     C
C        0.529   0.5851   0.3169     C
H      0.55085   0.5033   0.8911     H
N       0.5568   0.2726   0.6504     N
N       0.5568   0.6504   0.2726     N
H      0.56201   0.8234  0.47256     H
H         0.58   0.3431   0.4791     H
H         0.58   0.4791   0.3431     H
C       0.5851   0.3169    0.529     C
C       0.5851    0.529   0.3169     C
H      0.61232  0.10738  0.65704     H
C       0.6166     -0.0   0.3698     C
C       0.6166   0.3698      0.0     C
H      0.62087  0.63106   0.0972     H
N       0.6222   0.3496   0.9064     N
N       0.6222   0.9064   0.3496     N
C       0.6302   0.2468   0.6302     C
C       0.6302   0.6302   0.2468     C
N       0.6504   0.2726   0.5568     N
N       0.6504   0.5568   0.2726     N
H       0.6569    0.136   0.2369     H
H       0.6569   0.2369    0.136     H
C        0.681   0.1908    0.681     C
C        0.681    0.681   0.1908     C
C       0.6831   0.2121   0.2682     C
C       0.6831   0.2682   0.2121     C
H      0.69865  0.77052  0.22419     H
N       0.7158   0.0936   0.4432     N
N       0.7158   0.4432   0.0936     N
N       0.7274   0.2842   0.3778     N
N       0.7274   0.3778   0.2842     N
H      0.73072  0.24582  0.77545     H
C       0.7318   0.4149   0.9439     C
C       0.7318   0.9439   0.4149     C
H      0.73861   0.1766  0.64916     H
Zn        0.75     0.25      0.5    Zn
Zn        0.75      0.5     0.25    Zn
H      0.75276  0.48614  0.52798     H
C       0.7532   0.3834   0.3834     C
H      0.76212  0.68007  0.20842     H
H       0.7631     0.42   0.8991     H
H       0.7631   0.8991     0.42     H
C       0.7879   0.0561    0.471     C
C       0.7879    0.471   0.0561     C
C       0.8092   0.4902   0.4902     C
H      0.82635   0.5624  0.47301     H
H        0.864   0.1009   0.5209     H
H        0.864   0.5209   0.1009     H
H       0.8911   0.5033  0.55085     H
H       0.8991     0.42   0.7631     H
H       0.8991   0.7631     0.42     H
N       0.9064   0.3496   0.6222     N
N       0.9064   0.6222   0.3496     N
H      0.91426  0.24378  0.44314     H
H      0.92108   0.4487  0.23448     H
C       0.9439   0.4149   0.7318     C
C       0.9439   0.7318   0.4149     C
