data_I
_chemical_name_common  '/home/zhangsd/repos/MofS-CGCNN/ML/data/SSD/clean_cifs/FEHCIG_manual'
_cell_length_a 18.08020
_cell_length_b 18.08020
_cell_length_c 18.08020
_cell_angle_alpha 134.59420
_cell_angle_beta  98.55700
_cell_angle_gamma 98.57630
_space_group_name_H-M_alt      'P 1'


loop_
_space_group_symop_operation_xyz
  'x, y, z' 

loop_
_atom_site_label
_atom_site_fract_x
_atom_site_fract_y
_atom_site_fract_z
_atom_site_type_symbol
C       0.0041     0.75   0.7541     C
C        0.005   0.8492   0.7898     C
H       0.0075   0.8435   0.4106     H
C       0.0141    0.811   0.3433     C
H       0.0172   0.8881   0.0069     H
H       0.0206   0.7049   0.0831     H
C       0.0243   0.7331   0.1524     C
C       0.0323   0.3292   0.8433     C
H       0.0356   0.5234    0.865     H
C        0.036    0.286     0.75     C
H       0.0467   0.9176   0.8553     H
H       0.0501   0.5294   0.6123     H
H       0.0539   0.0853    0.245     H
C        0.055   0.1528   0.2704     C
C       0.0594   0.3492   0.3442     C
H       0.0623   0.4176   0.3709     H
C       0.0667     0.75   0.8167     C
H       0.0671   0.4031   0.9106     H
C       0.0738   0.9155   0.0203     C
C       0.0807   0.8719   0.3476     C
H       0.0829   0.9706   0.0207     H
C       0.0833   0.8333     0.25     C
H       0.0925   0.1425   0.5412     H
C        0.093   0.5467   0.9007     C
C       0.0959   0.8208   0.9305     C
C       0.0984   0.3484     0.75     C
H       0.1013   0.5513   0.9588     H
C       0.1048   0.5845   0.6583     C
H       0.1071   0.9502   0.0925     H
C       0.1097   0.6792   0.7751     C
C       0.1149     0.25   0.3649     C
C       0.1176   0.3472   0.4022     C
H       0.1188   0.6119   0.6291     H
H       0.1213   0.6198   0.9341     H
H       0.1218   0.9375   0.4169     H
C       0.1243   0.4657   0.8176     C
O       0.1352   0.8681   0.1631     O
H       0.1423   0.5498   0.6569     H
C        0.146   0.1923   0.5993     C
C       0.1461   0.8961     0.25     C
C       0.1481   0.3067   0.6824     C
N        0.153   0.7953   0.9557     N
H       0.1584   0.1706    0.635     H
H       0.1597   0.4147   0.4686     H
N       0.1604   0.7047   0.8577     N
O       0.1754   0.1556   0.3878     O
C        0.178     0.25    0.428     C
N       0.1799   0.4876   0.7893     N
H       0.1857   0.1872   0.5659     H
N       0.1983   0.3906   0.7107     N
O        0.205   0.9721   0.3369     O
Zn     0.21824  0.87097  0.10425    Zn
O       0.2322   0.3444   0.5198     O
Zn     0.23328  0.62903  0.84727    Zn
Zn     0.26672  0.11399  0.39575    Zn
O       0.2678   0.7876   0.1122     O
Zn     0.28176  0.38601  0.65273    Zn
O        0.295   0.6319   0.7671     O
N       0.3017   0.0124   0.1923     N
H       0.3143   0.8802   0.0015     H
N       0.3201   0.1094   0.3077     N
C        0.322     0.75    0.072     C
O       0.3246   0.7124   0.9802     O
N       0.3396   0.1973   0.5443     N
H       0.3403   0.8089    0.255     H
H       0.3416   0.9766   0.0122     H
N        0.347   0.3027   0.6423     N
C       0.3519   0.0343   0.1586     C
C       0.3539   0.6039     0.75     C
C        0.354   0.9533   0.0463     C
H       0.3577   0.0146   0.4075     H
O       0.3648   0.5279   0.7329     O
C       0.3757   0.1933   0.3414     C
H       0.3782   0.7951   0.8157     H
H       0.3787   0.3128   0.4985     H
H       0.3812   0.0103   0.4931     H
C       0.3824   0.7846   0.2296     C
C       0.3851     0.75   0.1351     C
C       0.3903   0.1654   0.5695     C
H       0.3929   0.4854   0.8431     H
C       0.3952   0.0535   0.4797     C
H       0.3987   0.3575     0.45     H
C       0.4016   0.1516     0.25     C
C       0.4041   0.3346   0.7249     C
C        0.407   0.3077   0.4537     C
H       0.4075   0.9487     0.05     H
C       0.4167   0.6667     0.75     C
H       0.4171   0.4378   0.8877     H
C       0.4193   0.7669   0.7912     C
C       0.4262   0.4465   0.8417     C
H       0.4329   0.3435    0.336     H
C       0.4333     0.25   0.6833     C
H       0.4377   0.8086   0.3553     H
C       0.4406   0.7848   0.2898     C
C        0.445   0.7154   0.0978     C
H       0.4461   0.6911   0.0314     H
H       0.4499   0.0622   0.4793     H
H       0.4533   0.3086   0.8709     H
C        0.464    0.214     0.25     C
H       0.4644   0.3294   0.4878     H
C       0.4677    0.311   0.2969     C
C       0.4757   0.6281   0.7088     C
H       0.4794   0.5625   0.6843     H
H       0.4828   0.4897   0.8709     H
C       0.4859   0.8292   0.7969     C
H       0.4925   0.9031    0.836     H
C        0.495   0.2848   0.8442     C
C       0.4959     0.25   0.7459     C
C       0.5041     0.75   0.2541     C
C        0.505   0.7152   0.1558     C
H       0.5075   0.0969    0.164     H
C       0.5141   0.1708   0.2031     C
H       0.5172   0.5103   0.1291     H
H       0.5206   0.4375   0.3157     H
C       0.5243   0.3719   0.2912     C
C       0.5323    0.689   0.7031     C
H       0.5356   0.6706   0.5122     H
C        0.536    0.786     0.75     C
H       0.5467   0.6914   0.1291     H
H       0.5501   0.9378   0.5207     H
H       0.5539   0.3089   0.9686     H
C        0.555   0.2846   0.9022     C
C       0.5594   0.2152   0.7102     C
H       0.5623   0.1914   0.6447     H
C       0.5667     0.75   0.3167     C
H       0.5671   0.6565    0.664     H
C       0.5738   0.5535   0.1583     C
C       0.5807   0.2331   0.2088     C
H       0.5829   0.5622   0.1123     H
C       0.5833   0.3333     0.25     C
H       0.5925   0.0513     0.95     H
C        0.593   0.6923   0.5463     C
C       0.5959   0.6654   0.2751     C
C       0.5984   0.8484     0.75     C
H       0.6013   0.6425     0.55     H
C       0.6048   0.9465   0.5203     C
H       0.6071   0.5146   0.1569     H
C       0.6097   0.8346   0.4305     C
C       0.6149     0.25   0.8649     C
C       0.6176   0.2154   0.7704     C
H       0.6188   0.9897   0.5069     H
H       0.6213   0.6872   0.5015     H
H       0.6218   0.2049   0.1843     H
C       0.6243   0.8067   0.6586     C
O       0.6352   0.4721   0.2671     O
H       0.6423   0.9854   0.5925     H
C        0.646   0.0467   0.9537     C
C       0.6461   0.3961     0.25     C
C       0.6481   0.9657   0.8414     C
N        0.653   0.6973   0.3577     N
H       0.6584   0.0234   0.9878     H
H       0.6597   0.1911    0.745     H
N       0.6604   0.8027   0.4557     N
O       0.6754   0.2876   0.0198     O
C        0.678     0.25    0.928     C
N       0.6799   0.8906   0.6923     N
H       0.6857   0.1198   0.9985     H
N       0.6983   0.9876   0.8077     N
O        0.705   0.3681   0.2329     O
Zn     0.71824  0.61399  0.34727    Zn
O       0.7322   0.2124   0.8878     O
Zn     0.73328  0.88601  0.60425    Zn
Zn     0.76672  0.37097  0.15273    Zn
O       0.7678   0.6556   0.4802     O
Zn     0.78176  0.12903  0.89575    Zn
O        0.795   0.0279   0.6631     O
N       0.8017   0.6094   0.2893     N
H       0.8143   0.8128   0.4341     H
N       0.8201   0.5124   0.2107     N
C        0.822     0.75    0.572     C
O       0.8246   0.8444   0.6122     O
N       0.8396   0.2953   0.1423     N
H       0.8403   0.5853   0.5314     H
H       0.8416   0.8294    0.365     H
N        0.847   0.2047   0.0443     N
C       0.8519   0.6933   0.3176     C
C       0.8539   0.1039     0.75     C
C        0.854   0.8077   0.4007     C
H       0.8577   0.4502   0.3431     H
O       0.8648   0.1319   0.8369     O
C       0.8757   0.5343   0.1824     C
H       0.8782   0.0625   0.5831     H
H       0.8787   0.3802   0.0659     H
H       0.8812   0.3881   0.3709     H
C       0.8824   0.6528   0.5978     C
C       0.8851     0.75   0.6351     C
C       0.8903   0.3208   0.2249     C
H       0.8929   0.0498   0.9075     H
C       0.8952   0.4155   0.3417     C
H       0.8987   0.4487   0.0412     H
C       0.9016   0.6516     0.25     C
C       0.9041   0.1792   0.0695     C
C        0.907   0.4533   0.0993     C
H       0.9075   0.8575   0.4588     H
C       0.9167   0.1667     0.75     C
H       0.9171   0.0294   0.9793     H
C       0.9193   0.1281   0.6524     C
C       0.9262   0.0845   0.9797     C
H       0.9329   0.5969   0.0894     H
C       0.9333     0.25   0.1833     C
H       0.9377   0.5824   0.6291     H
C       0.9406   0.6508   0.6558     C
C        0.945   0.8472   0.7296     C
H       0.9461   0.9147    0.755     H
H       0.9499   0.4706   0.3877     H
H       0.9533   0.0824   0.1447     H
C        0.964    0.714     0.25     C
H       0.9644   0.4766    0.135     H
C       0.9677   0.6708   0.1567     C
C       0.9757   0.2669   0.8476     C
H       0.9794   0.2951   0.9169     H
H       0.9828   0.1119   0.9931     H
C       0.9859    0.189   0.6567     C
H       0.9925   0.1565   0.5894     H
C        0.995   0.1508   0.2102     C
C       0.9959     0.25   0.2459     C
