data_I
_chemical_name_common  '/home/zhangsd/repos/MofS-CGCNN/ML/data/SSD/clean_cifs/FERVIJ_clean'
_cell_length_a  9.75120
_cell_length_b 15.85470
_cell_length_c 15.85470
_cell_angle_alpha 64.09020
_cell_angle_beta  78.16980
_cell_angle_gamma 101.83000
_space_group_name_H-M_alt      'P 1'


loop_
_space_group_symop_operation_xyz
  'x, y, z' 

loop_
_atom_site_label
_atom_site_fract_x
_atom_site_fract_y
_atom_site_fract_z
_atom_site_type_symbol
Fe         0.0      0.0      0.5    Fe
Fe         0.0      0.5      0.0    Fe
C       0.0153   0.6439   0.0846     C
C       0.0153   0.9154   0.3561     C
H        0.024   0.1442   0.5838     H
H        0.024   0.4162   0.8558     H
H       0.0242   0.7289   0.1489     H
H       0.0242   0.8511   0.2711     H
N       0.0402   0.6418     -0.0     N
N       0.0402      1.0   0.3582     N
C       0.0448   0.7306   0.0882     C
C       0.0448   0.9118   0.2694     C
N       0.0906   0.4419   0.1175     N
N       0.0906   0.8825   0.5581     N
C       0.0999   0.0846   0.2715     C
C       0.0999   0.7285   0.9154     C
C      0.10585      0.0  0.17985     C
C      0.10585  0.82015     -0.0     C
N       0.1086   0.9121   0.0879     N
H       0.1202   0.1442    0.272     H
H       0.1202    0.728   0.8558     H
C        0.133   0.0882   0.1812     C
C        0.133   0.4242   0.1826     C
C        0.133   0.8174   0.5758     C
C        0.133   0.8188   0.9118     C
C      0.13995      0.0  0.08325     C
C      0.13995  0.91675      0.0     C
H       0.1731   0.1489   0.1222     H
H       0.1731   0.8778   0.8511     H
N       0.1965   0.0879      0.0     N
N       0.1965      1.0   0.9121     N
Au     0.20784  0.41568  0.29216    Au
Au     0.20784  0.70784  0.58432    Au
N       0.2081   0.1175   0.4406     N
N       0.2081   0.5594   0.8825     N
C       0.2232  0.08325  0.91675     C
C       0.2857  0.17985  0.82015     C
C       0.2912   0.4242   0.3932     C
C       0.2912   0.6068   0.5758     C
H       0.2953   0.1222   0.7289     H
H       0.2953   0.2711   0.8778     H
C       0.3142   0.1812   0.7306     C
C       0.3142   0.2694   0.8188     C
C       0.3156   0.1826   0.3932     C
C       0.3156   0.6068   0.8174     C
N       0.3513   0.4419   0.4406     N
N       0.3513   0.5594   0.5581     N
C       0.3714   0.2715   0.6439     C
C       0.3714   0.3561   0.7285     C
H       0.3922    0.272   0.5838     H
H       0.3922   0.4162    0.728     H
N       0.3984   0.3582   0.6418     N
Au         0.5  0.29216  0.29216    Au
Fe         0.5      0.5      0.5    Fe
Au         0.5  0.70784  0.70784    Au
N       0.6016   0.6418   0.3582     N
H       0.6078   0.5838    0.272     H
H       0.6078    0.728   0.4162     H
C       0.6286   0.6439   0.2715     C
C       0.6286   0.7285   0.3561     C
N       0.6487   0.4406   0.4419     N
N       0.6487   0.5581   0.5594     N
C       0.6844   0.3932   0.1826     C
C       0.6844   0.8174   0.6068     C
C       0.6858   0.7306   0.1812     C
C       0.6858   0.8188   0.2694     C
H       0.7047   0.7289   0.1222     H
H       0.7047   0.8778   0.2711     H
C       0.7088   0.3932   0.4242     C
C       0.7088   0.5758   0.6068     C
C       0.7143  0.82015  0.17985     C
C       0.7768  0.91675  0.08325     C
N       0.7919   0.4406   0.1175     N
N       0.7919   0.8825   0.5594     N
Au     0.79216  0.29216  0.41568    Au
Au     0.79216  0.58432  0.70784    Au
N       0.8035      0.0   0.0879     N
N       0.8035   0.9121      0.0     N
H       0.8269   0.1222   0.1489     H
H       0.8269   0.8511   0.8778     H
C      0.86005  0.08325      0.0     C
C      0.86005      1.0  0.91675     C
C        0.867   0.1812   0.0882     C
C        0.867   0.1826   0.4242     C
C        0.867   0.5758   0.8174     C
C        0.867   0.9118   0.8188     C
H       0.8798    0.272   0.1442     H
H       0.8798   0.8558    0.728     H
N       0.8914   0.0879   0.9121     N
C      0.89415      0.0  0.82015     C
C      0.89415  0.17985      0.0     C
C       0.9001   0.2715   0.0846     C
C       0.9001   0.9154   0.7285     C
N       0.9094   0.1175   0.4419     N
N       0.9094   0.5581   0.8825     N
C       0.9552   0.0882   0.7306     C
C       0.9552   0.2694   0.9118     C
N       0.9598   0.3582      0.0     N
N       0.9598      1.0   0.6418     N
H       0.9758   0.1489   0.7289     H
H       0.9758   0.2711   0.8511     H
H        0.976   0.5838   0.1442     H
H        0.976   0.8558   0.4162     H
C       0.9847   0.0846   0.6439     C
C       0.9847   0.3561   0.9154     C
