data_I
_chemical_name_common  '/home/zhangsd/repos/MofS-CGCNN/ML/data/SSD/clean_cifs/FERVOP_clean'
_cell_length_a  9.10300
_cell_length_b 15.45370
_cell_length_c 15.45370
_cell_angle_alpha 63.75760
_cell_angle_beta  78.67640
_cell_angle_gamma 101.32400
_space_group_name_H-M_alt      'P 1'


loop_
_space_group_symop_operation_xyz
  'x, y, z' 

loop_
_atom_site_label
_atom_site_fract_x
_atom_site_fract_y
_atom_site_fract_z
_atom_site_type_symbol
Ag         0.0  0.30437  0.30437    Ag
Fe         0.0      0.5      0.5    Fe
Ag         0.0  0.69563  0.69563    Ag
N       0.0793    0.632    0.368     N
H       0.0954   0.5727   0.2787     H
H       0.0954   0.7213   0.4273     H
C        0.113   0.6344    0.278     C
C        0.113    0.722   0.3656     C
N       0.1495   0.4493   0.4439     N
N       0.1495   0.5561   0.5507     N
C       0.1716   0.7226   0.1856     C
C       0.1716   0.8144   0.2774     C
C       0.1878   0.4092   0.1768     C
C       0.1878   0.8232   0.5908     C
H       0.1905   0.7201   0.1255     H
H       0.1905   0.8745   0.2799     H
C        0.203    0.818    0.182     C
C       0.2214   0.4092    0.414     C
C       0.2214    0.586   0.5908     C
C       0.2632   0.9143   0.0857     C
N      0.29445     -0.0  0.08965     N
N      0.29445  0.91035      0.0     N
N       0.2998   0.4493   0.1068     N
N       0.2998   0.8932   0.5507     N
Ag     0.30437  0.30437  0.39126    Ag
Ag     0.30437  0.60874  0.69563    Ag
H        0.316   0.1255   0.1544     H
H        0.316   0.8456   0.8745     H
C       0.3489   0.0857      0.0     C
C       0.3489      1.0   0.9143     C
C       0.3572   0.1856   0.0918     C
C       0.3572   0.9082   0.8144     C
C       0.3646   0.1768    0.414     C
C       0.3646    0.586   0.8232     C
H       0.3741   0.2787   0.1486     H
H       0.3741   0.8514   0.7213     H
N       0.3841  0.08965  0.91035     N
C        0.385    0.182      0.0     C
C        0.385      1.0    0.818     C
C        0.391    0.278   0.0876     C
C        0.391   0.9124    0.722     C
N       0.4066   0.1068   0.4439     N
N       0.4066   0.5561   0.8932     N
N       0.4473     -0.0    0.632     N
N       0.4473    0.368      0.0     N
C        0.449   0.0918   0.7226     C
C        0.449   0.2774   0.9082     C
H       0.4704   0.1544   0.7201     H
H       0.4704   0.2799   0.8456     H
H       0.4773   0.5727   0.1486     H
H       0.4773   0.8514   0.4273     H
C       0.4786   0.0876   0.6344     C
C       0.4786   0.3656   0.9124     C
Fe         0.5     -0.0      0.5    Fe
Fe         0.5      0.5     -0.0    Fe
C       0.5214   0.6344   0.0876     C
C       0.5214   0.9124   0.3656     C
H       0.5227   0.1486   0.5727     H
H       0.5227   0.4273   0.8514     H
H       0.5296   0.7201   0.1544     H
H       0.5296   0.8456   0.2799     H
C        0.551   0.7226   0.0918     C
C        0.551   0.9082   0.2774     C
N       0.5527     -0.0    0.368     N
N       0.5527    0.632     -0.0     N
N       0.5934   0.4439   0.1068     N
N       0.5934   0.8932   0.5561     N
C        0.609   0.0876    0.278     C
C        0.609    0.722   0.9124     C
C        0.615     -0.0    0.182     C
C        0.615    0.818      0.0     C
N       0.6159  0.91035  0.08965     N
H       0.6259   0.1486   0.2787     H
H       0.6259   0.7213   0.8514     H
C       0.6354    0.414   0.1768     C
C       0.6354   0.8232    0.586     C
C       0.6428   0.0918   0.1856     C
C       0.6428   0.8144   0.9082     C
C       0.6511     -0.0   0.0857     C
C       0.6511   0.9143     -0.0     C
H        0.684   0.1544   0.1255     H
H        0.684   0.8745   0.8456     H
Ag     0.69563  0.39126  0.30437    Ag
Ag     0.69563  0.69563  0.60874    Ag
N       0.7002   0.1068   0.4493     N
N       0.7002   0.5507   0.8932     N
N      0.70555     -0.0  0.91035     N
N      0.70555  0.08965     -0.0     N
C       0.7368   0.0857   0.9143     C
C       0.7786    0.414   0.4092     C
C       0.7786   0.5908    0.586     C
C        0.797    0.182    0.818     C
H       0.8095   0.1255   0.7201     H
H       0.8095   0.2799   0.8745     H
C       0.8122   0.1768   0.4092     C
C       0.8122   0.5908   0.8232     C
C       0.8284   0.1856   0.7226     C
C       0.8284   0.2774   0.8144     C
N       0.8505   0.4439   0.4493     N
N       0.8505   0.5507   0.5561     N
C        0.887    0.278   0.6344     C
C        0.887   0.3656    0.722     C
H       0.9046   0.2787   0.5727     H
H       0.9046   0.4273   0.7213     H
N       0.9207    0.368    0.632     N
