data_I
_chemical_name_common  '/home/zhangsd/repos/MofS-CGCNN/ML/data/SSD/clean_cifs/FERVUV_clean'
_cell_length_a 26.24200
_cell_length_b 26.24200
_cell_length_c  9.56440
_cell_angle_alpha 90.00000
_cell_angle_beta  90.00000
_cell_angle_gamma 120.00000
_space_group_name_H-M_alt      'P 1'


loop_
_space_group_symop_operation_xyz
  'x, y, z' 

loop_
_atom_site_label
_atom_site_fract_x
_atom_site_fract_y
_atom_site_fract_z
_atom_site_type_symbol
Ag         0.0   0.2986      0.5    Ag
Fe         0.0      0.5      0.5    Fe
Ag         0.0   0.7014      0.5    Ag
N      0.00163  0.44787  0.35907     N
N      0.00163  0.55377  0.35907     N
C      0.00643  0.41507  0.28517     C
C      0.00643  0.59137  0.28517     C
H      0.00977  0.14383  0.16283     H
H      0.00977  0.86593  0.16283     H
C      0.02888  0.05777  0.83117     C
C      0.02888  0.97112  0.83117     C
N      0.03053  0.06105  0.16793     N
N      0.03053  0.96947  0.16793     N
C      0.03113  0.15397  0.83797     C
C      0.03113  0.87717  0.83797     C
Ag     0.03473  0.36807  0.16667    Ag
Ag     0.03473  0.66667  0.16667    Ag
H      0.04323  0.23627  0.84177     H
H      0.04323  0.80697  0.84177     H
C      0.05777  0.02888  0.16883     C
N      0.06105  0.03053  0.83207     N
C      0.06143  0.12287  0.83687     C
C      0.06143  0.93857  0.83687     C
C      0.06333  0.21547  0.84017     C
C      0.06333  0.84787  0.84017     C
C       0.0753   0.3269   0.6185     C
C       0.0753   0.7484   0.6185     C
C      0.08173  0.33977  0.04817     C
C      0.08173  0.74197  0.04817     C
N      0.08767  0.54383  0.50663     N
H      0.09707  0.47363  0.50843     H
H      0.09707  0.62343  0.50843     H
N       0.1129   0.3317   0.6924     N
N       0.1129   0.7812   0.6924     N
N      0.11453  0.33497  0.97427     N
N      0.11453  0.77957  0.97427     N
C      0.11787  0.51453  0.50683     C
C      0.11787  0.60333  0.50683     C
C      0.12283  0.15397  0.83797     C
N      0.12283  0.24567  0.83997     N
N      0.12283  0.87717  0.83997     N
C      0.12283  0.96887  0.83797     C
C      0.12287  0.06143  0.16313     C
H      0.13407  0.14383  0.16283     H
H      0.13407  0.99023  0.16283     H
H       0.1403   0.4304   0.8249     H
H       0.1403   0.7099   0.8249     H
H      0.14383  0.00977  0.83717     H
H      0.14383  0.13407  0.83717     H
C      0.15213  0.21547  0.84017     C
C      0.15213  0.93667  0.84017     C
C      0.15397  0.03113  0.16203     C
C      0.15397  0.12283  0.16203     C
Fe     0.16667  0.33333  0.83333    Fe
Fe     0.16667  0.83333  0.83333    Fe
C      0.17937  0.54383  0.50463     C
C      0.17937  0.63553  0.50463     C
C       0.1812   0.4512   0.8265     C
C       0.1812     0.73   0.8265     C
H       0.1895   0.5326   0.8295     H
H       0.1895   0.6569   0.8295     H
H      0.19303  0.23627  0.84177     H
H      0.19303  0.95677  0.84177     H
H      0.19927  0.52283  0.50383     H
H      0.19927  0.67643  0.50383     H
C      0.21047  0.60523  0.50353     C
N       0.2105    0.421   0.8267     N
C       0.2105   0.5127   0.8287     C
C       0.2105   0.6978   0.8287     C
N       0.2105   0.7895   0.8267     N
C      0.21547  0.06333  0.15983     C
C      0.21547  0.15213  0.15983     C
N       0.2188   0.3317   0.6924     N
N       0.2188   0.8871   0.6924     N
N      0.22043  0.33497  0.97427     N
N      0.22043  0.88547  0.97427     N
H      0.23627  0.04323  0.15823     H
H      0.23627  0.19303  0.15823     H
N      0.24567  0.12283  0.16003     N
C       0.2516   0.3269   0.6185     C
C       0.2516   0.9247   0.6185     C
C      0.25803  0.33977  0.04817     C
C      0.25803  0.91827  0.04817     C
C         0.27   0.4512   0.8265     C
C         0.27   0.8188   0.8265     C
C       0.2719   0.5438   0.8298     C
C       0.2719   0.7281   0.8298     C
N      0.27228  0.63614   0.8346     N
C      0.27557  0.63778  0.49783     C
H       0.2901   0.4304   0.8249     H
H       0.2901   0.8597   0.8249     H
Ag      0.2986      0.0      0.5    Ag
Ag      0.2986   0.2986      0.5    Ag
C       0.3022   0.5127   0.8287     C
C       0.3022   0.7895   0.8287     C
N      0.30281  0.60561  0.49873     N
N      0.30281  0.69719  0.49873     N
C      0.30445   0.6089   0.8355     C
C      0.30445  0.69555   0.8355     C
H      0.32357  0.52283  0.50383     H
H      0.32357  0.80073  0.50383     H
C       0.3269   0.0753   0.3815     C
C       0.3269   0.2516   0.3815     C
N       0.3317   0.1129   0.3076     N
N       0.3317   0.2188   0.3076     N
Fe     0.33333  0.16667  0.16667    Fe
Ag     0.33333  0.36807  0.16667    Ag
Ag     0.33333  0.96527  0.16667    Ag
N      0.33497  0.11453  0.02573     N
N      0.33497  0.22043  0.02573     N
C      0.33977  0.08173  0.95183     C
C      0.33977  0.25803  0.95183     C
H       0.3431   0.5326   0.8295     H
H       0.3431   0.8105   0.8295     H
C      0.36222  0.63778  0.49783     C
C      0.36222  0.72443  0.49783     C
N      0.36386  0.63614   0.8346     N
N      0.36386  0.72772   0.8346     N
C      0.36447  0.54383  0.50463     C
C      0.36447  0.82063  0.50463     C
Ag     0.36807  0.03473  0.83333    Ag
Ag     0.36807  0.33333  0.83333    Ag
H      0.37657  0.47363  0.50843     H
H      0.37657  0.90293  0.50843     H
C       0.3911  0.69555   0.8355     C
N      0.39439  0.69719  0.49873     N
C      0.39477  0.60523  0.50353     C
C      0.39477  0.78953  0.50353     C
C      0.39667  0.51453  0.50683     C
C      0.39667  0.88213  0.50683     C
C      0.40863  0.41507  0.28517     C
C      0.40863  0.99357  0.28517     C
C      0.41507  0.00643  0.71483     C
C      0.41507  0.40863  0.71483     C
N        0.421   0.2105   0.1733     N
H       0.4304   0.1403   0.1751     H
H       0.4304   0.2901   0.1751     H
N      0.44623  0.44787  0.35907     N
N      0.44623  0.99837  0.35907     N
N      0.44787  0.00163  0.64093     N
N      0.44787  0.44623  0.64093     N
C       0.4512   0.1812   0.1735     C
C       0.4512     0.27   0.1735     C
N      0.45617  0.54383  0.50663     N
C      0.45617  0.63553  0.50463     C
C      0.45617  0.82063  0.50463     C
N      0.45617  0.91233  0.50663     N
C       0.4562   0.7281   0.8298     C
H       0.4674   0.6569   0.8295     H
H       0.4674   0.8105   0.8295     H
H      0.47363  0.09707  0.49157     H
H      0.47363  0.37657  0.49157     H
H      0.47717  0.67643  0.50383     H
H      0.47717  0.80073  0.50383     H
C      0.48547  0.60333  0.50683     C
C      0.48547  0.88213  0.50683     C
C       0.4873   0.6978   0.8287     C
C       0.4873   0.7895   0.8287     C
Fe         0.5      0.0      0.5    Fe
Fe         0.5      0.5      0.5    Fe
C       0.5127   0.2105   0.1713     C
C       0.5127   0.3022   0.1713     C
C      0.51453  0.11787  0.49317     C
C      0.51453  0.39667  0.49317     C
H      0.52283  0.19927  0.49617     H
H      0.52283  0.32357  0.49617     H
H      0.52637  0.62343  0.50843     H
H      0.52637  0.90293  0.50843     H
H       0.5326   0.1895   0.1705     H
H       0.5326   0.3431   0.1705     H
C       0.5438   0.2719   0.1702     C
N      0.54383  0.08767  0.49337     N
C      0.54383  0.17937  0.49537     C
C      0.54383  0.36447  0.49537     C
N      0.54383  0.45617  0.49337     N
C       0.5488     0.73   0.8265     C
C       0.5488   0.8188   0.8265     C
N      0.55213  0.55377  0.35907     N
N      0.55213  0.99837  0.35907     N
N      0.55377  0.00163  0.64093     N
N      0.55377  0.55213  0.64093     N
H       0.5696   0.7099   0.8249     H
H       0.5696   0.8597   0.8249     H
N        0.579   0.7895   0.8267     N
C      0.58493  0.59137  0.28517     C
C      0.58493  0.99357  0.28517     C
C      0.59137  0.00643  0.71483     C
C      0.59137  0.58493  0.71483     C
C      0.60333  0.11787  0.49317     C
C      0.60333  0.48547  0.49317     C
C      0.60523  0.21047  0.49647     C
C      0.60523  0.39477  0.49647     C
N      0.60561  0.30281  0.50127     N
C       0.6089  0.30445   0.1645     C
H      0.62343  0.09707  0.49157     H
H      0.62343  0.52637  0.49157     H
Ag     0.63193  0.66667  0.16667    Ag
Ag     0.63193  0.96527  0.16667    Ag
C      0.63553  0.17937  0.49537     C
C      0.63553  0.45617  0.49537     C
N      0.63614  0.27228   0.1654     N
N      0.63614  0.36386   0.1654     N
C      0.63778  0.27557  0.50217     C
C      0.63778  0.36222  0.50217     C
H       0.6569   0.1895   0.1705     H
H       0.6569   0.4674   0.1705     H
C      0.66023  0.74197  0.04817     C
C      0.66023  0.91827  0.04817     C
N      0.66503  0.77957  0.97427     N
N      0.66503  0.88547  0.97427     N
Ag     0.66667  0.03473  0.83333    Ag
Ag     0.66667  0.63193  0.83333    Ag
Fe     0.66667  0.83333  0.83333    Fe
N       0.6683   0.7812   0.6924     N
N       0.6683   0.8871   0.6924     N
C       0.6731   0.7484   0.6185     C
C       0.6731   0.9247   0.6185     C
H      0.67643  0.19927  0.49617     H
H      0.67643  0.47717  0.49617     H
C      0.69555  0.30445   0.1645     C
C      0.69555   0.3911   0.1645     C
N      0.69719  0.30281  0.50127     N
N      0.69719  0.39439  0.50127     N
C       0.6978   0.2105   0.1713     C
C       0.6978   0.4873   0.1713     C
Ag      0.7014      0.0      0.5    Ag
Ag      0.7014   0.7014      0.5    Ag
H       0.7099   0.1403   0.1751     H
H       0.7099   0.5696   0.1751     H
C      0.72443  0.36222  0.50217     C
N      0.72772  0.36386   0.1654     N
C       0.7281   0.2719   0.1702     C
C       0.7281   0.4562   0.1702     C
C         0.73   0.1812   0.1735     C
C         0.73   0.5488   0.1735     C
C      0.74197  0.08173  0.95183     C
C      0.74197  0.66023  0.95183     C
C       0.7484   0.0753   0.3815     C
C       0.7484   0.6731   0.3815     C
N      0.75433  0.87717  0.83997     N
H      0.76373  0.80697  0.84177     H
H      0.76373  0.95677  0.84177     H
N      0.77957  0.11453  0.02573     N
N      0.77957  0.66503  0.02573     N
N       0.7812   0.1129   0.3076     N
N       0.7812   0.6683   0.3076     N
C      0.78453  0.84787  0.84017     C
C      0.78453  0.93667  0.84017     C
N       0.7895   0.2105   0.1733     N
C       0.7895   0.3022   0.1713     C
C       0.7895   0.4873   0.1713     C
N       0.7895    0.579   0.1733     N
C      0.78953  0.39477  0.49647     C
H      0.80073  0.32357  0.49617     H
H      0.80073  0.47717  0.49617     H
H      0.80697  0.04323  0.15823     H
H      0.80697  0.76373  0.15823     H
H       0.8105   0.3431   0.1705     H
H       0.8105   0.4674   0.1705     H
C       0.8188     0.27   0.1735     C
C       0.8188   0.5488   0.1735     C
C      0.82063  0.36447  0.49537     C
C      0.82063  0.45617  0.49537     C
Fe     0.83333  0.16667  0.16667    Fe
Fe     0.83333  0.66667  0.16667    Fe
C      0.84603  0.87717  0.83797     C
C      0.84603  0.96887  0.83797     C
C      0.84787  0.06333  0.15983     C
C      0.84787  0.78453  0.15983     C
H      0.85617  0.86593  0.16283     H
H      0.85617  0.99023  0.16283     H
H       0.8597   0.2901   0.1751     H
H       0.8597   0.5696   0.1751     H
H      0.86593  0.00977  0.83717     H
H      0.86593  0.85617  0.83717     H
C      0.87713  0.93857  0.83687     C
C      0.87717  0.03113  0.16203     C
N      0.87717  0.12283  0.16003     N
N      0.87717  0.75433  0.16003     N
C      0.87717  0.84603  0.16203     C
C      0.88213  0.39667  0.49317     C
C      0.88213  0.48547  0.49317     C
N      0.88547  0.22043  0.02573     N
N      0.88547  0.66503  0.02573     N
N       0.8871   0.2188   0.3076     N
N       0.8871   0.6683   0.3076     N
H      0.90293  0.37657  0.49157     H
H      0.90293  0.52637  0.49157     H
N      0.91233  0.45617  0.49337     N
C      0.91827  0.25803  0.95183     C
C      0.91827  0.66023  0.95183     C
C       0.9247   0.2516   0.3815     C
C       0.9247   0.6731   0.3815     C
C      0.93667  0.15213  0.15983     C
C      0.93667  0.78453  0.15983     C
C      0.93857  0.06143  0.16313     C
C      0.93857  0.87713  0.16313     C
N      0.93895  0.96947  0.16793     N
C      0.94223  0.97112  0.83117     C
H      0.95677  0.19303  0.15823     H
H      0.95677  0.76373  0.15823     H
Ag     0.96527  0.33333  0.83333    Ag
Ag     0.96527  0.63193  0.83333    Ag
C      0.96887  0.12283  0.16203     C
C      0.96887  0.84603  0.16203     C
N      0.96947  0.03053  0.83207     N
N      0.96947  0.93895  0.83207     N
C      0.97112  0.02888  0.16883     C
C      0.97112  0.94223  0.16883     C
H      0.99023  0.13407  0.83717     H
H      0.99023  0.85617  0.83717     H
C      0.99357  0.40863  0.71483     C
C      0.99357  0.58493  0.71483     C
N      0.99837  0.44623  0.64093     N
N      0.99837  0.55213  0.64093     N
