data_I
_chemical_name_common  '/home/zhangsd/repos/MofS-CGCNN/ML/data/SSD/clean_cifs/FEWQOP_clean'
_cell_length_a  6.99970
_cell_length_b 16.05970
_cell_length_c 16.05970
_cell_angle_alpha 62.07350
_cell_angle_beta  81.64620
_cell_angle_gamma 98.35380
_space_group_name_H-M_alt      'P 1'


loop_
_space_group_symop_operation_xyz
  'x, y, z' 

loop_
_atom_site_label
_atom_site_fract_x
_atom_site_fract_y
_atom_site_fract_z
_atom_site_type_symbol
Cu         0.0      0.0      0.5    Cu
Cu         0.0      0.5      0.0    Cu
N       0.0405   0.7673   0.3027     N
C        0.043   0.9891   0.6725     C
O       0.0509   0.9938   0.8188     O
C       0.0539   0.3384   0.9891     C
O       0.0571   0.1874   0.9938     O
C       0.0585   0.7034   0.3882     C
H       0.0775   0.4227   0.4883     H
C       0.0928   0.3779   0.5485     C
C       0.1187    0.973   0.7548     C
C       0.1265   0.2452   0.7278     C
C       0.1288   0.9662   0.3539     C
N       0.1295   0.9662   0.6085     N
O       0.1303   0.1812   0.8126     O
C       0.1457   0.2722    0.973     C
C       0.1626   0.6799   0.9662     C
N       0.1633   0.4253   0.9662     N
O       0.1701   0.9548   0.4319     O
O      0.17533      0.0     -0.0     O
H        0.176   0.7131   0.4066     H
Gd     0.21159  0.93372  0.15324    Gd
O       0.2153   0.6133   0.9548     O
O       0.2237   0.9445   0.2989     O
N        0.262   0.3915   0.5747     N
N       0.2732     0.93   0.7673     N
Gd     0.27787  0.91304  0.93372    Gd
O       0.2792   0.7566   0.9445     O
C       0.2845   0.3275   0.6616     C
C       0.2851   0.9264   0.6221     C
O       0.2919    0.822   0.0984     O
N       0.3432   0.3027     0.93     N
H       0.3452    0.911   0.5773     H
C       0.3551   0.9084   0.7034     C
C       0.3587   0.4515   0.9264     C
Gd     0.36483  0.15324  0.91304    Gd
O       0.3903   0.0984   0.0796     O
O        0.398   0.5681   0.3867     O
H       0.4174   0.5934   0.1197     H
H       0.4342   0.5117    0.911     H
C       0.4467   0.3882   0.9084     C
H       0.4629   0.8803   0.7131     H
O       0.4699   0.0796    0.822     O
O       0.4774   0.7011   0.2434     O
C       0.4827   0.3539   0.6799     C
O          0.5      0.0     -0.0     O
Cu         0.5      0.5      0.5    Cu
C       0.5173   0.6461   0.3201     C
O       0.5226   0.2989   0.7566     O
O       0.5301   0.9204    0.178     O
H       0.5371   0.1197   0.2869     H
C       0.5533   0.6118   0.0916     C
H       0.5658   0.4883    0.089     H
H       0.5826   0.4066   0.8803     H
O        0.602   0.4319   0.6133     O
O       0.6097   0.9016   0.9204     O
Gd     0.63517  0.84676  0.08696    Gd
C       0.6413   0.5485   0.0736     C
C       0.6449   0.0916   0.2966     C
H       0.6548    0.089   0.4227     H
N       0.6568   0.6973     0.07     N
O       0.7081    0.178   0.9016     O
C       0.7149   0.0736   0.3779     C
C       0.7155   0.6725   0.3384     C
O       0.7208   0.2434   0.0555     O
Gd     0.72213  0.08696  0.06628    Gd
N       0.7268     0.07   0.2327     N
N        0.738   0.6085   0.4253     N
O       0.7763   0.0555   0.7011     O
O       0.7847   0.3867   0.0452     O
Gd     0.78841  0.06628  0.84676    Gd
H        0.824   0.2869   0.5934     H
O      0.82467      0.0     -0.0     O
O       0.8299   0.0452   0.5681     O
N       0.8367   0.5747   0.0338     N
C       0.8374   0.3201   0.0338     C
C       0.8543   0.7278    0.027     C
O       0.8697   0.8188   0.1874     O
N       0.8705   0.0338   0.3915     N
C       0.8712   0.0338   0.6461     C
C       0.8735   0.7548   0.2722     C
C       0.8813    0.027   0.2452     C
C       0.9072   0.6221   0.4515     C
H       0.9225   0.5773   0.5117     H
C       0.9415   0.2966   0.6118     C
O       0.9429   0.8126   0.0062     O
C       0.9461   0.6616   0.0109     C
O       0.9491   0.0062   0.1812     O
C        0.957   0.0109   0.3275     C
N       0.9595   0.2327   0.6973     N
