data_I
_chemical_name_common  '/home/zhangsd/repos/MofS-CGCNN/ML/data/SSD/clean_cifs/FEWQIJ_manual'
_cell_length_a 27.39340
_cell_length_b 27.39340
_cell_length_c 14.01080
_cell_angle_alpha 90.00000
_cell_angle_beta  90.00000
_cell_angle_gamma 120.00000
_space_group_name_H-M_alt      'P 1'


loop_
_space_group_symop_operation_xyz
  'x, y, z' 

loop_
_atom_site_label
_atom_site_fract_x
_atom_site_fract_y
_atom_site_fract_z
_atom_site_type_symbol
H     -0.01044   0.1167   0.3301     H
H     -0.01044   0.1167   0.8301     H
O          0.0      0.0  0.08967     O
O          0.0      0.0     0.25     O
O          0.0      0.0  0.41033     O
O          0.0      0.0  0.58967     O
O          0.0      0.0     0.75     O
O          0.0      0.0  0.91033     O
Cu         0.0      0.5     0.25    Cu
Cu         0.0      0.5     0.75    Cu
O      0.00767  0.91593  0.19327     O
O      0.00767  0.91593  0.69327     O
Dy     0.00793  0.92756  0.35784    Dy
Dy     0.00793  0.92756  0.85784    Dy
H      0.02177  0.46653  0.45052     H
H      0.02177  0.46653  0.95052     H
N      0.05183  0.17687  0.10903     N
N      0.05183  0.17687  0.60903     N
H      0.05383  0.23087  0.20188     H
H      0.05383  0.23087  0.70188     H
O      0.05693  0.12187  0.49628     O
O      0.05693  0.12187  0.99628     O
C      0.05697  0.49113  0.42467     C
C      0.05697  0.49113  0.92467     C
N      0.06117  0.51243  0.33842     N
N      0.06117  0.51243  0.83842     N
O      0.06117  0.55163  0.16767     O
O      0.06117  0.55163  0.66767     O
O      0.06373  0.88417  0.32788     O
O      0.06373  0.88417  0.82788     O
O      0.06493  0.94307  0.49628     O
O      0.06493  0.94307  0.99628     O
C      0.06673  0.22777  0.14183     C
C      0.06673  0.22777  0.64183     C
C      0.07193  0.17257  0.02128     C
C      0.07193  0.17257  0.52128     C
Dy     0.07244  0.08038  0.35784    Dy
Dy     0.07244  0.08038  0.85784    Dy
Dy     0.08038  0.00793  0.14216    Dy
Dy     0.08038  0.00793  0.64216    Dy
O      0.08407  0.09173  0.19327     O
O      0.08407  0.09173  0.69327     O
O      0.09173  0.00767  0.30673     O
O      0.09173  0.00767  0.80673     O
C      0.09593  0.87207  0.37128     C
C      0.09593  0.87207  0.87128     C
C      0.10063  0.92807  0.02128     C
C      0.10063  0.92807  0.52128     C
C      0.10083  0.27637  0.09133     C
C      0.10083  0.27637  0.59133     C
H      0.10247  0.48963  0.03522     H
H      0.10247  0.48963  0.53522     H
C      0.10493  0.22187  0.46853     C
C      0.10493  0.22187  0.96853     C
C      0.10557  0.50563  0.47517     C
C      0.10557  0.50563  0.97517     C
C      0.10947  0.57073  0.20462     C
C      0.10947  0.57073  0.70462     C
H      0.11143  0.31157  0.11718     H
H      0.11143  0.31157  0.61718     H
C      0.11147  0.54973  0.30187     C
C      0.11147  0.54973  0.80187     C
O      0.11503  0.84287  0.33433     O
O      0.11503  0.84287  0.83433     O
O      0.11583  0.17957  0.32788     O
O      0.11583  0.17957  0.82788     O
H       0.1167  0.12714   0.1699     H
H       0.1167  0.12714   0.6699     H
C      0.11693  0.89507  0.46853     C
C      0.11693  0.89507  0.96853     C
N      0.11793  0.27217  0.00508     N
N      0.11793  0.27217  0.50508     N
O      0.12187  0.06493  0.00372     O
O      0.12187  0.06493  0.50372     O
N      0.12503  0.94817  0.10903     N
N      0.12503  0.94817  0.60903     N
H      0.12714  1.01044   0.3301     H
H      0.12714  1.01044   0.8301     H
C      0.12793  0.22387  0.37128     C
C      0.12793  0.22387  0.87128     C
H       0.1332   0.7781  0.21615     H
H       0.1332   0.7781  0.71615     H
O      0.15377  0.60293  0.16122     O
O      0.15377  0.60293  0.66122     O
N      0.15423  0.88207  0.00508     N
N      0.15423  0.88207  0.50508     N
H       0.1563   0.7205  0.13145     H
H       0.1563   0.7205  0.63145     H
N      0.15647  0.54163  0.44237     N
N      0.15647  0.54163  0.94237     N
O      0.15713  0.27217  0.33433     O
O      0.15713  0.27217  0.83433     O
C       0.1578   0.7675    0.242     C
C       0.1578   0.7675    0.742     C
C      0.16077  0.56603  0.35462     C
C      0.16077  0.56603  0.85462     C
C      0.16103  0.93327  0.14183     C
C      0.16103  0.93327  0.64183     C
Cu     0.16667  0.33333  0.41667    Cu
Cu     0.16667  0.33333  0.91667    Cu
Cu     0.16667  0.83333  0.41667    Cu
Cu     0.16667  0.83333  0.91667    Cu
C       0.1723   0.7334   0.1915     C
C       0.1723   0.7334   0.6915     C
C      0.17257  0.10063  0.47872     C
C      0.17257  0.10063  0.97872     C
C      0.17553  0.89917  0.09133     C
C      0.17553  0.89917  0.59133     C
O       0.1762   0.3945    0.499     O
O       0.1762   0.3945    0.999     O
N      0.17687  0.12503  0.39097     N
N      0.17687  0.12503  0.89097     N
H      0.17703  0.94617  0.20188     H
H      0.17703  0.94617  0.70188     H
N       0.1791   0.7846  0.32825     N
N       0.1791   0.7846  0.82825     N
O      0.17957  0.06373  0.17212     O
O      0.17957  0.06373  0.67212     O
H      0.20013  0.88857  0.11718     H
H      0.20013  0.88857  0.61718     H
C       0.2054   0.4428  0.46205     C
C       0.2054   0.4428  0.96205     C
H      0.20619  0.65623  0.00324     H
H      0.20619  0.65623  0.50324     H
N       0.2083   0.7185   0.2243     N
N       0.2083   0.7185   0.7243     N
O      0.21147  0.60173  0.32962     O
O      0.21147  0.60173  0.82962     O
N       0.2154   0.3945  0.32825     N
N       0.2154   0.3945  0.82825     N
C       0.2164   0.7716   0.3648     C
C       0.2164   0.7716   0.8648     C
H      0.21663  0.53952  0.16343     H
H      0.21663  0.53952  0.66343     H
O       0.2175   0.4871  0.00545     O
O       0.2175   0.4871  0.50545     O
O       0.2183   0.8238    0.499     O
O       0.2183   0.8238    0.999     O
C      0.22187  0.11693  0.03147     C
C      0.22187  0.11693  0.53147     C
H       0.2219   0.3551  0.21615     H
H       0.2219   0.3551  0.71615     H
C      0.22387  0.09593  0.12872     C
C      0.22387  0.09593  0.62872     C
C      0.22777  0.16103  0.35817     C
C      0.22777  0.16103  0.85817     C
C       0.2284   0.4448   0.3648     C
C       0.2284   0.4448   0.8648     C
H      0.23087  0.17703  0.29812     H
H      0.23087  0.17703  0.79812     H
C       0.2325   0.3903    0.242     C
C       0.2325   0.3903    0.742     C
C       0.2327   0.7386  0.31205     C
C       0.2327   0.7386  0.81205     C
C       0.2374   0.7946  0.46205     C
C       0.2374   0.7946  0.96205     C
O       0.2416    0.659   0.0266     O
O       0.2416    0.659   0.5266     O
O      0.24927  0.57493  0.14007     O
O      0.24927  0.57493  0.64007     O
Dy     0.25296  0.65873  0.19118    Dy
Dy     0.25296  0.65873  0.69118    Dy
Dy     0.26089  0.58629  0.47549    Dy
Dy     0.26089  0.58629  0.97549    Dy
C       0.2614   0.4941  0.31205     C
C       0.2614   0.4941  0.81205     C
C       0.2666   0.4389   0.1915     C
C       0.2666   0.4389   0.6915     C
O       0.2684   0.7236  0.33705     O
O       0.2684   0.7236  0.83705     O
O       0.2696   0.7825  0.00545     O
O       0.2696   0.7825  0.50545     O
O      0.27217  0.11503  0.16567     O
O      0.27217  0.11503  0.66567     O
N      0.27217  0.15423  0.49492     N
N      0.27217  0.15423  0.99492     N
C      0.27637  0.17553  0.40867     C
C      0.27637  0.17553  0.90867     C
O       0.2764   0.5448  0.33705     O
O       0.2764   0.5448  0.83705     O
H       0.2795   0.4358  0.13145     H
H       0.2795   0.4358  0.63145     H
N       0.2815   0.4898   0.2243     N
N       0.2815   0.4898   0.7243     N
H      0.31157  0.20013  0.38282     H
H      0.31157  0.20013  0.88282     H
H      0.32289  0.78337  0.16343     H
H      0.32289  0.78337  0.66343     H
Dy      0.3254  0.73911  0.47549    Dy
Dy      0.3254  0.73911  0.97549    Dy
O      0.32567  0.75073  0.14007     O
O      0.32567  0.75073  0.64007     O
Cu     0.33333  0.16667  0.08333    Cu
Cu     0.33333  0.16667  0.58333    Cu
O      0.33333  0.66667  0.08333     O
O      0.33333  0.66667  0.24367     O
O      0.33333  0.66667    0.423     O
O      0.33333  0.66667  0.58333     O
O      0.33333  0.66667  0.74367     O
O      0.33333  0.66667    0.923     O
O        0.341   0.5826   0.0266     O
O        0.341   0.5826   0.5266     O
Dy     0.34127  0.59422  0.19118    Dy
Dy     0.34127  0.59422  0.69118    Dy
H      0.34377  0.54996  0.00324     H
H      0.34377  0.54996  0.50324     H
H       0.3551   0.1332  0.28385     H
H       0.3551   0.1332  0.78385     H
N      0.38517  0.84353  0.44237     N
N      0.38517  0.84353  0.94237     N
H      0.38717  0.89753  0.03522     H
H      0.38717  0.89753  0.53522     H
O      0.39027  0.78853  0.32962     O
O      0.39027  0.78853  0.82962     O
C       0.3903   0.1578    0.258     C
C       0.3903   0.1578    0.758     C
N       0.3945   0.1791  0.17175     N
N       0.3945   0.1791  0.67175     N
O       0.3945   0.2183    0.001     O
O       0.3945   0.2183    0.501     O
O      0.39707  0.55083  0.16122     O
O      0.39707  0.55083  0.66122     O
O      0.39827  0.60973  0.32962     O
O      0.39827  0.60973  0.82962     O
C      0.40007  0.89443  0.47517     C
C      0.40007  0.89443  0.97517     C
C      0.40527  0.83923  0.35462     C
C      0.40527  0.83923  0.85462     C
Dy     0.40578  0.74704  0.19118    Dy
Dy     0.40578  0.74704  0.69118    Dy
Dy     0.41371   0.6746  0.47549    Dy
Dy     0.41371   0.6746  0.97549    Dy
O       0.4174   0.7584   0.0266     O
O       0.4174   0.7584   0.5266     O
O      0.42507  0.67433  0.14007     O
O      0.42507  0.67433  0.64007     O
C      0.42927  0.53873  0.20462     C
C      0.42927  0.53873  0.70462     C
C      0.43397  0.59473  0.35462     C
C      0.43397  0.59473  0.85462     C
C      0.43417  0.94303  0.42467     C
C      0.43417  0.94303  0.92467     C
H       0.4358   0.1563  0.36855     H
H       0.4358   0.1563  0.86855     H
C      0.43827  0.88853  0.30187     C
C      0.43827  0.88853  0.80187     C
C       0.4389   0.1723   0.3085     C
C       0.4389   0.1723   0.8085     C
C       0.4428   0.2374  0.03795     C
C       0.4428   0.2374  0.53795     C
H      0.44477  0.97823  0.45052     H
H      0.44477  0.97823  0.95052     H
C       0.4448   0.2164   0.1352     C
C       0.4448   0.2164   0.6352     C
O      0.44837  0.50953  0.16767     O
O      0.44837  0.50953  0.66767     O
O      0.44917  0.84623  0.16122     O
O      0.44917  0.84623  0.66122     O
H      0.45004  0.79381  0.00324     H
H      0.45004  0.79381  0.50324     H
C      0.45027  0.56173  0.30187     C
C      0.45027  0.56173  0.80187     C
N      0.45127  0.93883  0.33842     N
N      0.45127  0.93883  0.83842     N
O       0.4552   0.7316  0.33705     O
O       0.4552   0.7316  0.83705     O
N      0.45837  0.61483  0.44237     N
N      0.45837  0.61483  0.94237     N
H      0.46048  0.67711  0.16343     H
H      0.46048  0.67711  0.66343     H
C      0.46127  0.89053  0.20462     C
C      0.46127  0.89053  0.70462     C
H      0.46653  0.44477  0.04948     H
H      0.46653  0.44477  0.54948     H
O       0.4871   0.2696  0.49455     O
O       0.4871   0.2696  0.99455     O
N      0.48757  0.54873  0.33842     N
N      0.48757  0.54873  0.83842     N
H      0.48963  0.38717  0.46478     H
H      0.48963  0.38717  0.96478     H
N       0.4898   0.2083   0.2757     N
N       0.4898   0.2083   0.7757     N
O      0.49047  0.93883  0.16767     O
O      0.49047  0.93883  0.66767     O
C      0.49113  0.43417  0.07533     C
C      0.49113  0.43417  0.57533     C
C       0.4941   0.2327  0.18795     C
C       0.4941   0.2327  0.68795     C
C      0.49437  0.59993  0.47517     C
C      0.49437  0.59993  0.97517     C
Cu         0.5      0.0     0.25    Cu
Cu         0.5      0.0     0.75    Cu
Cu         0.5      0.5     0.25    Cu
Cu         0.5      0.5     0.75    Cu
C      0.50563  0.40007  0.02483     C
C      0.50563  0.40007  0.52483     C
C       0.5059   0.7673  0.31205     C
C       0.5059   0.7673  0.81205     C
C      0.50887  0.56583  0.42467     C
C      0.50887  0.56583  0.92467     C
O      0.50953  0.06117  0.33233     O
O      0.50953  0.06117  0.83233     O
N       0.5102   0.7917   0.2243     N
N       0.5102   0.7917   0.7243     N
H      0.51037  0.61283  0.03522     H
H      0.51037  0.61283  0.53522     H
N      0.51243  0.45127  0.16158     N
N      0.51243  0.45127  0.66158     N
O       0.5129   0.7304  0.00545     O
O       0.5129   0.7304  0.50545     O
H      0.53347  0.55523  0.45052     H
H      0.53347  0.55523  0.95052     H
C      0.53873  0.10947  0.29538     C
C      0.53873  0.10947  0.79538     C
H      0.53952  0.32289  0.33657     H
H      0.53952  0.32289  0.83657     H
N      0.54163  0.38517  0.05763     N
N      0.54163  0.38517  0.55763     N
O       0.5448   0.2684  0.16295     O
O       0.5448   0.2684  0.66295     O
N      0.54873  0.06117  0.16158     N
N      0.54873  0.06117  0.66158     N
C      0.54973  0.43827  0.19813     C
C      0.54973  0.43827  0.69813     C
H      0.54996  0.20619  0.49676     H
H      0.54996  0.20619  0.99676     H
O      0.55083  0.15377  0.33878     O
O      0.55083  0.15377  0.83878     O
O      0.55163  0.49047  0.33233     O
O      0.55163  0.49047  0.83233     O
C       0.5552   0.7836   0.3648     C
C       0.5552   0.7836   0.8648     C
H      0.55523  0.02177  0.04948     H
H      0.55523  0.02177  0.54948     H
C       0.5572   0.7626  0.46205     C
C       0.5572   0.7626  0.96205     C
C       0.5611   0.8277   0.1915     C
C       0.5611   0.8277   0.6915     C
C      0.56173  0.11147  0.19813     C
C      0.56173  0.11147  0.69813     C
H       0.5642   0.8437  0.13145     H
H       0.5642   0.8437  0.63145     H
C      0.56583  0.05697  0.07533     C
C      0.56583  0.05697  0.57533     C
C      0.56603  0.40527  0.14538     C
C      0.56603  0.40527  0.64538     C
C      0.57073  0.46127  0.29538     C
C      0.57073  0.46127  0.79538     C
O      0.57493  0.32567  0.35993     O
O      0.57493  0.32567  0.85993     O
O       0.5826   0.2416   0.4734     O
O       0.5826   0.2416   0.9734     O
Dy     0.58629   0.3254  0.02451    Dy
Dy     0.58629   0.3254  0.52451    Dy
Dy     0.59422  0.25296  0.30882    Dy
Dy     0.59422  0.25296  0.80882    Dy
C      0.59473  0.16077  0.14538     C
C      0.59473  0.16077  0.64538     C
C      0.59993  0.10557  0.02483     C
C      0.59993  0.10557  0.52483     C
O      0.60173  0.39027  0.17038     O
O      0.60173  0.39027  0.67038     O
O      0.60293  0.44917  0.33878     O
O      0.60293  0.44917  0.83878     O
O       0.6055   0.7817    0.499     O
O       0.6055   0.7817    0.999     O
N       0.6055   0.8209  0.32825     N
N       0.6055   0.8209  0.82825     N
C       0.6097   0.8422    0.242     C
C       0.6097   0.8422    0.742     C
O      0.60973  0.21147  0.17038     O
O      0.60973  0.21147  0.67038     O
H      0.61283  0.10247  0.46478     H
H      0.61283  0.10247  0.96478     H
N      0.61483  0.15647  0.05763     N
N      0.61483  0.15647  0.55763     N
H       0.6449   0.8668  0.21615     H
H       0.6449   0.8668  0.71615     H
H      0.65623  0.45004  0.49676     H
H      0.65623  0.45004  0.99676     H
Dy     0.65873  0.40578  0.30882    Dy
Dy     0.65873  0.40578  0.80882    Dy
O        0.659   0.4174   0.4734     O
O        0.659   0.4174   0.9734     O
O      0.66667  0.33333    0.077     O
O      0.66667  0.33333  0.25633     O
O      0.66667  0.33333  0.41667     O
O      0.66667  0.33333    0.577     O
O      0.66667  0.33333  0.75633     O
O      0.66667  0.33333  0.91667     O
Cu     0.66667  0.83333  0.41667    Cu
Cu     0.66667  0.83333  0.91667    Cu
O      0.67433  0.24927  0.35993     O
O      0.67433  0.24927  0.85993     O
Dy      0.6746  0.26089  0.02451    Dy
Dy      0.6746  0.26089  0.52451    Dy
H      0.67711  0.21663  0.33657     H
H      0.67711  0.21663  0.83657     H
H      0.68843  0.79987  0.11718     H
H      0.68843  0.79987  0.61718     H
N       0.7185   0.5102   0.2757     N
N       0.7185   0.5102   0.7757     N
H       0.7205   0.5642  0.36855     H
H       0.7205   0.5642  0.86855     H
O       0.7236   0.4552  0.16295     O
O       0.7236   0.4552  0.66295     O
C      0.72363  0.82447  0.09133     C
C      0.72363  0.82447  0.59133     C
N      0.72783  0.84577  0.00508     N
N      0.72783  0.84577  0.50508     N
O      0.72783  0.88497  0.33433     O
O      0.72783  0.88497  0.83433     O
O       0.7304   0.2175  0.49455     O
O       0.7304   0.2175  0.99455     O
O       0.7316   0.2764  0.16295     O
O       0.7316   0.2764  0.66295     O
C       0.7334   0.5611   0.3085     C
C       0.7334   0.5611   0.8085     C
C       0.7386   0.5059  0.18795     C
C       0.7386   0.5059  0.68795     C
Dy     0.73911  0.41371  0.02451    Dy
Dy     0.73911  0.41371  0.52451    Dy
Dy     0.74704  0.34127  0.30882    Dy
Dy     0.74704  0.34127  0.80882    Dy
O      0.75073  0.42507  0.35993     O
O      0.75073  0.42507  0.85993     O
O       0.7584    0.341   0.4734     O
O       0.7584    0.341   0.9734     O
C       0.7626   0.2054  0.03795     C
C       0.7626   0.2054  0.53795     C
C       0.7673   0.2614  0.18795     C
C       0.7673   0.2614  0.68795     C
C       0.7675   0.6097    0.258     C
C       0.7675   0.6097    0.758     C
H      0.76913  0.82297  0.20188     H
H      0.76913  0.82297  0.70188     H
C       0.7716   0.5552   0.1352     C
C       0.7716   0.5552   0.6352     C
C      0.77223  0.83897  0.14183     C
C      0.77223  0.83897  0.64183     C
C      0.77613  0.90407  0.37128     C
C      0.77613  0.90407  0.87128     C
H       0.7781   0.6449  0.28385     H
H       0.7781   0.6449  0.78385     H
C      0.77813  0.88307  0.46853     C
C      0.77813  0.88307  0.96853     C
O       0.7817   0.1762    0.001     O
O       0.7817   0.1762    0.501     O
O       0.7825   0.5129  0.49455     O
O       0.7825   0.5129  0.99455     O
H      0.78337  0.46048  0.33657     H
H      0.78337  0.46048  0.83657     H
C       0.7836   0.2284   0.1352     C
C       0.7836   0.2284   0.6352     C
N       0.7846   0.6055  0.17175     N
N       0.7846   0.6055  0.67175     N
O      0.78853  0.39827  0.17038     O
O      0.78853  0.39827  0.67038     O
N       0.7917   0.2815   0.2757     N
N       0.7917   0.2815   0.7757     N
H      0.79381  0.34377  0.49676     H
H      0.79381  0.34377  0.99676     H
C       0.7946   0.5572  0.03795     C
C       0.7946   0.5572  0.53795     C
H      0.79987  0.11143  0.38282     H
H      0.79987  0.11143  0.88282     H
O      0.82043  0.93627  0.32788     O
O      0.82043  0.93627  0.82788     O
N       0.8209   0.2154  0.17175     N
N       0.8209   0.2154  0.67175     N
H      0.82297  0.05383  0.29812     H
H      0.82297  0.05383  0.79812     H
N      0.82313  0.87497  0.10903     N
N      0.82313  0.87497  0.60903     N
O       0.8238   0.6055    0.001     O
O       0.8238   0.6055    0.501     O
C      0.82447  0.10083  0.40867     C
C      0.82447  0.10083  0.90867     C
C      0.82743  0.89937  0.02128     C
C      0.82743  0.89937  0.52128     C
C       0.8277   0.2666   0.3085     C
C       0.8277   0.2666   0.8085     C
Cu     0.83333  0.16667  0.08333    Cu
Cu     0.83333  0.16667  0.58333    Cu
Cu     0.83333  0.66667  0.08333    Cu
Cu     0.83333  0.66667  0.58333    Cu
C      0.83897  0.06673  0.35817     C
C      0.83897  0.06673  0.85817     C
C      0.83923  0.43397  0.14538     C
C      0.83923  0.43397  0.64538     C
C       0.8422   0.2325    0.258     C
C       0.8422   0.2325    0.758     C
O      0.84287  0.72783  0.16567     O
O      0.84287  0.72783  0.66567     O
N      0.84353  0.45837  0.05763     N
N      0.84353  0.45837  0.55763     N
H       0.8437   0.2795  0.36855     H
H       0.8437   0.2795  0.86855     H
N      0.84577  0.11793  0.49492     N
N      0.84577  0.11793  0.99492     N
O      0.84623  0.39707  0.33878     O
O      0.84623  0.39707  0.83878     O
H       0.8668   0.2219  0.28385     H
H       0.8668   0.2219  0.78385     H
C      0.87207  0.77613  0.12872     C
C      0.87207  0.77613  0.62872     C
H      0.87286 -0.01044   0.1699     H
H      0.87286 -0.01044   0.6699     H
N      0.87497  0.05183  0.39097     N
N      0.87497  0.05183  0.89097     N
O      0.87813  0.93507  0.49628     O
O      0.87813  0.93507  0.99628     O
N      0.88207  0.72783  0.49492     N
N      0.88207  0.72783  0.99492     N
C      0.88307  0.10493  0.03147     C
C      0.88307  0.10493  0.53147     C
H       0.8833  0.87286   0.3301     H
H       0.8833  0.87286   0.8301     H
O      0.88417  0.82043  0.17212     O
O      0.88417  0.82043  0.67212     O
O      0.88497  0.15713  0.16567     O
O      0.88497  0.15713  0.66567     O
C      0.88853  0.45027  0.19813     C
C      0.88853  0.45027  0.69813     C
H      0.88857  0.68843  0.38282     H
H      0.88857  0.68843  0.88282     H
C      0.89053  0.42927  0.29538     C
C      0.89053  0.42927  0.79538     C
C      0.89443  0.49437  0.02483     C
C      0.89443  0.49437  0.52483     C
C      0.89507  0.77813  0.03147     C
C      0.89507  0.77813  0.53147     C
H      0.89753  0.51037  0.46478     H
H      0.89753  0.51037  0.96478     H
C      0.89917  0.72363  0.40867     C
C      0.89917  0.72363  0.90867     C
C      0.89937  0.07193  0.47872     C
C      0.89937  0.07193  0.97872     C
C      0.90407  0.12793  0.12872     C
C      0.90407  0.12793  0.62872     C
O      0.90827  0.99233  0.19327     O
O      0.90827  0.99233  0.69327     O
O      0.91593  0.90827  0.30673     O
O      0.91593  0.90827  0.80673     O
Dy     0.91962  0.99207  0.35784    Dy
Dy     0.91962  0.99207  0.85784    Dy
Dy     0.92756  0.91962  0.14216    Dy
Dy     0.92756  0.91962  0.64216    Dy
C      0.92807  0.82743  0.47872     C
C      0.92807  0.82743  0.97872     C
C      0.93327  0.77223  0.35817     C
C      0.93327  0.77223  0.85817     C
O      0.93507  0.05693  0.00372     O
O      0.93507  0.05693  0.50372     O
O      0.93627  0.11583  0.17212     O
O      0.93627  0.11583  0.67212     O
O      0.93883  0.44837  0.33233     O
O      0.93883  0.44837  0.83233     O
N      0.93883  0.48757  0.16158     N
N      0.93883  0.48757  0.66158     N
C      0.94303  0.50887  0.07533     C
C      0.94303  0.50887  0.57533     C
O      0.94307  0.87813  0.00372     O
O      0.94307  0.87813  0.50372     O
H      0.94617  0.76913  0.29812     H
H      0.94617  0.76913  0.79812     H
N      0.94817  0.82313  0.39097     N
N      0.94817  0.82313  0.89097     N
H      0.97823  0.53347  0.04948     H
H      0.97823  0.53347  0.54948     H
Dy     0.99207  0.07244  0.14216    Dy
Dy     0.99207  0.07244  0.64216    Dy
O      0.99233  0.08407  0.30673     O
O      0.99233  0.08407  0.80673     O
H      1.01044   0.8833   0.1699     H
H      1.01044   0.8833   0.6699     H
