data_I
_chemical_name_common  '/home/zhangsd/repos/MofS-CGCNN/ML/data/SSD/clean_cifs/FEZCUJ_charged'
_cell_length_a 15.08050
_cell_length_b 15.68230
_cell_length_c 27.30240
_cell_angle_alpha 90.00000
_cell_angle_beta  101.67000
_cell_angle_gamma 90.00000
_space_group_name_H-M_alt      'P 1'


loop_
_space_group_symop_operation_xyz
  'x, y, z' 

loop_
_atom_site_label
_atom_site_fract_x
_atom_site_fract_y
_atom_site_fract_z
_atom_site_type_symbol
N       0.0049   0.5682  0.55848     N
N       0.0049   0.9318  0.05848     N
C       0.0055   0.1575   0.9548     C
C       0.0055   0.3425   0.4548     C
H       0.0223   0.6688   0.5164     H
H       0.0223   0.8312   0.0164     H
H       0.0242   0.6924   0.5736     H
H       0.0242   0.8076   0.0736     H
N       0.0325    0.637  0.30709     N
N       0.0325    0.863  0.80709     N
C       0.0424   0.6881   0.1481     C
C       0.0424   0.8119   0.6481     C
H        0.049   0.5914   0.2406     H
H        0.049   0.9086   0.7406     H
C       0.0499   0.1198   0.1905     C
C       0.0499   0.3802   0.6905     C
H       0.0584   0.6122   0.6859     H
H       0.0584   0.8878   0.1859     H
H       0.0701   0.1718   0.9633     H
H       0.0701   0.3282   0.4633     H
Cu      0.0735  0.19126  0.33464    Cu
Cu      0.0735  0.30874  0.83464    Cu
H       0.0753   0.6686   0.7358     H
H       0.0753   0.8314   0.2358     H
C       0.0782   0.0219   0.9423     C
C       0.0782   0.4781   0.4423     C
H       0.0792   0.0752   0.2112     H
H       0.0792   0.4248   0.7112     H
H       0.0793   0.0011   0.9086     H
H       0.0793   0.4989   0.4086     H
C        0.081   0.5874   0.2756     C
C        0.081   0.9126   0.7756     C
H       0.0817   0.5267   0.4652     H
H       0.0817   0.9733   0.9652     H
C       0.0838   0.5324  0.57154     C
C       0.0838   0.9676  0.07154     C
H       0.0839   0.5276   0.2862     H
H       0.0839   0.9724   0.7862     H
H       0.0847   0.5671   0.7395     H
H       0.0847   0.9329   0.2395     H
C       0.0851    0.692   0.3417     C
C       0.0851    0.808   0.8417     C
C       0.0943   0.6175     0.72     C
C       0.0943   0.8825     0.22     C
O      0.09493  0.15782  0.16278     O
O      0.09493  0.34218  0.66278     O
O      0.09575  0.04385  0.08281     O
O      0.09575  0.45615  0.58281     O
N       0.1125   0.6876  0.13696     N
N       0.1125   0.8124  0.63696     N
H       0.1168    0.032   0.6767     H
H       0.1168    0.468   0.1767     H
H         0.13   0.0597   0.9536     H
H         0.13   0.4403   0.4536     H
H       0.1358   0.5669   0.5725     H
H       0.1358   0.9331   0.0725     H
C       0.1371   0.0879  0.32791     C
H       0.1371    0.196   0.6695     H
H       0.1371    0.304   0.1695     H
C       0.1371   0.4121  0.82791     C
N        0.138   0.2033  0.82849     N
N        0.138   0.2967  0.32849     N
H       0.1425     0.61   0.2787     H
H       0.1425     0.89   0.7787     H
C        0.181    0.042   0.6907     C
C        0.181    0.458   0.1907     C
N       0.1818   0.0274  0.33104     N
N       0.1818   0.4726  0.83104     N
C       0.1849   0.1811  0.65317     C
C       0.1849   0.3189  0.15317     C
C       0.1859   0.1447  0.83155     C
C       0.1859   0.3553  0.33155     C
H       0.1879   0.0636    0.725     H
H       0.1879   0.4364    0.225     H
H       0.1883   0.1646   0.4479     H
H       0.1883   0.3354   0.9479     H
H        0.189   0.2277   0.5368     H
H        0.189   0.2723   0.0368     H
N       0.1897   0.6243  0.71819     N
N       0.1897   0.8757  0.21819     N
O       0.1918  0.00353  0.18069     O
O       0.1918  0.49647  0.68069     O
H       0.1978   0.7362   0.7539     H
H       0.1978   0.7638   0.2539     H
O        0.211  0.23615  0.62725     O
O        0.211  0.26385  0.12725     O
O      0.21263  0.15414  0.04558     O
O      0.21263  0.34586  0.54558     O
H       0.2145   0.5116   0.1911     H
H       0.2145   0.9884   0.6911     H
C       0.2161   0.2245  0.02422     C
C       0.2161   0.2755  0.52422     C
N       0.2169   0.1049     0.66     N
N       0.2169   0.3951     0.16     N
Er     0.21992  0.11627  0.12885    Er
Er     0.21992  0.38373  0.62885    Er
C       0.2295   0.5627  0.69918     C
C       0.2295   0.9373  0.19918     C
Cu     0.23234   0.7001  0.12196    Cu
Cu     0.23234   0.7999  0.62196    Cu
N        0.235   0.7374  0.56134     N
N        0.235   0.7626  0.06134     N
C       0.2394   0.6973   0.7417     C
C       0.2394   0.8027   0.2417     C
C       0.2402   0.7109  0.52206     C
C       0.2402   0.7891  0.02206     C
C       0.2515   0.1806  0.46103     C
C       0.2515   0.3194  0.96103     C
N       0.2544   0.2368  0.98591     N
N       0.2544   0.2632  0.48591     N
Cu     0.25497  0.68216   0.4575    Cu
Cu     0.25497  0.81784   0.9575    Cu
N       0.2554   0.7164  0.91471     N
N       0.2554   0.7836  0.41471     N
H       0.2592   0.1213    0.955     H
H       0.2592   0.3787    0.455     H
C       0.2605   0.6582  0.88934     C
C       0.2605   0.8418  0.38934     C
H       0.2678    0.727   0.7173     H
H       0.2678    0.773   0.2173     H
Cu     0.26869  0.56474   0.8467    Cu
Cu     0.26869  0.93526   0.3467    Cu
H       0.2719   0.1099   0.2656     H
H       0.2719   0.3901   0.7656     H
C       0.2722   0.5793  0.42429     C
C       0.2722   0.9207  0.92429     C
Cu     0.27273   0.0563  0.84274    Cu
Cu     0.27273   0.4437  0.34274    Cu
H       0.2732   0.0842   0.6007     H
H       0.2732   0.4158   0.1007     H
N       0.2775   0.5211   0.3994     N
N       0.2775   0.9789   0.8994     N
H       0.2802   0.1375   0.4851     H
H       0.2802   0.3625   0.9851     H
H       0.2839   0.1843   0.4334     H
H       0.2839   0.3157   0.9334     H
H       0.2862   0.6782   0.7699     H
H       0.2862   0.8218   0.2699     H
O      0.29126  0.50626  0.60678     O
O      0.29126  0.99374  0.10678     O
C       0.2917   0.0801   0.6371     C
C       0.2917   0.4199   0.1371     C
H       0.2922   0.5688   0.6995     H
H       0.2922   0.9312   0.1995     H
O       0.2999   0.1534  0.20635     O
O       0.2999   0.3466  0.70635     O
C       0.3014   0.1683  0.96581     C
C       0.3014   0.3317  0.46581     C
C       0.3073   0.1503  0.25211     C
C       0.3073   0.3497  0.75211     C
H       0.3093   0.0212   0.6465     H
H       0.3093   0.4788   0.1465     H
H       0.3133   0.2021   0.3464     H
H       0.3133   0.2979   0.8464     H
H       0.3249   0.1895   0.9372     H
H       0.3249   0.3105   0.4372     H
H        0.325   0.0129    0.045     H
H        0.325   0.4871    0.545     H
C       0.3367   0.6523  0.16259     C
C       0.3367   0.8477  0.66259     C
C       0.3387   0.5188   0.5752     C
C       0.3387   0.9812   0.0752     C
H       0.3433   0.1181   0.6488     H
H       0.3433   0.3819   0.1488     H
H       0.3517    0.148   0.9917     H
H       0.3517    0.352   0.4917     H
H       0.3587   0.7348   0.3486     H
H       0.3587   0.7652   0.8486     H
C         0.36   0.0273  0.80417     C
C         0.36   0.4727  0.30417     C
N       0.3619   0.2006  0.28303     N
N       0.3619   0.2994  0.78303     N
O      0.36528   0.1563  0.11842     O
O      0.36528   0.3437  0.61842     O
N       0.3719   0.5459  0.81462     N
N       0.3719   0.9541  0.31462     N
C       0.3721    0.193  0.33718     C
C       0.3721    0.307  0.83718     C
H       0.3767   0.6606   0.6285     H
H       0.3767   0.8394   0.1285     H
H       0.3771   0.6435   0.3264     H
H       0.3771   0.8565   0.8264     H
H       0.3791   0.1958   0.7428     H
H       0.3791   0.3042   0.2428     H
H       0.3946   0.1359   0.3478     H
H       0.3946   0.3641   0.8478     H
N       0.3964   0.6167  0.18747     N
N       0.3964   0.8833  0.68747     N
C       0.4005   0.7016  0.33285     C
C       0.4005   0.7984  0.83285     C
H        0.406   0.7285   0.3012     H
H        0.406   0.7715   0.8012     H
N       0.4062   0.5727  0.58076     N
N       0.4062   0.9273  0.08076     N
N       0.4082   0.0067   0.7784     N
N       0.4082   0.4933   0.2784     N
H       0.4153   0.2359   0.3537     H
H       0.4153   0.2641   0.8537     H
C        0.418   0.2362  0.76464     C
C        0.418   0.2638  0.26464     C
H       0.4202    0.604   0.5117     H
H       0.4202    0.896   0.0117     H
C        0.429   0.6253   0.6254     C
C        0.429   0.8747   0.1254     C
C       0.4315   0.5222  0.79806     C
C       0.4315   0.9778  0.29806     C
H       0.4385   0.7308   0.9151     H
H       0.4385   0.7692   0.4151     H
C       0.4416   0.1594   0.1453     C
C       0.4416   0.3406   0.6453     C
H       0.4452   0.5886   0.6549     H
H       0.4452   0.9114   0.1549     H
H       0.4503   0.1312   0.1767     H
H       0.4503   0.3688   0.6767     H
H       0.4543   0.2055    0.793     H
H       0.4543   0.2945    0.293     H
H       0.4569   0.2124   0.5843     H
H       0.4569   0.2876   0.0843     H
H       0.4582   0.2352   0.2458     H
H       0.4582   0.2648   0.7458     H
C       0.4596   0.5849   0.5428     C
C       0.4596   0.9151   0.0428     C
Cu      0.4698   0.5237  0.22561    Cu
Cu      0.4698   0.9763  0.72561    Cu
H       0.4804   0.6622    0.623     H
H       0.4804   0.8378    0.123     H
H       0.4859   0.2026   0.0592     H
H       0.4859   0.2974   0.5592     H
H       0.4885    0.531   0.5369     H
H       0.4885    0.969   0.0369     H
N       0.4888   0.6986  0.36602     N
N       0.4888   0.8014  0.86602     N
H       0.4938   0.1281   0.9459     H
H       0.4938   0.3719   0.4459     H
C       0.4967   0.7431   0.4132     C
C       0.4967   0.7569   0.9132     C
C       0.5033   0.2431   0.0868     C
C       0.5033   0.2569   0.5868     C
H       0.5062   0.6281   0.5541     H
H       0.5062   0.8719   0.0541     H
N       0.5112   0.1986  0.13398     N
N       0.5112   0.3014  0.63398     N
H       0.5115    0.031   0.9631     H
H       0.5115    0.469   0.4631     H
H       0.5141   0.7026   0.4408     H
H       0.5141   0.7974   0.9408     H
H       0.5196   0.1622    0.877     H
H       0.5196   0.3378    0.377     H
Cu      0.5302   0.0237  0.27439    Cu
Cu      0.5302   0.4763  0.77439    Cu
C       0.5404   0.0849   0.9572     C
C       0.5404   0.4151   0.4572     C
H       0.5418   0.7352   0.2542     H
H       0.5418   0.7648   0.7542     H
H       0.5431   0.7124   0.9157     H
H       0.5431   0.7876   0.4157     H
H       0.5457   0.7055    0.707     H
H       0.5457   0.7945    0.207     H
H       0.5497   0.6312   0.3233     H
H       0.5497   0.8688   0.8233     H
H       0.5548   0.0886   0.8451     H
H       0.5548   0.4114   0.3451     H
C       0.5584   0.6594   0.3547     C
C       0.5584   0.8406   0.8547     C
H       0.5615   0.2308   0.5849     H
H       0.5615   0.2692   0.0849     H
C       0.5685   0.0222  0.70194     C
C       0.5685   0.4778  0.20194     C
C        0.571   0.1253   0.8746     C
C        0.571   0.3747   0.3746     C
H       0.5798    0.104   0.9883     H
H       0.5798    0.396   0.4883     H
C        0.582   0.7362  0.73536     C
C        0.582   0.7638  0.23536     C
H       0.5847   0.7359   0.1463     H
H       0.5847   0.7641   0.6463     H
N       0.5918   0.5067   0.7216     N
N       0.5918   0.9933   0.2216     N
N       0.5938   0.0727  0.91924     N
N       0.5938   0.4273  0.41924     N
H        0.594   0.2285   0.1988     H
H        0.594   0.2715   0.6988     H
C       0.5995   0.2016  0.16715     C
C       0.5995   0.2984  0.66715     C
N       0.6036   0.1167  0.31253     N
N       0.6036   0.3833  0.81253     N
H       0.6054   0.6359   0.1522     H
H       0.6054   0.8641   0.6522     H
H       0.6209   0.6958   0.7572     H
H       0.6209   0.8042   0.2572     H
H       0.6229   0.1435   0.1736     H
H       0.6229   0.3565   0.6736     H
H       0.6233   0.1606   0.8715     H
H       0.6233   0.3394   0.3715     H
C       0.6279    0.693  0.16282     C
C       0.6279    0.807  0.66282     C
N       0.6281   0.0459  0.68538     N
N       0.6281   0.4541  0.18538     N
O      0.63472   0.6563  0.38158     O
O      0.63472   0.8437  0.88158     O
N       0.6381   0.7006  0.21697     N
N       0.6381   0.7994  0.71697     N
C         0.64   0.5273  0.69583     C
C         0.64   0.9727  0.19583     C
H       0.6413   0.2348   0.1514     H
H       0.6413   0.2652   0.6514     H
H       0.6483    0.648   0.5083     H
H       0.6483    0.852   0.0083     H
H       0.6567   0.6181   0.8512     H
H       0.6567   0.8819   0.3512     H
C       0.6613   0.0188   0.9248     C
C       0.6613   0.4812   0.4248     C
C       0.6633   0.1523  0.33741     C
C       0.6633   0.3477  0.83741     C
H        0.675   0.5129    0.455     H
H        0.675   0.9871    0.955     H
H       0.6751   0.6895   0.5628     H
H       0.6751   0.8105   0.0628     H
H       0.6867   0.7021   0.1536     H
H       0.6867   0.7979   0.6536     H
H       0.6907   0.5212   0.8535     H
H       0.6907   0.9788   0.3535     H
C       0.6927   0.6503  0.24789     C
C       0.6927   0.8497  0.74789     C
C       0.6986   0.6683  0.53419     C
C       0.6986   0.8317  0.03419     C
O       0.7001   0.6534  0.29365     O
O       0.7001   0.8466  0.79365     O
H       0.7078   0.0688   0.8005     H
H       0.7078   0.4312   0.3005     H
C       0.7083   0.5801   0.8629     C
C       0.7083   0.9199   0.3629     C
O      0.70874  0.00626  0.89322     O
O      0.70874  0.49374  0.39322     O
H       0.7138   0.1782   0.7301     H
H       0.7138   0.3218   0.2301     H
H       0.7161   0.6843   0.0666     H
H       0.7161   0.8157   0.5666     H
H       0.7198   0.6375   0.0149     H
H       0.7198   0.8625   0.5149     H
N       0.7225   0.0211   0.1006     N
N       0.7225   0.4789   0.6006     N
H       0.7268   0.5842   0.8993     H
H       0.7268   0.9158   0.3993     H
Cu     0.72727   0.5563  0.65726    Cu
Cu     0.72727   0.9437  0.15726    Cu
C       0.7278   0.0793  0.07571     C
C       0.7278   0.4207  0.57571     C
H       0.7281   0.6099   0.2344     H
H       0.7281   0.8901   0.7344     H
Cu     0.73131  0.06474   0.6533    Cu
Cu     0.73131  0.43526   0.1533    Cu
H       0.7322    0.227   0.7827     H
H       0.7322    0.273   0.2827     H
C       0.7395   0.1582  0.61066     C
C       0.7395   0.3418  0.11066     C
H       0.7408   0.6213    0.545     H
H       0.7408   0.8787    0.045     H
N       0.7446   0.2164  0.58529     N
N       0.7446   0.2836  0.08529     N
Cu     0.74503  0.18216   0.0425    Cu
Cu     0.74503  0.31784   0.5425    Cu
N       0.7456   0.7368  0.51409     N
N       0.7456   0.7632  0.01409     N
C       0.7485   0.6806  0.03897     C
C       0.7485   0.8194  0.53897     C
C       0.7598   0.2109  0.97794     C
C       0.7598   0.2891  0.47794     C
C       0.7606   0.1973   0.7583     C
C       0.7606   0.3027   0.2583     C
N        0.765   0.2374  0.93866     N
N        0.765   0.2626  0.43866     N
Cu     0.76766   0.2001  0.37804    Cu
Cu     0.76766   0.2999  0.87804    Cu
C       0.7705   0.0627  0.80082     C
C       0.7705   0.4373  0.30082     C
Er     0.78008  0.61627  0.37115    Er
Er     0.78008  0.88373  0.87115    Er
N       0.7831   0.6049     0.84     N
N       0.7831   0.8951     0.34     N
C       0.7839   0.7245  0.47578     C
C       0.7839   0.7755  0.97578     C
H       0.7855   0.0116   0.3089     H
H       0.7855   0.4884   0.8089     H
O      0.78737  0.65414  0.45442     O
O      0.78737  0.84586  0.95442     O
O        0.789  0.73615  0.87275     O
O        0.789  0.76385  0.37275     O
H       0.8022   0.2362   0.7461     H
H       0.8022   0.2638   0.2461     H
O       0.8082  0.50353  0.31931     O
O       0.8082  0.99647  0.81931     O
N       0.8103   0.1243  0.78181     N
N       0.8103   0.3757  0.28181     N
H        0.811   0.7277   0.9632     H
H        0.811   0.7723   0.4632     H
H       0.8117   0.6646   0.0521     H
H       0.8117   0.8354   0.5521     H
H       0.8121   0.5636    0.775     H
H       0.8121   0.9364    0.275     H
C       0.8141   0.6447  0.66845     C
C       0.8141   0.8553  0.16845     C
C       0.8151   0.6811  0.84683     C
C       0.8151   0.8189  0.34683     C
N       0.8182   0.5274  0.16896     N
N       0.8182   0.9726  0.66896     N
C        0.819    0.542   0.8093     C
C        0.819    0.958   0.3093     C
H       0.8575     0.11   0.2213     H
H       0.8575     0.39   0.7213     H
N        0.862   0.7033  0.67151     N
N        0.862   0.7967  0.17151     N
C       0.8629   0.5879  0.17209     C
H       0.8629    0.696   0.8305     H
H       0.8629    0.804   0.3305     H
C       0.8629   0.9121  0.67209     C
H       0.8642   0.0669   0.9275     H
H       0.8642   0.4331   0.4275     H
H         0.87   0.5597   0.5464     H
H         0.87   0.9403   0.0464     H
H       0.8832    0.532   0.8233     H
H       0.8832    0.968   0.3233     H
N       0.8875   0.1876  0.36304     N
N       0.8875   0.3124  0.86304     N
O      0.90425  0.54385  0.41719     O
O      0.90425  0.95615  0.91719     O
O      0.90507  0.65782  0.33722     O
O      0.90507  0.84218  0.83722     O
C       0.9057   0.1175     0.78     C
C       0.9057   0.3825     0.28     C
C       0.9149    0.192   0.1583     C
C       0.9149    0.308   0.6583     C
H       0.9153   0.0671   0.7605     H
H       0.9153   0.4329   0.2605     H
H       0.9161   0.0276   0.2138     H
H       0.9161   0.4724   0.7138     H
C       0.9162   0.0324  0.92846     C
C       0.9162   0.4676  0.42846     C
H       0.9183   0.0267   0.0348     H
H       0.9183   0.4733   0.5348     H
C        0.919   0.0874   0.2244     C
C        0.919   0.4126   0.7244     C
H       0.9207   0.5011   0.5914     H
H       0.9207   0.9989   0.0914     H
H       0.9208   0.5752   0.2888     H
H       0.9208   0.9248   0.7888     H
C       0.9218   0.5219   0.5577     C
C       0.9218   0.9781   0.0577     C
H       0.9247   0.1686   0.7642     H
H       0.9247   0.3314   0.2642     H
Cu      0.9265  0.69126  0.16536    Cu
Cu      0.9265  0.80874  0.66536    Cu
H       0.9299   0.6718   0.5367     H
H       0.9299   0.8282   0.0367     H
H       0.9416   0.1122   0.8141     H
H       0.9416   0.3878   0.3141     H
C       0.9501   0.6198   0.3095     C
C       0.9501   0.8802   0.8095     C
H        0.951   0.0914   0.2594     H
H        0.951   0.4086   0.7594     H
C       0.9576   0.1881   0.3519     C
C       0.9576   0.3119   0.8519     C
N       0.9675    0.137  0.19291     N
N       0.9675    0.363  0.69291     N
H       0.9758   0.1924   0.9264     H
H       0.9758   0.3076   0.4264     H
H       0.9777   0.1688   0.9836     H
H       0.9777   0.3312   0.4836     H
C       0.9945   0.6575   0.5452     C
C       0.9945   0.8425   0.0452     C
N       0.9951   0.0682  0.94152     N
N       0.9951   0.4318  0.44152     N
