data_I
_chemical_name_common  '/home/zhangsd/repos/MofS-CGCNN/ML/data/SSD/clean_cifs/FIBHIJ_clean'
_cell_length_a 11.42870
_cell_length_b 11.70310
_cell_length_c 12.91800
_cell_angle_alpha 64.00500
_cell_angle_beta  89.78300
_cell_angle_gamma 71.12900
_space_group_name_H-M_alt      'P 1'


loop_
_space_group_symop_operation_xyz
  'x, y, z' 

loop_
_atom_site_label
_atom_site_fract_x
_atom_site_fract_y
_atom_site_fract_z
_atom_site_type_symbol
H       0.0327   0.5675   0.1308     H
C       0.0372   0.7043   0.7219     C
C       0.0403   0.1041   0.1026     C
C       0.0447    0.772   0.7937     C
C        0.059   0.1612   0.1708     C
H        0.069   0.7461   0.6504     H
C       0.0778   0.8901   0.9258     C
H       0.0789   0.0917   0.5208     H
H       0.0904   0.9309   0.9703     H
H       0.0905   0.4792   0.0678     H
H       0.0921   0.6096   0.7638     H
C       0.0922   0.2911   0.3103     C
H       0.1076   0.0615   0.0755     H
C       0.1077   0.5028   0.1271     C
H       0.1389   0.1553   0.1929     H
C       0.1508   0.3795   0.2407     C
N       0.1598    0.765   0.8246     N
C       0.1656   0.0752   0.5131     C
H       0.1716    0.542   0.1086     H
C       0.1762   0.8246   0.8885     C
C       0.1773   0.1967   0.4094     C
H       0.1995   0.9958   0.5018     H
H       0.2111    0.061   0.5827     H
H       0.2145   0.1282    0.799     H
H       0.2597   0.2099   0.8488     H
N       0.2642   0.3349   0.3013     N
C        0.284   0.1282   0.8405     C
N       0.2843   0.2193   0.4059     N
C       0.3091    0.813   0.9134     C
H       0.3141   0.6496   0.2224     H
Cu     0.31549  0.63807   0.7961    Cu
H       0.3185   0.3736    0.278     H
C       0.3224   0.0081   0.9578     C
N       0.3281   0.4603   0.9074     N
C       0.3302   0.8744    0.991     C
H       0.3364   0.8571   0.8398     H
C       0.3429   0.3477   0.9764     C
N       0.3515   0.0213   0.0503     N
H        0.353   0.1241    0.798     H
H       0.3618   0.7174   0.9504     H
C       0.3664   0.8036   0.1099     C
Cu     0.37501  0.16842  0.08005    Cu
N       0.3792   0.8948   0.1418     N
C       0.3907   0.6587   0.1959     C
H       0.4024   0.8752   0.2127     H
C         0.41   0.7059    0.684     C
H       0.4223   0.6015   0.1592     H
N       0.4372   0.0595   0.2455     N
H       0.4513   0.6318   0.2612     H
Cu     0.45441  0.13139    0.502    Cu
N       0.4641   0.7551   0.6139     N
C       0.4793   0.9898   0.3415     C
C       0.5207   0.0102   0.6585     C
N       0.5359   0.2449   0.3861     N
Cu     0.54559  0.86861    0.498    Cu
H       0.5487   0.3682   0.7388     H
N       0.5628   0.9405   0.7545     N
H       0.5777   0.3985   0.8408     H
C         0.59   0.2941    0.316     C
H       0.5976   0.1248   0.7873     H
C       0.6093   0.3413   0.8041     C
N       0.6208   0.1052   0.8582     N
Cu     0.62499  0.83158  0.91995    Cu
C       0.6336   0.1964   0.8901     C
H       0.6382   0.2826   0.0496     H
H        0.647   0.8759    0.202     H
N       0.6485   0.9787   0.9497     N
C       0.6571   0.6523   0.0236     C
H       0.6636   0.1429   0.1602     H
C       0.6698   0.1256    0.009     C
N       0.6719   0.5397   0.0926     N
C       0.6776   0.9919   0.0422     C
H       0.6815   0.6264    0.722     H
Cu     0.68451  0.36193   0.2039    Cu
H       0.6859   0.3504   0.7776     H
C       0.6909    0.187   0.0866     C
N       0.7157   0.7807   0.5941     N
C        0.716   0.8718   0.1595     C
N       0.7358   0.6651   0.6987     N
H       0.7403   0.7901   0.1512     H
H       0.7855   0.8718    0.201     H
H       0.7889    0.939   0.4173     H
H       0.8005   0.0042   0.4982     H
C       0.8227   0.8033   0.5906     C
C       0.8238   0.1754   0.1115     C
H       0.8284    0.458   0.8914     H
C       0.8344   0.9248   0.4869     C
N       0.8402    0.235   0.1754     N
C       0.8492   0.6205   0.7593     C
H       0.8611   0.8447   0.8071     H
C       0.8923   0.4972   0.8729     C
H       0.8924   0.9385   0.9245     H
C       0.9078   0.7089   0.6897     C
H       0.9079   0.3904   0.2362     H
H       0.9095   0.5208   0.9322     H
H       0.9096   0.0691   0.0297     H
H       0.9211   0.9083   0.4792     H
C       0.9222   0.1099   0.0742     C
H        0.931   0.2539   0.3496     H
C        0.941   0.8388   0.8292     C
C       0.9553    0.228   0.2063     C
C       0.9597   0.8959   0.8974     C
C       0.9628   0.2957   0.2781     C
H       0.9673   0.4325   0.8692     H
