data_I
_chemical_name_common  '/home/zhangsd/repos/MofS-CGCNN/ML/data/SSD/clean_cifs/FIDRIV_clean'
_cell_length_a 14.12730
_cell_length_b 23.69720
_cell_length_c 23.69720
_cell_angle_alpha 90.00000
_cell_angle_beta  90.00000
_cell_angle_gamma 90.00000
_space_group_name_H-M_alt      'P 1'


loop_
_space_group_symop_operation_xyz
  'x, y, z' 

loop_
_atom_site_label
_atom_site_fract_x
_atom_site_fract_y
_atom_site_fract_z
_atom_site_type_symbol
Dy         0.0      0.0  0.59012    Dy
Na         0.0      0.5  0.91899    Na
O        0.004   0.0633   0.5196     O
C       0.0098   0.1188  0.15452     C
H       0.0102   0.8095   0.9839     H
H        0.012   0.7658   0.1479     H
O       0.0137   0.8697   0.0996     O
H         0.02   0.8655   0.8982     H
C      0.02118   0.0832  0.36786     C
C        0.022    0.927  0.24324     C
C       0.0245   0.9285    0.471     C
H       0.0277   0.3074    0.056     H
H       0.0317   0.1795   0.8609     H
H       0.0336   0.2945   0.1457     H
H        0.037   0.2403   0.9506     H
H       0.0397   0.9041     0.36     H
C       0.0405   0.1475   0.8852     C
C       0.0427   0.2562   0.1576     C
C       0.0462   0.0692  0.42282     C
C       0.0468  0.39133   0.0453     C
C       0.0481   0.9149  0.18798     C
C       0.0489   0.2067   0.9721     C
C       0.0507   0.5961   0.0267     C
H       0.0518   0.2551   0.1978     H
H       0.0582      0.1   0.9848     H
H       0.0608   0.9495   0.2656     H
C       0.0619   0.0946  0.26505     C
O       0.0692  0.55765   0.9924     O
H       0.0714   0.1179   0.8647     H
C       0.0718  0.33637   0.0593     C
H       0.0861    0.216   0.0047     H
C       0.0872   0.0783  0.32463     C
C       0.0937   0.1403  0.17633     C
H       0.0954    0.005   0.1258     H
H       0.0961   0.4713   0.0408     H
H       0.0984   0.9517   0.0866     H
C       0.1019   0.1647   0.9362     C
O       0.1083   0.9119   0.4562     O
C       0.1128  0.43456   0.0502     C
O       0.1173   0.6268   0.0455     O
C        0.118   0.1149   0.9726     C
C       0.1197   0.1282  0.23159     C
C       0.1303  0.23159   0.1282     C
C        0.132   0.9726   0.1149     C
O       0.1327   0.0455   0.6268     O
C       0.1372   0.0502  0.43456     C
O       0.1417   0.4562   0.9119     O
C       0.1481   0.9362   0.1647     C
H       0.1516   0.0866   0.9517     H
H       0.1539   0.0408   0.4713     H
H       0.1546   0.1258    0.005     H
C       0.1563  0.17633   0.1403     C
C       0.1628  0.32463   0.0783     C
H       0.1639   0.0047    0.216     H
C       0.1782   0.0593  0.33637     C
H       0.1786   0.8647   0.1179     H
O       0.1808   0.9924  0.55765     O
C       0.1881  0.26505   0.0946     C
H       0.1892   0.2656   0.9495     H
H       0.1918   0.9848      0.1     H
H       0.1982   0.1978   0.2551     H
C       0.1993   0.0267   0.5961     C
C       0.2011   0.9721   0.2067     C
C       0.2019  0.18798   0.9149     C
C       0.2032   0.0453  0.39133     C
C       0.2038  0.42282   0.0692     C
C       0.2073   0.1576   0.2562     C
C       0.2095   0.8852   0.1475     C
H       0.2103     0.36   0.9041     H
H        0.213   0.9506   0.2403     H
H       0.2164   0.1457   0.2945     H
H       0.2183   0.8609   0.1795     H
H       0.2223    0.056   0.3074     H
C       0.2255    0.471   0.9285     C
C        0.228  0.24324    0.927     C
C      0.22882  0.36786   0.0832     C
H         0.23   0.8982   0.8655     H
O       0.2363   0.0996   0.8697     O
H        0.238   0.1479   0.7658     H
H       0.2398   0.9839   0.8095     H
C       0.2402  0.15452   0.1188     C
O        0.246   0.5196   0.0633     O
Dy        0.25  0.59012      0.0    Dy
Na        0.25  0.91899      0.5    Na
O        0.254   0.5196   0.9367     O
C       0.2598  0.15452   0.8812     C
H       0.2602   0.9839   0.1905     H
H        0.262   0.1479   0.2342     H
O       0.2637   0.0996   0.1303     O
H         0.27   0.8982   0.1345     H
C      0.27118  0.36786   0.9168     C
C        0.272  0.24324    0.073     C
C       0.2745    0.471   0.0715     C
H       0.2777    0.056   0.6926     H
H       0.2817   0.8609   0.8205     H
H       0.2836   0.1457   0.7055     H
H        0.287   0.9506   0.7597     H
H       0.2897     0.36   0.0959     H
C       0.2905   0.8852   0.8525     C
C       0.2927   0.1576   0.7438     C
C       0.2962  0.42282   0.9308     C
C       0.2968   0.0453  0.60867     C
C       0.2981  0.18798   0.0851     C
C       0.2989   0.9721   0.7933     C
C       0.3007   0.0267   0.4039     C
H       0.3018   0.1978   0.7449     H
H       0.3082   0.9848      0.9     H
H       0.3108   0.2656   0.0505     H
C       0.3119  0.26505   0.9054     C
O       0.3192   0.9924  0.44235     O
H       0.3214   0.8647   0.8821     H
C       0.3218   0.0593  0.66363     C
H       0.3361   0.0047    0.784     H
C       0.3372  0.32463   0.9217     C
C       0.3437  0.17633   0.8597     C
H       0.3454   0.1258    0.995     H
H       0.3461   0.0408   0.5287     H
H       0.3484   0.0866   0.0483     H
C       0.3519   0.9362   0.8353     C
O       0.3583   0.4562   0.0881     O
C       0.3628   0.0502  0.56544     C
O       0.3673   0.0455   0.3732     O
C        0.368   0.9726   0.8851     C
C       0.3697  0.23159   0.8718     C
C       0.3803   0.1282  0.76841     C
C        0.382   0.1149   0.0274     C
O       0.3827   0.6268   0.9545     O
C       0.3872  0.43456   0.9498     C
O       0.3917   0.9119   0.5438     O
C       0.3981   0.1647   0.0638     C
H       0.4016   0.9517   0.9134     H
H       0.4039   0.4713   0.9592     H
H       0.4046    0.005   0.8742     H
C       0.4063   0.1403  0.82367     C
C       0.4128   0.0783  0.67537     C
H       0.4139    0.216   0.9953     H
C       0.4282  0.33637   0.9407     C
H       0.4286   0.1179   0.1353     H
O       0.4308  0.55765   0.0076     O
C       0.4381   0.0946  0.73495     C
H       0.4392   0.9495   0.7344     H
H       0.4418      0.1   0.0152     H
H       0.4482   0.2551   0.8022     H
C       0.4493   0.5961   0.9733     C
C       0.4511   0.2067   0.0279     C
C       0.4519   0.9149  0.81202     C
C       0.4532  0.39133   0.9547     C
C       0.4538   0.0692  0.57718     C
C       0.4573   0.2562   0.8424     C
C       0.4595   0.1475   0.1148     C
H       0.4603   0.9041     0.64     H
H        0.463   0.2403   0.0494     H
H       0.4664   0.2945   0.8543     H
H       0.4683   0.1795   0.1391     H
H       0.4723   0.3074    0.944     H
C       0.4755   0.9285    0.529     C
C        0.478    0.927  0.75676     C
C      0.47882   0.0832  0.63214     C
H         0.48   0.8655   0.1018     H
O       0.4863   0.8697   0.9004     O
H        0.488   0.7658   0.8521     H
H       0.4898   0.8095   0.0161     H
C       0.4902   0.1188  0.84548     C
O        0.496   0.0633   0.4804     O
Dy         0.5      0.0  0.40988    Dy
Na         0.5      0.5  0.08101    Na
O        0.504   0.9367   0.4804     O
C       0.5098   0.8812  0.84548     C
H       0.5102   0.1905   0.0161     H
H        0.512   0.2342   0.8521     H
O       0.5137   0.1303   0.9004     O
H         0.52   0.1345   0.1018     H
C      0.52118   0.9168  0.63214     C
C        0.522    0.073  0.75676     C
C       0.5245   0.0715    0.529     C
H       0.5277   0.6926    0.944     H
H       0.5317   0.8205   0.1391     H
H       0.5336   0.7055   0.8543     H
H        0.537   0.7597   0.0494     H
H       0.5397   0.0959     0.64     H
C       0.5405   0.8525   0.1148     C
C       0.5427   0.7438   0.8424     C
C       0.5462   0.9308  0.57718     C
C       0.5468  0.60867   0.9547     C
C       0.5481   0.0851  0.81202     C
C       0.5489   0.7933   0.0279     C
C       0.5507   0.4039   0.9733     C
H       0.5518   0.7449   0.8022     H
H       0.5582      0.9   0.0152     H
H       0.5608   0.0505   0.7344     H
C       0.5619   0.9054  0.73495     C
O       0.5692  0.44235   0.0076     O
H       0.5714   0.8821   0.1353     H
C       0.5718  0.66363   0.9407     C
H       0.5861    0.784   0.9953     H
C       0.5872   0.9217  0.67537     C
C       0.5937   0.8597  0.82367     C
H       0.5954    0.995   0.8742     H
H       0.5961   0.5287   0.9592     H
H       0.5984   0.0483   0.9134     H
C       0.6019   0.8353   0.0638     C
O       0.6083   0.0881   0.5438     O
C       0.6128  0.56544   0.9498     C
O       0.6173   0.3732   0.9545     O
C        0.618   0.8851   0.0274     C
C       0.6197   0.8718  0.76841     C
C       0.6303  0.76841   0.8718     C
C        0.632   0.0274   0.8851     C
O       0.6327   0.9545   0.3732     O
C       0.6372   0.9498  0.56544     C
O       0.6417   0.5438   0.0881     O
C       0.6481   0.0638   0.8353     C
H       0.6516   0.9134   0.0483     H
H       0.6539   0.9592   0.5287     H
H       0.6546   0.8742    0.995     H
C       0.6563  0.82367   0.8597     C
C       0.6628  0.67537   0.9217     C
H       0.6639   0.9953    0.784     H
C       0.6782   0.9407  0.66363     C
H       0.6786   0.1353   0.8821     H
O       0.6808   0.0076  0.44235     O
C       0.6881  0.73495   0.9054     C
H       0.6892   0.7344   0.0505     H
H       0.6918   0.0152      0.9     H
H       0.6982   0.8022   0.7449     H
C       0.6993   0.9733   0.4039     C
C       0.7011   0.0279   0.7933     C
C       0.7019  0.81202   0.0851     C
C       0.7032   0.9547  0.60867     C
C       0.7038  0.57718   0.9308     C
C       0.7073   0.8424   0.7438     C
C       0.7095   0.1148   0.8525     C
H       0.7103     0.64   0.0959     H
H        0.713   0.0494   0.7597     H
H       0.7164   0.8543   0.7055     H
H       0.7183   0.1391   0.8205     H
H       0.7223    0.944   0.6926     H
C       0.7255    0.529   0.0715     C
C        0.728  0.75676    0.073     C
C      0.72882  0.63214   0.9168     C
H         0.73   0.1018   0.1345     H
O       0.7363   0.9004   0.1303     O
H        0.738   0.8521   0.2342     H
H       0.7398   0.0161   0.1905     H
C       0.7402  0.84548   0.8812     C
O        0.746   0.4804   0.9367     O
Na        0.75  0.08101      0.5    Na
Dy        0.75  0.40988      0.0    Dy
O        0.754   0.4804   0.0633     O
C       0.7598  0.84548   0.1188     C
H       0.7602   0.0161   0.8095     H
H        0.762   0.8521   0.7658     H
O       0.7637   0.9004   0.8697     O
H         0.77   0.1018   0.8655     H
C      0.77118  0.63214   0.0832     C
C        0.772  0.75676    0.927     C
C       0.7745    0.529   0.9285     C
H       0.7777    0.944   0.3074     H
H       0.7817   0.1391   0.1795     H
H       0.7836   0.8543   0.2945     H
H        0.787   0.0494   0.2403     H
H       0.7897     0.64   0.9041     H
C       0.7905   0.1148   0.1475     C
C       0.7927   0.8424   0.2562     C
C       0.7962  0.57718   0.0692     C
C       0.7968   0.9547  0.39133     C
C       0.7981  0.81202   0.9149     C
C       0.7989   0.0279   0.2067     C
C       0.8007   0.9733   0.5961     C
H       0.8018   0.8022   0.2551     H
H       0.8082   0.0152      0.1     H
H       0.8108   0.7344   0.9495     H
C       0.8119  0.73495   0.0946     C
O       0.8192   0.0076  0.55765     O
H       0.8214   0.1353   0.1179     H
C       0.8218   0.9407  0.33637     C
H       0.8361   0.9953    0.216     H
C       0.8372  0.67537   0.0783     C
C       0.8437  0.82367   0.1403     C
H       0.8454   0.8742    0.005     H
H       0.8461   0.9592   0.4713     H
H       0.8484   0.9134   0.9517     H
C       0.8519   0.0638   0.1647     C
O       0.8583   0.5438   0.9119     O
C       0.8628   0.9498  0.43456     C
O       0.8673   0.9545   0.6268     O
C        0.868   0.0274   0.1149     C
C       0.8697  0.76841   0.1282     C
C       0.8803   0.8718  0.23159     C
C        0.882   0.8851   0.9726     C
O       0.8827   0.3732   0.0455     O
C       0.8872  0.56544   0.0502     C
O       0.8917   0.0881   0.4562     O
C       0.8981   0.8353   0.9362     C
H       0.9016   0.0483   0.0866     H
H       0.9039   0.5287   0.0408     H
H       0.9046    0.995   0.1258     H
C       0.9063   0.8597  0.17633     C
C       0.9128   0.9217  0.32463     C
H       0.9139    0.784   0.0047     H
C       0.9282  0.66363   0.0593     C
H       0.9286   0.8821   0.8647     H
O       0.9308  0.44235   0.9924     O
C       0.9381   0.9054  0.26505     C
H       0.9392   0.0505   0.2656     H
H       0.9418      0.9   0.9848     H
H       0.9482   0.7449   0.1978     H
C       0.9493   0.4039   0.0267     C
C       0.9511   0.7933   0.9721     C
C       0.9519   0.0851  0.18798     C
C       0.9532  0.60867   0.0453     C
C       0.9538   0.9308  0.42282     C
C       0.9573   0.7438   0.1576     C
C       0.9595   0.8525   0.8852     C
H       0.9603   0.0959     0.36     H
H        0.963   0.7597   0.9506     H
H       0.9664   0.7055   0.1457     H
H       0.9683   0.8205   0.8609     H
H       0.9723   0.6926    0.056     H
C       0.9755   0.0715    0.471     C
C        0.978    0.073  0.24324     C
C      0.97882   0.9168  0.36786     C
H         0.98   0.1345   0.8982     H
O       0.9863   0.1303   0.0996     O
H        0.988   0.2342   0.1479     H
H       0.9898   0.1905   0.9839     H
C       0.9902   0.8812  0.15452     C
O        0.996   0.9367   0.5196     O
