data_I
_chemical_name_common  '/home/zhangsd/repos/MofS-CGCNN/ML/data/SSD/clean_cifs/FIFPOA_clean'
_cell_length_a  4.81050
_cell_length_b  7.67620
_cell_length_c 17.84480
_cell_angle_alpha 90.00000
_cell_angle_beta  90.00000
_cell_angle_gamma 90.00000
_space_group_name_H-M_alt      'P 1'


loop_
_space_group_symop_operation_xyz
  'x, y, z' 

loop_
_atom_site_label
_atom_site_fract_x
_atom_site_fract_y
_atom_site_fract_z
_atom_site_type_symbol
O       0.0701   0.2448  0.61455     O
O       0.0701   0.2552  0.11455     O
O       0.0701   0.7448  0.88545     O
O       0.0701   0.7552  0.38545     O
C       0.0933   0.0956   0.1069     C
C       0.0933   0.4044   0.6069     C
C       0.0933   0.5956   0.3931     C
C       0.0933   0.9044   0.8931     C
O       0.0949   0.0205  0.84446     O
O       0.0949   0.4795  0.34446     O
O       0.0949   0.5205  0.65554     O
O       0.0949   0.9795  0.15554     O
C       0.0969   0.0335   0.0308     C
C       0.0969   0.4665   0.5308     C
C       0.0969   0.5335   0.4692     C
C       0.0969   0.9665   0.9692     C
O        0.233   0.1982   0.2393     O
O        0.233   0.3018   0.7393     O
O        0.233   0.6982   0.2607     O
O        0.233   0.8018   0.7607     O
O       0.4633   0.0173  0.31148     O
O       0.4633   0.4827  0.81148     O
O       0.4633   0.5173  0.18852     O
O       0.4633   0.9827  0.68852     O
C        0.478   0.1595   0.2772     C
C        0.478   0.3405   0.7772     C
C        0.478   0.6595   0.2228     C
C        0.478   0.8405   0.7228     C
O        0.704   0.2457  0.27748     O
O        0.704   0.2543  0.77748     O
O        0.704   0.7457  0.22252     O
O        0.704   0.7543  0.72252     O
Eu     0.97021  0.04265  0.71096    Eu
Eu     0.97021  0.45735  0.21096    Eu
Eu     0.97021  0.54265  0.78904    Eu
Eu     0.97021  0.95735  0.28904    Eu
