data_I
_chemical_name_common  '/home/zhangsd/repos/MofS-CGCNN/ML/data/SSD/clean_cifs/FIPKUM_clean'
_cell_length_a 10.00400
_cell_length_b 10.29300
_cell_length_c 17.91400
_cell_angle_alpha 103.66000
_cell_angle_beta  99.58000
_cell_angle_gamma 93.45000
_space_group_name_H-M_alt      'P 1'


loop_
_space_group_symop_operation_xyz
  'x, y, z' 

loop_
_atom_site_label
_atom_site_fract_x
_atom_site_fract_y
_atom_site_fract_z
_atom_site_type_symbol
O       0.0135   0.2704  0.29059     O
H       0.0445   0.0434   0.3091     H
Zn     0.05601   0.5422  0.32053    Zn
O       0.0574   0.7919  0.28203     O
C       0.0624   0.3063   0.3608     C
C       0.0784   0.0657   0.3626     C
O       0.0875   0.4288  0.39852     O
C       0.0929     0.82   0.3541     C
C       0.0954   0.1994   0.4045     C
O       0.1077   0.5222  0.78863     O
C       0.1119   0.9645  0.40013     C
O       0.1129   0.7297  0.39183     O
C       0.1461   0.2333   0.4845     C
H       0.1576   0.3227   0.5127     H
C       0.1597   0.9991     0.48     C
O       0.1612   0.4341  0.67511     O
H       0.1788    0.932   0.5059     H
C       0.1795   0.1324   0.5218     C
H       0.1813   0.1689   0.7534     H
O       0.1936   0.5044  0.25109     O
C       0.1954   0.4903   0.7471     C
H       0.1983    0.235   0.6321     H
N       0.2314   0.1695  0.60394     N
H       0.2493   0.2314   0.8879     H
C       0.2736   0.1807   0.7753     C
H       0.2893   0.4034   0.1288     H
C       0.3141   0.2177   0.8559     C
C       0.3171   0.5045   0.2836     C
H       0.3181    0.582   0.8946     H
C       0.3284    0.109   0.6404     C
C        0.344   0.5189  0.78291     C
O        0.357   0.5241  0.35463     O
H       0.3598   0.7673   0.1384     H
H       0.3623   0.3755   0.9999     H
C       0.3688   0.1614   0.7273     C
C       0.3814   0.4236   0.1509     C
C       0.3837   0.5688   0.8631     C
O       0.3841   0.0159  0.60695     O
O       0.3947   0.7837  0.99959     O
H       0.4152   0.4657   0.6823     H
C       0.4204   0.4759  0.23073     C
H       0.4294   0.8298   0.2723     H
N       0.4364   0.3505  0.02151     N
C       0.4419   0.4977   0.7362     C
C       0.4523   0.2342   0.8888     C
C       0.4523   0.7816   0.1599     C
C       0.4791   0.4009  0.10323     C
C        0.494   0.8185   0.2401     C
C       0.4958   0.7344   0.0251     C
C       0.5042   0.2656   0.9749     C
C        0.506   0.1815   0.7599     C
C       0.5209   0.5991  0.89677     C
C       0.5477   0.2184   0.8401     C
C       0.5477   0.7658   0.1112     C
C       0.5581   0.5023   0.2638     C
N       0.5636   0.6495  0.97849     N
H       0.5706   0.1702   0.7277     H
C       0.5796   0.5241  0.76927     C
H       0.5848   0.5343   0.3177     H
O       0.6053   0.2163  0.00041     O
O       0.6159   0.9841  0.39305     O
C       0.6163   0.4312   0.1369     C
C       0.6186   0.5764   0.8491     C
C       0.6312   0.8386   0.2727     C
H       0.6377   0.6245   0.0001     H
H       0.6402   0.2327   0.8616     H
O        0.643   0.4759  0.64537     O
C        0.656   0.4811  0.21709     C
C       0.6716    0.891   0.3596     C
H       0.6819    0.418   0.1054     H
C       0.6829   0.4955   0.7164     C
C       0.6859   0.7823   0.1441     C
H       0.7107   0.5966   0.8712     H
C       0.7264   0.8193   0.2247     C
H       0.7507   0.7686   0.1121     H
N       0.7686   0.8305  0.39606     N
H       0.8017    0.765   0.3679     H
C       0.8046   0.5097   0.2529     C
O       0.8064   0.4956  0.74891     O
H       0.8187   0.8311   0.2466     H
C       0.8205   0.8676   0.4782     C
H       0.8212    0.068   0.4941     H
O       0.8388   0.5659  0.32489     O
C       0.8403   0.0009     0.52     C
H       0.8424   0.6773   0.4873     H
C       0.8539   0.7667   0.5155     C
O       0.8871   0.2703  0.60817     O
C       0.8881   0.0355  0.59987     C
O       0.8923   0.4778  0.21137     O
C       0.9046   0.8006   0.5955     C
C       0.9071     0.18   0.6459     C
O       0.9125   0.5712  0.60148     O
C       0.9216   0.9343   0.6374     C
C       0.9376   0.6937   0.6392     C
O       0.9426   0.2081  0.71797     O
Zn     0.94399   0.4578  0.67947    Zn
H       0.9555   0.9566   0.6909     H
O       0.9865   0.7296  0.70941     O
