data_I
_chemical_name_common  '/home/zhangsd/repos/MofS-CGCNN/ML/data/SSD/clean_cifs/FIRNUR_clean'
_cell_length_a 15.67300
_cell_length_b 15.67300
_cell_length_c 18.53200
_cell_angle_alpha 90.00000
_cell_angle_beta  90.00000
_cell_angle_gamma 120.00000
_space_group_name_H-M_alt      'P 1'


loop_
_space_group_symop_operation_xyz
  'x, y, z' 

loop_
_atom_site_label
_atom_site_fract_x
_atom_site_fract_y
_atom_site_fract_z
_atom_site_type_symbol
Ni         0.0  0.17763  0.16667    Ni
N          0.0   0.3089  0.16667     N
C          0.0    0.489  0.16667     C
C          0.0   0.5862  0.16667     C
N         -0.0   0.7524  0.16667     N
H       0.0026   0.1148  0.01337     H
C       0.0175   0.5871   0.6258     C
C       0.0201   0.7361   0.6314     C
O       0.0302   0.8748  0.74983     O
C       0.0338   0.7221   0.2236     C
N       0.0351    0.639   0.2251     N
N        0.037   0.5197    0.594     N
C        0.037   0.6729   0.5936     C
C       0.0371   0.3734   0.2178     C
C       0.0372   0.8244   0.5909     C
C       0.0394   0.4643   0.2249     C
H       0.0421   0.8942   0.2518     H
H       0.0439   0.4748   0.6134     H
H        0.061   0.5277   0.5493     H
H       0.0614   0.6876   0.5468     H
C        0.065   0.1705  0.01537     C
H       0.0652   0.5044   0.2654     H
H       0.0665   0.3578   0.2552     H
C       0.0682   0.8759   0.2899     C
C       0.0695   0.7885   0.2872     C
N       0.0897   0.2218  0.07347     N
H       0.0983   0.7029   0.3479     H
C       0.0984   0.7622    0.347     C
C       0.1055    0.935   0.3487     C
H       0.1058   0.1479  0.91847     H
H       0.1122   0.9974   0.3467     H
H       0.1148   0.0026   0.6533     H
O       0.1197   0.8745   0.5632     O
C       0.1241   0.1923  0.95657     C
O       0.1252   0.1554   0.4165     O
O       0.1255   0.2452  0.22987     O
C       0.1281   0.8215   0.4067     C
N       0.1321   0.9103   0.4068     N
H       0.1458   0.8005   0.4481     H
H       0.1479   0.1058   0.7482     H
O       0.1554   0.1252  0.25017     O
C       0.1705    0.065   0.6513     C
C       0.1756   0.2128  0.25757     C
Ni     0.17763     -0.0      0.5    Ni
C       0.1785   0.3066  0.07337     C
C       0.1923   0.1241   0.7101     C
H       0.1995   0.3453  0.11477     H
C       0.2115    0.281  0.95387     C
C       0.2128   0.1756   0.4091     C
N       0.2218   0.0897   0.5932     N
C       0.2378   0.3362  0.01367     C
O       0.2452   0.1255   0.4368     O
N       0.2476   0.2476  0.83333     N
C       0.2639    0.284  0.29807     C
C       0.2779   0.3117  0.89027     C
C        0.281   0.2115   0.7128     C
C        0.284   0.2639   0.3686     C
H       0.2913   0.9335  0.58853     H
H       0.2971   0.3954  0.01457     H
C       0.3066   0.1785   0.5933     C
N       0.3089     -0.0      0.5     N
C       0.3117   0.2779   0.7764     C
H       0.3124   0.3738  0.21347     H
C       0.3271   0.3641  0.26027     C
C       0.3362   0.2378    0.653     C
C       0.3363   0.9629  0.55113     C
H       0.3453   0.1995   0.5519     H
H       0.3578   0.0665  0.41147     H
N        0.361   0.3961  0.89177     N
C       0.3641   0.3271   0.4064     C
C       0.3734   0.0371  0.44887     C
H       0.3738   0.3124   0.4532     H
H       0.3954   0.2971   0.6521     H
N       0.3961    0.361   0.7749     N
C       0.4129   0.4304  0.29247     C
C       0.4138   0.4138  0.83333     C
C       0.4249   0.9606  0.55823     C
C       0.4304   0.4129   0.3742     C
H       0.4309   0.9561  0.94673     H
H       0.4392   0.9348  0.59873     H
C       0.4643   0.0394  0.44177     C
H       0.4667    0.939  0.88263     H
H       0.4723   0.5333  0.21597     H
H       0.4748   0.0439  0.05327     H
N       0.4803   0.5173  0.26067     N
N       0.4827    0.963  0.92733     N
C        0.489     -0.0      0.5     C
H       0.4956   0.5608  0.93207     H
H       0.5044   0.0652  0.40127     H
C        0.511    0.511  0.83333     C
N       0.5173   0.4803    0.406     N
N       0.5197    0.037  0.07267     N
H       0.5252   0.5691  0.28007     H
H       0.5277    0.061  0.11737     H
H       0.5333   0.4723   0.4507     H
C       0.5357   0.5751  0.89157     C
H       0.5608   0.4956   0.7346     H
H       0.5691   0.5252   0.3866     H
C       0.5696   0.9825  0.95913     C
C       0.5751   0.5357   0.7751     C
C       0.5862     -0.0      0.5     C
C       0.5871   0.0175  0.04087     C
N       0.6039   0.9649  0.55843     N
H       0.6046   0.9017  0.68123     H
H       0.6262   0.9386  0.88013     H
C       0.6266   0.6637  0.88447     C
C       0.6359    0.963  0.92693     C
N        0.639   0.0351  0.44157     N
H       0.6422   0.7087  0.92187     H
H       0.6547   0.8542  0.78143     H
C       0.6637   0.6266   0.7822     C
C       0.6638   0.9016  0.68033     C
C       0.6729    0.037  0.07307     C
H       0.6876   0.0614  0.11987     H
C       0.6883   0.9662  0.55693     C
N       0.6911   0.6911  0.83333     N
C       0.6934   0.8719  0.74003     C
H       0.7029   0.0983  0.31877     H
H       0.7087   0.6422   0.7448     H
C        0.716   0.9799  0.96473     C
C        0.719   0.9305  0.62053     C
C       0.7221   0.0338  0.44307     C
C       0.7361   0.0201  0.03527     C
N       0.7524     -0.0      0.5     N
O       0.7548   0.8803  0.89653     O
C       0.7622   0.0984  0.31967     C
N       0.7782   0.8679  0.74013     N
C       0.7872   0.9628  0.92423     C
C       0.7885   0.0695  0.37947     C
H       0.8005   0.1458  0.21857     H
C       0.8077   0.9318  0.62323     C
C       0.8215   0.1281  0.25997     C
Ni     0.82237  0.82237  0.83333    Ni
C       0.8244   0.0372  0.07577     C
C       0.8295   0.8945  0.68203     C
O       0.8446   0.9698  0.08317     O
H       0.8521   0.9579  0.58513     H
H       0.8542   0.6547  0.88523     H
N       0.8679   0.7782  0.92653     N
C       0.8719   0.6934  0.92663     C
O       0.8745   0.1197  0.10347     O
O       0.8748   0.0302  0.91683     O
C       0.8759   0.0682  0.37677     C
O       0.8803   0.7548  0.77013     O
H       0.8852   0.8878  0.68003     H
H       0.8878   0.8852  0.98663     H
H       0.8942   0.0421  0.41487     H
C       0.8945   0.8295  0.98463     C
C       0.9016   0.6638  0.98633     C
H       0.9017   0.6046  0.98543     H
N       0.9103   0.1321  0.25987     N
C       0.9305    0.719  0.04613     C
C       0.9318   0.8077  0.04343     C
H       0.9335   0.2913  0.07813     H
H       0.9348   0.4392  0.06793     H
C        0.935   0.1055  0.31797     C
H       0.9386   0.6262  0.78653     H
H        0.939   0.4667  0.78403     H
H       0.9561   0.4309  0.71993     H
H       0.9579   0.8521  0.08153     H
C       0.9606   0.4249  0.10843     C
C       0.9628   0.7872  0.74243     C
C       0.9629   0.3363  0.11553     C
N        0.963   0.4827  0.73933     N
C        0.963   0.6359  0.73973     C
N       0.9649   0.6039  0.10823     N
C       0.9662   0.6883  0.10973     C
O       0.9698   0.8446   0.5835     O
C       0.9799    0.716  0.70193     C
C       0.9825   0.5696  0.70753     C
H       0.9974   0.1122  0.31997     H
