data_I
_chemical_name_common  '/home/zhangsd/repos/MofS-CGCNN/ML/data/SSD/clean_cifs/FIRNOL_clean'
_cell_length_a 15.63800
_cell_length_b 15.63800
_cell_length_c 18.49900
_cell_angle_alpha 90.00000
_cell_angle_beta  90.00000
_cell_angle_gamma 120.00000
_space_group_name_H-M_alt      'P 1'


loop_
_space_group_symop_operation_xyz
  'x, y, z' 

loop_
_atom_site_label
_atom_site_fract_x
_atom_site_fract_y
_atom_site_fract_z
_atom_site_type_symbol
N          0.0   0.2484  0.16667     N
C          0.0   0.4171  0.16667     C
C          0.0   0.5118  0.16667     C
N          0.0   0.6896  0.16667     N
Ni         0.0  0.82381  0.16667    Ni
H       0.0109   0.9078   0.3162     H
C       0.0213   0.2847  0.70127     C
C       0.0253   0.4391  0.70257     C
O       0.0317   0.1576  0.58617     O
C       0.0322   0.3102  0.10977     C
N       0.0329   0.3956  0.10787     N
C       0.0349    0.662  0.11167     C
C       0.0354    0.576  0.10877     C
C       0.0369   0.2108  0.74277     C
C       0.0402    0.369  0.73887     C
H       0.0434   0.1487  0.08397     H
O       0.0573   0.5963  0.69767     O
H       0.0596   0.5601  0.06807     H
H       0.0607   0.7046  0.07247     H
H       0.0619   0.3786  0.78657     H
N       0.0626   0.5366  0.73747     N
C       0.0647   0.1903  0.04397     C
C       0.0651   0.2784  0.04607     C
C       0.0687   0.9047    0.317     C
O        0.074    0.546  0.80297     O
N       0.0918   0.8704  0.25899     N
H       0.0922   0.1031  0.98287     H
C       0.0953    0.164  0.98367     C
C       0.0997   0.3366  0.98627     C
H       0.1029   0.3976  0.98547     H
H       0.1031   0.0922   0.6838     H
H       0.1053   0.9566   0.4173     H
O        0.119   0.2438   0.7693     O
O       0.1248    0.881  0.10263     O
C       0.1256   0.9353   0.3773     C
O       0.1259   0.9683   0.9195     O
N       0.1296   0.2214  0.92566     N
C       0.1297   0.3055  0.92707     C
H       0.1487   0.0434   0.5827     H
H       0.1511   0.3456  0.88627     H
O       0.1576   0.0317   0.0805     O
C        0.164   0.0953    0.683     C
C       0.1739   0.9631   0.0761     C
C       0.1758   0.8703   0.2604     C
Ni     0.17619  0.17619  0.83333    Ni
C       0.1903   0.0647   0.6227     C
H       0.1945   0.8489   0.2196     H
C       0.2108   0.0369   0.9239     C
C       0.2133   0.9349   0.3794     C
N       0.2214   0.1296  0.74101     N
C       0.2369   0.9003   0.3196     C
O       0.2438    0.119  0.89737     O
N       0.2484      0.0      0.5     N
C       0.2634   0.9787   0.0346     C
C        0.278   0.9678   0.4431     C
C       0.2784   0.0651   0.6206     C
C       0.2847   0.0213   0.9654     C
H       0.2947   0.8971   0.3188     H
H       0.2954   0.3561  0.73913     H
C       0.3055   0.1297   0.7396     C
C       0.3102   0.0322   0.5569     C
N       0.3104   0.3104  0.83333     N
H       0.3167   0.9381   0.1199     H
C       0.3288   0.9598   0.0722     C
C       0.3366   0.0997   0.6804     C
C        0.338   0.3729  0.77833     C
H       0.3456   0.1511   0.7804     H
H       0.3561   0.2954  0.92753     H
N       0.3627   0.9671   0.4412     N
C        0.369   0.0402   0.9278     C
C       0.3729    0.338  0.88833     C
H       0.3786   0.0619   0.8801     H
N       0.3956   0.0329   0.5588     N
H       0.3976   0.1029   0.6812     H
O       0.4037    0.461  0.36433     O
C       0.4138   0.9747   0.0359     C
C       0.4171     -0.0      0.5     C
C        0.424   0.4594  0.77543     C
C       0.4391   0.0253   0.9641     C
H       0.4399   0.4995  0.73473     H
O        0.454    0.528  0.46963     O
C       0.4594    0.424  0.89123     C
O        0.461   0.4037  0.30233     O
N       0.4634    0.526  0.40413     N
O        0.472    0.926   0.1363     O
N        0.474   0.9374   0.0708     N
C       0.4882   0.4882  0.83333     C
H       0.4995   0.4399  0.93193     H
H       0.5005   0.9404   0.4014     H
C       0.5118      0.0      0.5     C
N        0.526   0.4634  0.26253     N
O        0.528    0.454  0.19703     O
N       0.5366   0.0626   0.9292     N
O        0.539   0.9427    0.031     O
C       0.5406   0.9646   0.4421     C
O        0.546    0.074   0.8637     O
H       0.5601   0.0596   0.5986     H
C       0.5609   0.5862  0.36923     C
C        0.576   0.0354   0.5579     C
C       0.5829   0.5829  0.83333     C
C       0.5862   0.5609  0.29743     C
O       0.5963   0.0573    0.969     O
H       0.6024   0.7053  0.65213     H
N       0.6044   0.6373  0.77453     N
H       0.6214   0.6833  0.45323     H
C       0.6271   0.9651    0.445     C
C        0.631   0.6712  0.40553     C
N       0.6373   0.6044  0.89213     N
H       0.6439   0.9393   0.4058     H
H       0.6544   0.8055  0.55293     H
C        0.662   0.0349    0.555     C
C       0.6634   0.7631  0.65293     C
C       0.6712    0.631  0.26113     C
H       0.6833   0.6214  0.21343     H
N       0.6896     -0.0      0.5     N
C       0.6898    0.722  0.77643     C
C       0.6945   0.8242  0.59373     C
H       0.7046   0.0607   0.5942     H
H       0.7053   0.6024  0.01453     H
C       0.7153   0.7366  0.36793     C
C       0.7216   0.7867  0.71273     C
C        0.722   0.6898  0.89023     C
C       0.7366   0.7153  0.29873     C
N       0.7516   0.7516  0.83333     N
O       0.7562   0.8752  0.43596     O
C       0.7631   0.6634  0.01373     C
N       0.7786   0.9082  0.59232     N
C       0.7867   0.7216  0.95393     C
C       0.7892   0.8261  0.40943     C
H       0.8055   0.6544  0.11373     H
C       0.8097   0.8744  0.71063     C
Ni     0.82381     -0.0      0.5    Ni
C       0.8242   0.6945  0.07293     C
C       0.8261   0.7892  0.25723     C
C        0.836   0.9313  0.65033     C
O       0.8424   0.8741  0.25283     O
H       0.8489   0.1945  0.44707     H
H       0.8513   0.8947  0.75063     H
C       0.8703   0.1758  0.40627     C
N       0.8704   0.0918  0.40768     N
O       0.8741   0.8424  0.41383     O
C       0.8744   0.8097  0.95603     C
O       0.8752   0.7562   0.2307     O
O        0.881   0.1248  0.56404     O
H       0.8947   0.8513  0.91603     H
H       0.8969   0.9891  0.64953     H
H       0.8971   0.2947  0.34787     H
C       0.9003   0.2369  0.34707     C
C       0.9047   0.0687  0.34967     C
H       0.9078   0.0109  0.35047     H
N       0.9082   0.7786  0.07434     N
O        0.926    0.472  0.53037     O
C       0.9313    0.836  0.01633     C
C       0.9349   0.2133  0.28727     C
C       0.9353   0.1256  0.28937     C
N       0.9374    0.474  0.59587     N
H       0.9381   0.3167  0.54677     H
H       0.9393   0.6439  0.26087     H
H       0.9404   0.5005  0.26527     H
O       0.9427    0.539  0.63567     O
H       0.9566   0.1053  0.24937     H
C       0.9598   0.3288  0.59447     C
C       0.9631   0.1739  0.59057     C
C       0.9646   0.5406  0.22457     C
C       0.9651   0.6271  0.22167     C
N       0.9671   0.3627  0.22547     N
C       0.9678    0.278  0.22357     C
O       0.9683   0.1259  0.74717     O
C       0.9747   0.4138  0.63077     C
C       0.9787   0.2634  0.63207     C
H       0.9891   0.8969  0.01713     H
