data_I
_chemical_name_common  '/home/zhangsd/repos/MofS-CGCNN/ML/data/SSD/clean_cifs/FIRNAX_clean'
_cell_length_a 15.54000
_cell_length_b 15.54000
_cell_length_c 18.67900
_cell_angle_alpha 90.00000
_cell_angle_beta  90.00000
_cell_angle_gamma 120.00000
_space_group_name_H-M_alt      'P 1'


loop_
_space_group_symop_operation_xyz
  'x, y, z' 

loop_
_atom_site_label
_atom_site_fract_x
_atom_site_fract_y
_atom_site_fract_z
_atom_site_type_symbol
N          0.0   0.2439  0.83333     N
C          0.0   0.4155  0.83333     C
C          0.0   0.5111  0.83333     C
N          0.0   0.6913  0.83333     N
Ni         0.0  0.82532  0.83333    Ni
H       0.0063   0.9073   0.6836     H
C       0.0151   0.2844   0.2985     C
C       0.0209   0.4408   0.2982     C
C       0.0269    0.368   0.2544     C
C        0.031   0.2101   0.2569     C
H       0.0318   0.1401  0.91933     H
C       0.0327   0.3068  0.88793     C
N       0.0345   0.3939  0.89196     N
O       0.0379   0.1601  0.41297     O
C        0.039   0.5753  0.88853     C
C       0.0411   0.6655  0.88613     C
H       0.0455   0.5046     0.28     H
F       0.0547   0.3945   0.1843     F
C       0.0593   0.1845  0.95713     C
H       0.0645   0.5591  0.92813     H
C       0.0652   0.9055  0.68305     C
C       0.0654   0.2746  0.95423     C
H       0.0727   0.7105  0.92323     H
N       0.0882   0.8691  0.74008     N
H       0.0927    0.099  0.01693     H
C       0.0945   0.1597  0.01638     C
H        0.099   0.0927   0.3164     H
C        0.104   0.3391  0.01124     C
H       0.1083   0.9682    0.586     H
H       0.1092   0.4014  0.01043     H
O      0.11508  0.24359  0.22831     O
O       0.1222   0.9621  0.07963     O
C       0.1252   0.9407   0.6238     C
O      0.12851  0.88492  0.89498     O
N       0.1309   0.2191  0.07341     N
C       0.1348   0.3065  0.06993     C
H       0.1401   0.0318    0.414     H
C       0.1597   0.0945  0.31695     C
H       0.1598   0.3485  0.10933     H
O       0.1601   0.0379  0.92037     O
C       0.1717   0.8652   0.7366     C
Ni     0.17468  0.17468  0.16667    Ni
C       0.1791    0.969  0.92357     C
C       0.1845   0.0593   0.3762     C
H       0.1887   0.8402    0.776     H
C       0.2092   0.9346   0.6209     C
C       0.2101    0.031  0.07643     C
N       0.2191   0.1309  0.25992     N
C       0.2351    0.896  0.67791     C
O      0.24359  0.11508  0.10502     O
N       0.2439     -0.0      0.5     N
C       0.2693   0.9849  0.96517     C
C       0.2741   0.9673   0.5546     C
C       0.2746   0.0654   0.3791     C
C       0.2844   0.0151  0.03483     C
H       0.2895   0.3622  0.25657     H
H       0.2922   0.8908   0.6771     H
C       0.3065   0.1348   0.2634     C
C       0.3068   0.0327   0.4454     C
N       0.3087   0.3087  0.16667     N
C       0.3345   0.3756  0.21947     C
C       0.3391    0.104  0.32209     C
F       0.3398   0.9453  0.85097     F
C       0.3411   0.9731  0.92107     C
H       0.3485   0.1598    0.224     H
N       0.3594   0.9655  0.55863     N
H       0.3622   0.2895  0.07677     H
C        0.368   0.0269  0.07893     C
C       0.3756   0.3345  0.11387     C
N       0.3939   0.0345  0.44137     N
F       0.3945   0.0547  0.14903     F
H       0.4014   0.1092   0.3229     H
C       0.4155     -0.0      0.5     C
C       0.4199   0.9791  0.96487     C
C       0.4247   0.4637  0.22187     C
C       0.4408   0.0209  0.03513     C
H       0.4409   0.5054  0.26147     H
H       0.4591   0.9545  0.94667     H
C       0.4637   0.4247  0.11147     C
C       0.4889   0.4889  0.16667     C
H       0.4946   0.9355   0.5948     H
H       0.4954   0.5409  0.61333     H
H       0.5046   0.0455  0.05333     H
H       0.5054   0.4409  0.07187     H
C       0.5111      0.0      0.5     C
C       0.5363    0.961   0.5552     C
H       0.5409   0.4954     0.72     H
H       0.5591   0.0645   0.4052     H
C       0.5592   0.5801  0.63153     C
C       0.5753    0.039   0.4448     C
C       0.5801   0.5592   0.7018     C
C       0.5845   0.5845  0.16667     C
H       0.5986   0.7078  0.34377     H
F       0.6055   0.6602  0.51763     F
N       0.6061   0.6406   0.2253     N
C       0.6244   0.9589   0.5528     C
C        0.632   0.6589  0.58773     C
H       0.6378   0.9273   0.5899     H
N       0.6406   0.6061  0.10804     N
H       0.6515   0.8113  0.44267     H
C       0.6589    0.632   0.7456     C
F       0.6602   0.6055   0.8157     F
C       0.6609   0.7649  0.34458     C
C       0.6655   0.0411   0.4472     C
N       0.6913      0.0      0.5     N
C       0.6932   0.7259  0.22127     C
C       0.6935   0.8283  0.40327     C
H       0.7078   0.5986  0.98957     H
H       0.7105   0.0727   0.4101     H
C       0.7156   0.7307  0.63183     C
C       0.7254   0.7908  0.28757     C
C       0.7259   0.6932  0.11207     C
C       0.7307   0.7156   0.7015     C
N       0.7561   0.7561  0.16667     N
O      0.75641  0.87149  0.56164     O
C       0.7649   0.6609  0.98876     C
N       0.7809   0.9118  0.40675     N
C       0.7899   0.8209  0.59023     C
C       0.7908   0.7254  0.04577     C
H       0.8113   0.6515  0.89067     H
C       0.8155   0.8748  0.29047     C
C       0.8209   0.7899   0.7431     C
Ni     0.82532      0.0      0.5    Ni
C       0.8283   0.6935  0.93007     C
O       0.8399   0.8778   0.7463     O
H       0.8402   0.1887  0.55733     H
C       0.8403   0.9348  0.34972     C
H       0.8599   0.8917  0.25267     H
C       0.8652   0.1717  0.59673     C
N       0.8691   0.0882  0.59325     N
O      0.87149  0.75641  0.77169     O
C       0.8748   0.8155  0.04287     C
O       0.8778   0.8399  0.58703     O
O      0.88492  0.12851  0.43836     O
H       0.8908   0.2922  0.65623     H
H       0.8917   0.8599  0.08067     H
C        0.896   0.2351  0.65542     C
H        0.901   0.9937  0.35027     H
C       0.9055   0.0652  0.65028     C
H       0.9073   0.0063  0.64973     H
N       0.9118   0.7809  0.92659     N
H       0.9273   0.6378  0.74343     H
C       0.9346   0.2092  0.71243     C
C       0.9348   0.8403  0.98362     C
H       0.9355   0.4946  0.73853     H
C       0.9407   0.1252  0.70953     C
F       0.9453   0.3398  0.48237     F
H       0.9545   0.4591  0.38667     H
C       0.9589   0.6244  0.78053     C
C        0.961   0.5363  0.77813     C
O       0.9621   0.1222   0.2537     O
N       0.9655   0.3594   0.7747     N
C       0.9673   0.2741  0.77873     C
H       0.9682   0.1083  0.74733     H
C        0.969   0.1791  0.40977     C
C       0.9731   0.3411  0.41227     C
C       0.9791   0.4199  0.36847     C
C       0.9849   0.2693  0.36817     C
H       0.9937    0.901  0.98307     H
