data_I
_chemical_name_common  '/home/zhangsd/repos/MofS-CGCNN/ML/data/SSD/clean_cifs/FIRPAZ_clean'
_cell_length_a 15.69500
_cell_length_b 15.69500
_cell_length_c 18.54600
_cell_angle_alpha 90.00000
_cell_angle_beta  90.00000
_cell_angle_gamma 120.00000
_space_group_name_H-M_alt      'P 1'


loop_
_space_group_symop_operation_xyz
  'x, y, z' 

loop_
_atom_site_label
_atom_site_fract_x
_atom_site_fract_y
_atom_site_fract_z
_atom_site_type_symbol
N          0.0   0.2466  0.66667     N
C          0.0   0.4148  0.66667     C
C          0.0   0.5117  0.66667     C
N          0.0   0.6888  0.66667     N
Ni         0.0  0.82243  0.66667    Ni
H       0.0082   0.9028  0.81667     H
C       0.0218   0.4369  0.20663     C
C       0.0228   0.2856  0.20123     C
C         0.03   0.3077  0.60973     C
O       0.0305   0.1578   0.0867     O
H       0.0333   0.4935  0.23083     H
N       0.0345   0.3953  0.60773     N
C       0.0351   0.2106  0.24263     C
C       0.0364   0.6621  0.61223     C
H       0.0385    0.147  0.58263     H
C       0.0387   0.5757  0.61043     C
C       0.0423   0.3698  0.23903     C
H        0.062   0.7044  0.57303     H
C       0.0636     0.19  0.54373     C
H       0.0661    0.561  0.57123     H
C       0.0673   0.9026  0.81677     C
C       0.0676     0.28  0.54583     C
H       0.0687   0.3808  0.28523     H
N       0.0913   0.8698  0.75879     N
H       0.0972   0.1054  0.48333     H
C       0.0974   0.1647  0.48343     C
C       0.1001   0.3383  0.48633     C
H       0.1019   0.3984  0.48523     H
H       0.1054   0.0972  0.18333     H
H       0.1085   0.9615  0.91597     H
O       0.1197   0.2449  0.26959     O
O       0.1252   0.8803  0.60293     O
C       0.1264   0.9364  0.87707     C
O       0.1273   0.9695  0.42003     O
N       0.1302   0.2215  0.42545     N
C       0.1308   0.3057  0.42663     C
H        0.147   0.0385  0.08403     H
H       0.1526   0.3455  0.38583     H
O       0.1578   0.0305  0.57997     O
C       0.1647   0.0974  0.18323     C
C       0.1749   0.8692  0.75997     C
C       0.1755   0.9649  0.57597     C
Ni     0.17757  0.17757  0.33333    Ni
C         0.19   0.0636  0.12293     C
H       0.1929   0.8474  0.71917     H
C       0.2106   0.0351  0.42403     C
C       0.2124   0.9324  0.87917     C
N       0.2215   0.1302  0.24121     N
C       0.2382   0.8999  0.81967     C
O       0.2449   0.1197  0.39707     O
N       0.2466     -0.0      0.0     N
C       0.2628   0.9772  0.53457     C
C       0.2777     0.97  0.94307     C
C         0.28   0.0676  0.12083     C
C       0.2856   0.0228  0.46543     C
H       0.2956   0.3576   0.2397     H
H       0.2965   0.8981  0.81857     H
C       0.3057   0.1308  0.24003     C
C       0.3077     0.03  0.05693     C
N       0.3112   0.3112  0.33333     N
H       0.3121   0.9313  0.61857     H
C       0.3275   0.9577  0.57237     C
C       0.3379   0.3743   0.2789     C
C       0.3383   0.1001  0.18033     C
H       0.3455   0.1526  0.28083     H
H       0.3576   0.2956  0.42697     H
N       0.3608   0.9655  0.94107     N
C       0.3698   0.0423  0.42763     C
C       0.3743   0.3379  0.38777     C
H       0.3808   0.0687  0.38143     H
N       0.3953   0.0345  0.05893     N
H       0.3984   0.1019  0.18143     H
C       0.4148      0.0      0.0     C
C       0.4151   0.9782  0.53997     C
C       0.4243    0.463   0.2771     C
C       0.4369   0.0218  0.46003     C
H        0.439   0.5051   0.2379     H
H       0.4602   0.9667  0.56417     H
C        0.463   0.4243  0.38957     C
C       0.4883   0.4883  0.33333     C
H       0.4935   0.0333  0.43583     H
H       0.4949   0.9339  0.90457     H
H       0.5051    0.439  0.42877     H
H       0.5065   0.5398   0.8975     H
C       0.5117     -0.0      0.0     C
C        0.537   0.9613  0.94377     C
H       0.5398   0.5065  0.76917     H
H        0.561   0.0661  0.09543     H
C       0.5631   0.5849   0.8733     C
C       0.5757   0.0387  0.05623     C
C       0.5849   0.5631  0.79337     C
C       0.5852   0.5852  0.33333     C
H       0.6016   0.7035   0.1519     H
N       0.6047   0.6392   0.2744     N
H       0.6192   0.6879   0.9519     H
C       0.6257   0.9636  0.94557     C
C       0.6302   0.6725   0.9057     C
N       0.6392   0.6047  0.39227     N
H       0.6424    0.938  0.90637     H
H       0.6545   0.8071   0.0525     H
C       0.6617   0.7618    0.153     C
C       0.6621   0.0364  0.05443     C
C       0.6725   0.6302  0.76097     C
H       0.6879   0.6192  0.71477     H
N       0.6888      0.0      0.0     N
C       0.6923   0.7223   0.2764     C
C       0.6943   0.8251   0.0933     C
H       0.7035   0.6016  0.51477     H
H       0.7044    0.062  0.09363     H
C       0.7144   0.7372   0.8679     C
C         0.72   0.7876   0.2125     C
C       0.7223   0.6923  0.39027     C
C       0.7372   0.7144  0.79877     C
N       0.7534   0.7534  0.33333     N
O       0.7551   0.8748  0.93626     O
C       0.7618   0.6617  0.51367     C
N       0.7785   0.9087  0.09212     N
C       0.7876     0.72  0.45417     C
C       0.7894   0.8245   0.9093     C
H       0.8071   0.6545  0.61417     H
C         0.81   0.8736   0.2104     C
Ni     0.82243     -0.0      0.0    Ni
C       0.8245   0.7894  0.75737     C
C       0.8251   0.6943  0.57337     C
C       0.8353   0.9327   0.1501     C
O       0.8422   0.8727  0.75337     O
H       0.8474   0.1929   0.9475     H
H        0.853   0.8915   0.2493     H
C       0.8692   0.1749   0.9067     C
N       0.8698   0.0913  0.90788     N
O       0.8727   0.8422   0.9133     O
C       0.8736     0.81  0.45627     C
O       0.8748   0.7551  0.73041     O
O       0.8803   0.1252  0.06374     O
H       0.8915    0.853  0.41737     H
H       0.8946   0.9918     0.15     H
H       0.8981   0.2965   0.8481     H
C       0.8999   0.2382    0.847     C
C       0.9026   0.0673   0.8499     C
H       0.9028   0.0082     0.85     H
N       0.9087   0.7785  0.57455     N
H       0.9313   0.3121   0.0481     H
C       0.9324   0.2124   0.7875     C
C       0.9327   0.8353  0.51657     C
H       0.9339   0.4949   0.7621     H
C       0.9364   0.1264   0.7896     C
H        0.938   0.6424   0.7603     H
C       0.9577   0.3275   0.0943     C
C       0.9613    0.537   0.7229     C
H       0.9615   0.1085   0.7507     H
C       0.9636   0.6257   0.7211     C
C       0.9649   0.1755   0.0907     C
N       0.9655   0.3608   0.7256     N
H       0.9667   0.4602   0.1025     H
O       0.9695   0.1273  0.24663     O
C         0.97   0.2777   0.7236     C
C       0.9772   0.2628   0.1321     C
C       0.9782   0.4151   0.1267     C
H       0.9918   0.8946  0.51667     H
