data_I
_chemical_name_common  '/home/zhangsd/repos/MofS-CGCNN/ML/data/SSD/clean_cifs/FUNFOL_clean'
_cell_length_a 10.05100
_cell_length_b 17.77000
_cell_length_c 17.95340
_cell_angle_alpha 67.25000
_cell_angle_beta  74.92800
_cell_angle_gamma 81.56900
_space_group_name_H-M_alt      'P 1'


loop_
_space_group_symop_operation_xyz
  'x, y, z' 

loop_
_atom_site_label
_atom_site_fract_x
_atom_site_fract_y
_atom_site_fract_z
_atom_site_type_symbol
C       0.0007   0.7185   0.8788     C
H       0.0051   0.6875   0.9334     H
C         0.01   0.1885   0.2823     C
H       0.0146   0.1566   0.3366     H
H       0.0168    0.412   0.2341     H
C       0.0567  0.63302  0.51166     C
H        0.073   0.4806   0.3061     H
H       0.0743   0.2352   0.4627     H
O       0.0792  0.55699  0.53115     O
C       0.0819   0.8279   0.7527     C
C       0.0859   0.7828   0.8341     C
C       0.0869  0.33172  0.49231     C
C       0.0903   0.3006   0.1557     C
C       0.0966   0.2526   0.2372     C
C       0.1061   0.4289    0.221     C
C       0.1332  0.26144   0.4759     C
C       0.1395   0.4698   0.2641     C
H       0.1423   0.4176   0.5251     H
H       0.1457   0.7957   0.8587     H
H       0.1527   0.5233   0.3921     H
O       0.1535  0.67885  0.49528     O
H       0.1561   0.5232   0.0236     H
H       0.1591   0.2636   0.2614     H
N       0.1709  0.36933  0.11335     N
C       0.1746  0.37131  0.51218     C
N       0.1786  0.89019   0.7042     N
C       0.1814   0.4926   0.9897     C
H       0.1928   0.5884   0.8833     H
C       0.1957   0.4088   0.0253     C
C       0.2034   0.5318   0.9062     C
C       0.2036   0.4126   0.1587     C
N       0.2122   0.9421    0.735     N
H       0.2345   0.4497   0.7177     H
C       0.2374   0.3642    0.974     C
O       0.2376  0.12202   0.4393     O
C       0.2413  0.54036  0.36416     C
C       0.2417   0.4864   0.8556     C
H       0.2475    0.876   0.5954     H
H       0.2514   0.3077   0.9967     H
C       0.2534    0.904   0.6286     C
C       0.2535   0.5026   0.7089     C
C       0.2582   0.4034   0.8891     C
N       0.2608  0.52872  0.76788     N
C       0.2677  0.22972   0.4792     C
C       0.2709   0.4946   0.2452     C
N       0.2774  0.56284  0.63574     N
H       0.2833   0.3732   0.8548     H
N       0.2876  0.61026  0.73313     N
Co     0.29772  0.56891    0.513    Co
C        0.298   0.6265   0.6546     C
C       0.3074   0.9826    0.675     C
N       0.3085  0.53378  0.29236     N
C       0.3115   0.3415  0.51279     C
C       0.3161  0.15142   0.4631     C
H        0.318    0.678   0.6145     H
N       0.3195  0.57481   0.3896     N
C       0.3342   0.4405   0.1386     C
N       0.3372  0.96249  0.60671     N
H       0.3526   0.0228   0.6783     H
C       0.3562   0.2711   0.4956     C
O         0.36  0.44917  0.54775     O
C       0.3694   0.4806   0.1816     C
H       0.3996   0.4318    0.095     H
C       0.4079  0.38854  0.52785     C
O       0.4314  0.12114   0.4767     O
N       0.4349   0.5653  0.26878     N
C       0.4353   0.5898   0.3288     C
H       0.4473   0.2514   0.4951     H
H       0.4582   0.4983   0.1681     H
O       0.4672  0.63568  0.48179     O
H       0.4908   0.3847   0.6705     H
Co         0.5      0.0      0.5    Co
H       0.5092   0.6153   0.3295     H
O       0.5328  0.36432  0.51821     O
H       0.5418   0.5017   0.8319     H
H       0.5527   0.7486   0.5049     H
C       0.5647   0.4102   0.6712     C
N       0.5651   0.4347  0.73122     N
O       0.5686  0.87886   0.5233     O
C       0.5921  0.61146  0.47215     C
H       0.6004   0.5682    0.905     H
C       0.6306   0.5194   0.8184     C
O         0.64  0.55083  0.45225     O
C       0.6438   0.7289   0.5044     C
H       0.6474   0.9772   0.3217     H
N       0.6628  0.03751  0.39329     N
C       0.6658   0.5595   0.8614     C
N       0.6805  0.42519   0.6104     N
H        0.682    0.322   0.3855     H
C       0.6839  0.84858   0.5369     C
C       0.6885   0.6585  0.48721     C
N       0.6915  0.46622  0.70764     N
C       0.6926   0.0174    0.325     C
C        0.702   0.3735   0.3454     C
Co     0.70228  0.43109    0.487    Co
N       0.7124  0.38974  0.26687     N
H       0.7167   0.6268   0.1452     H
N       0.7226  0.43716  0.36426     N
C       0.7291   0.5054   0.7548     C
C       0.7323  0.77028   0.5208     C
N       0.7392  0.47128  0.23212     N
C       0.7418   0.5966   0.1109     C
C       0.7465   0.4974   0.2911     C
C       0.7466    0.096   0.3714     C
H       0.7486   0.6923   0.0033     H
H       0.7525    0.124   0.4046     H
C       0.7583   0.5136   0.1444     C
C       0.7587  0.45964  0.63584     C
O       0.7624  0.87798   0.5607     O
C       0.7626   0.6358    0.026     C
H       0.7655   0.5503   0.2823     H
N       0.7878   0.0579    0.265     N
C       0.7964   0.5874   0.8413     C
C       0.7966   0.4682   0.0938     C
C       0.8043   0.5912   0.9747     C
H       0.8072   0.4116   0.1167     H
C       0.8186   0.5074   0.0103     C
N       0.8214  0.10981   0.2958     N
C       0.8254  0.62869  0.48782     C
N       0.8291  0.63067  0.88665     N
H       0.8409   0.7364   0.7386     H
H       0.8439   0.4768   0.9764     H
O       0.8465  0.32115  0.50472     O
H       0.8473   0.4767   0.6079     H
H       0.8543   0.2043   0.1413     H
H       0.8577   0.5824   0.4749     H
C       0.8605   0.5302   0.7359     C
C       0.8668  0.73856   0.5241     C
C       0.8939   0.5711    0.779     C
C       0.9034   0.7474   0.7628     C
C       0.9097   0.6994   0.8443     C
C       0.9131  0.66828  0.50769     C
C       0.9141   0.2172   0.1659     C
C       0.9181   0.1721   0.2473     C
O       0.9208  0.44301  0.46885     O
H       0.9257   0.7648   0.5373     H
H        0.927   0.5194   0.6939     H
C       0.9433  0.36698  0.48834     C
H       0.9832    0.588   0.7659     H
H       0.9854   0.8434   0.6634     H
C         0.99   0.8115   0.7177     C
H       0.9949   0.3125   0.0666     H
C       0.9993   0.2815   0.1212     C
