data_I
_chemical_name_common  '/home/zhangsd/repos/MofS-CGCNN/ML/data/SSD/clean_cifs/FUTTIZ_clean'
_cell_length_a 24.94200
_cell_length_b 24.94200
_cell_length_c 24.94200
_cell_angle_alpha 90.00000
_cell_angle_beta  90.00000
_cell_angle_gamma 90.00000
_space_group_name_H-M_alt      'P 1'


loop_
_space_group_symop_operation_xyz
  'x, y, z' 

loop_
_atom_site_label
_atom_site_fract_x
_atom_site_fract_y
_atom_site_fract_z
_atom_site_type_symbol
Zn         0.0      0.0      0.0    Zn
Zn         0.0      0.5      0.5    Zn
O      0.00958  0.10986  0.09296     O
O      0.00958  0.39014  0.59296     O
O       0.0214    0.092   0.8685     O
O       0.0214    0.408   0.3685     O
C      0.03092  0.57813  0.40791     C
C      0.03092  0.92187  0.90791     C
O      0.03105   0.5332  0.42921     O
O      0.03105   0.9668  0.92921     O
O       0.0332  0.07079  0.96895     O
O       0.0332  0.42921  0.46895     O
H       0.0387   0.0955   0.8698     H
H       0.0387   0.4045   0.3698     H
H       0.0436   0.6631    0.346     H
H       0.0436   0.8369    0.846     H
O      0.06184  0.13716  0.78047     O
O      0.06184  0.36284  0.28047     O
H       0.0697   0.1281   0.1854     H
H       0.0697   0.3719   0.6854     H
C      0.07005  0.11694  0.87229     C
C      0.07005  0.38306  0.37229     C
O      0.07079  0.53105   0.5332     O
O      0.07079  0.96895   0.0332     O
C      0.07622  0.64352  0.34795     C
C      0.07622  0.85648  0.84795     C
C      0.07813  0.09209  0.96908     C
C      0.07813  0.40791  0.46908     C
Zn     0.07886  0.07886  0.07886    Zn
Zn     0.07886  0.42114  0.57886    Zn
C      0.07948  0.59769  0.37937     C
C      0.07948  0.90231  0.87937     C
H       0.0853   0.1964   0.1164     H
H       0.0853   0.3036   0.6164     H
C      0.08835  0.14449  0.82816     C
C      0.08835  0.35551  0.32816     C
O        0.092   0.6315   0.5214     O
O        0.092   0.8685   0.0214     O
C      0.09209  0.53092  0.57813     C
C      0.09209  0.96908  0.07813     C
O      0.09296  0.00958  0.10986     O
O      0.09296  0.49042  0.60986     O
H       0.0955   0.6302   0.5387     H
H       0.0955   0.8698   0.0387     H
C      0.09769  0.12063  0.92052     C
C      0.09769  0.37937  0.42052     C
C      0.10875  0.12173  0.18271     C
C      0.10875  0.37827  0.68271     C
O      0.10986  0.09296  0.00958     O
O      0.10986  0.40704  0.50958     O
H       0.1147   0.1933   0.2265     H
H       0.1147   0.3067   0.7265     H
H       0.1164   0.0853   0.1964     H
H       0.1164   0.4147   0.6964     H
C      0.11694  0.62771  0.57005     C
C      0.11694  0.87229  0.07005     C
H        0.118   0.6909   0.2972     H
H        0.118   0.8091   0.7972     H
C      0.12058  0.66036  0.31972     C
C      0.12058  0.83964  0.81972     C
C      0.12063  0.57948  0.59769     C
C      0.12063  0.92052  0.09769     C
C      0.12173  0.18271  0.10875     C
C      0.12173  0.31729  0.60875     C
N      0.12591  0.12591  0.12591     N
N      0.12591  0.37409  0.62591     N
C      0.12771  0.57005  0.38306     C
C      0.12771  0.92995  0.88306     C
H       0.1281   0.1854   0.0697     H
H       0.1281   0.3146   0.5697     H
H       0.1302   0.5387   0.4045     H
H       0.1302   0.9613   0.9045     H
O       0.1315   0.5214    0.408     O
O       0.1315   0.9786    0.908     O
O      0.13203  0.19993  0.73898     O
O      0.13203  0.30007  0.23898     O
C      0.13353  0.17627  0.83141     C
C      0.13353  0.32373  0.33141     C
O      0.13716  0.71953  0.56184     O
O      0.13716  0.78047  0.06184     O
C       0.1391   0.1636  0.21661     C
C       0.1391   0.3364  0.71661     C
C      0.14352  0.15205  0.92378     C
C      0.14352  0.34795  0.42378     C
C      0.14449  0.67184  0.58835     C
C      0.14449  0.82816  0.08835     C
H       0.1468     0.25   0.1525     H
H       0.1468     0.25   0.6525     H
C      0.15205  0.57622  0.64352     C
C      0.15205  0.92378  0.14352     C
H       0.1525   0.1468     0.25     H
H       0.1525   0.3532     0.75     H
H        0.154   0.5436   0.6631     H
H        0.154   0.9564   0.1631     H
C      0.15425  0.20609  0.78372     C
C      0.15425  0.29391  0.28372     C
C      0.16036  0.18028  0.87942     C
C      0.16036  0.31972  0.37942     C
H       0.1631    0.154   0.9564     H
H       0.1631    0.346   0.4564     H
C       0.1636  0.21661   0.1391     C
C       0.1636  0.28339   0.6391     C
C      0.16859  0.63353  0.32373     C
C      0.16859  0.86647  0.82373     C
C      0.17184  0.58835  0.35551     C
C      0.17184  0.91165  0.85551     C
C      0.17627  0.66859  0.63353     C
C      0.17627  0.83141  0.13353     C
C      0.18028  0.62058  0.66036     C
C      0.18028  0.87942  0.16036     C
C      0.18271  0.10875  0.12173     C
C      0.18271  0.39125  0.62173     C
N      0.18471  0.18471  0.18471     N
N      0.18471  0.31529  0.68471     N
H       0.1854   0.0697   0.1281     H
H       0.1854   0.4303   0.6281     H
H       0.1909   0.2028    0.882     H
H       0.1909   0.2972    0.382     H
H       0.1933   0.2265   0.1147     H
H       0.1933   0.2735   0.6147     H
O      0.19374  0.23711  0.79179     O
O      0.19374  0.26289  0.29179     O
H       0.1964   0.1164   0.0853     H
H       0.1964   0.3836   0.5853     H
O      0.19993  0.73898  0.13203     O
O      0.19993  0.76102  0.63203     O
H       0.2028    0.618   0.6909     H
H       0.2028    0.882   0.1909     H
C      0.20609  0.71628  0.65425     C
C      0.20609  0.78372  0.15425     C
O      0.20821  0.69374  0.26289     O
O      0.20821  0.80626  0.76289     O
C      0.21628  0.65425  0.29391     C
C      0.21628  0.84575  0.79391     C
C      0.21661   0.1391   0.1636     C
C      0.21661   0.3609   0.6636     C
O      0.21953  0.56184  0.36284     O
O      0.21953  0.93816  0.86284     O
H       0.2265   0.1147   0.1933     H
H       0.2265   0.3853   0.6933     H
Zn     0.23183  0.23183  0.23183    Zn
Zn     0.23183  0.26817  0.73183    Zn
O      0.23711  0.70821  0.69374     O
O      0.23711  0.79179  0.19374     O
O      0.23898  0.13203  0.30007     O
O      0.23898  0.36797  0.80007     O
H         0.25   0.1525   0.1468     H
H         0.25   0.3475   0.6468     H
H         0.25   0.6525   0.1468     H
H         0.25   0.8475   0.6468     H
O      0.26102  0.63203  0.30007     O
O      0.26102  0.86797  0.80007     O
O      0.26289  0.20821  0.69374     O
O      0.26289  0.29179  0.19374     O
Zn     0.26817  0.73183  0.23183    Zn
Zn     0.26817  0.76817  0.73183    Zn
H       0.2735   0.6147   0.1933     H
H       0.2735   0.8853   0.6933     H
O      0.28047  0.06184  0.36284     O
O      0.28047  0.43816  0.86284     O
C      0.28339   0.6391   0.1636     C
C      0.28339   0.8609   0.6636     C
C      0.28372  0.15425  0.29391     C
C      0.28372  0.34575  0.79391     C
O      0.29179  0.19374  0.26289     O
O      0.29179  0.30626  0.76289     O
C      0.29391  0.21628  0.65425     C
C      0.29391  0.28372  0.15425     C
H       0.2972    0.118   0.6909     H
H       0.2972    0.382   0.1909     H
O      0.30007  0.23898  0.13203     O
O      0.30007  0.26102  0.63203     O
H       0.3036   0.6164   0.0853     H
H       0.3036   0.8836   0.5853     H
O      0.30626  0.73711  0.79179     O
O      0.30626  0.76289  0.29179     O
H       0.3067   0.7265   0.1147     H
H       0.3067   0.7735   0.6147     H
H       0.3091   0.7028    0.882     H
H       0.3091   0.7972    0.382     H
H       0.3146   0.5697   0.1281     H
H       0.3146   0.9303   0.6281     H
N      0.31529  0.68471  0.18471     N
N      0.31529  0.81529  0.68471     N
C      0.31729  0.60875  0.12173     C
C      0.31729  0.89125  0.62173     C
C      0.31972  0.12058  0.66036     C
C      0.31972  0.37942  0.16036     C
C      0.32373  0.16859  0.63353     C
C      0.32373  0.33141  0.13353     C
C      0.32816  0.08835  0.35551     C
C      0.32816  0.41165  0.85551     C
C      0.33141  0.13353  0.32373     C
C      0.33141  0.36647  0.82373     C
C       0.3364  0.71661   0.1391     C
C       0.3364  0.78339   0.6391     C
H       0.3369    0.654   0.9564     H
H       0.3369    0.846   0.4564     H
C      0.33964  0.68028  0.87942     C
C      0.33964  0.81972  0.37942     C
C      0.34575  0.70609  0.78372     C
C      0.34575  0.79391  0.28372     C
H        0.346   0.0436   0.6631     H
H        0.346   0.4564   0.1631     H
H       0.3475   0.6468     0.25     H
H       0.3475   0.8532     0.75     H
C      0.34795  0.07622  0.64352     C
C      0.34795  0.42378  0.14352     C
H       0.3532     0.75   0.1525     H
H       0.3532     0.75   0.6525     H
C      0.35551  0.17184  0.58835     C
C      0.35551  0.32816  0.08835     C
C      0.35648  0.65205  0.92378     C
C      0.35648  0.84795  0.42378     C
C       0.3609   0.6636  0.21661     C
C       0.3609   0.8364  0.71661     C
O      0.36284  0.21953  0.56184     O
O      0.36284  0.28047  0.06184     O
C      0.36647  0.67627  0.83141     C
C      0.36647  0.82373  0.33141     C
O      0.36797  0.69993  0.73898     O
O      0.36797  0.80007  0.23898     O
O       0.3685   0.0214    0.408     O
O       0.3685   0.4786    0.908     O
H       0.3698   0.0387   0.4045     H
H       0.3698   0.4613   0.9045     H
H       0.3719   0.6854   0.0697     H
H       0.3719   0.8146   0.5697     H
C      0.37229  0.07005  0.38306     C
C      0.37229  0.42995  0.88306     C
N      0.37409  0.62591  0.12591     N
N      0.37409  0.87409  0.62591     N
C      0.37827  0.68271  0.10875     C
C      0.37827  0.81729  0.60875     C
C      0.37937  0.07948  0.59769     C
C      0.37937  0.42052  0.09769     C
C      0.37942  0.16036  0.31972     C
C      0.37942  0.33964  0.81972     C
H        0.382   0.1909   0.2972     H
H        0.382   0.3091   0.7972     H
C      0.38306  0.12771  0.57005     C
C      0.38306  0.37229  0.07005     C
H       0.3836   0.5853   0.1964     H
H       0.3836   0.9147   0.6964     H
H       0.3853   0.6933   0.2265     H
H       0.3853   0.8067   0.7265     H
O      0.39014  0.59296  0.00958     O
O      0.39014  0.90704  0.50958     O
C      0.39125  0.62173  0.18271     C
C      0.39125  0.87827  0.68271     C
C      0.40231  0.62063  0.92052     C
C      0.40231  0.87937  0.42052     C
H       0.4045   0.1302   0.5387     H
H       0.4045   0.3698   0.0387     H
O      0.40704  0.50958  0.10986     O
O      0.40704  0.99042  0.60986     O
C      0.40791  0.03092  0.57813     C
C      0.40791  0.46908  0.07813     C
O        0.408   0.1315   0.5214     O
O        0.408   0.3685   0.0214     O
C      0.41165  0.64449  0.82816     C
C      0.41165  0.85551  0.32816     C
H       0.4147   0.6964   0.1164     H
H       0.4147   0.8036   0.6164     H
C      0.42052  0.09769  0.37937     C
C      0.42052  0.40231  0.87937     C
Zn     0.42114  0.57886  0.07886    Zn
Zn     0.42114  0.92114  0.57886    Zn
C      0.42187  0.59209  0.96908     C
C      0.42187  0.90791  0.46908     C
C      0.42378  0.14352  0.34795     C
C      0.42378  0.35648  0.84795     C
O      0.42921  0.03105   0.5332     O
O      0.42921  0.46895   0.0332     O
C      0.42995  0.61694  0.87229     C
C      0.42995  0.88306  0.37229     C
H       0.4303   0.6281   0.1854     H
H       0.4303   0.8719   0.6854     H
O      0.43816  0.63716  0.78047     O
O      0.43816  0.86284  0.28047     O
H       0.4564   0.1631    0.346     H
H       0.4564   0.3369    0.846     H
H       0.4613   0.5955   0.8698     H
H       0.4613   0.9045   0.3698     H
O       0.4668  0.57079  0.96895     O
O       0.4668  0.92921  0.46895     O
O      0.46895   0.0332  0.42921     O
O      0.46895   0.4668  0.92921     O
C      0.46908  0.07813  0.40791     C
C      0.46908  0.42187  0.90791     C
O       0.4786    0.592   0.8685     O
O       0.4786    0.908   0.3685     O
O      0.49042  0.60986  0.09296     O
O      0.49042  0.89014  0.59296     O
Zn         0.5      0.0      0.5    Zn
Zn         0.5      0.5      0.0    Zn
O      0.50958  0.10986  0.40704     O
O      0.50958  0.39014  0.90704     O
O       0.5214    0.092   0.6315     O
O       0.5214    0.408   0.1315     O
C      0.53092  0.57813  0.09209     C
C      0.53092  0.92187  0.59209     C
O      0.53105   0.5332  0.07079     O
O      0.53105   0.9668  0.57079     O
O       0.5332  0.07079  0.53105     O
O       0.5332  0.42921  0.03105     O
H       0.5387   0.0955   0.6302     H
H       0.5387   0.4045   0.1302     H
H       0.5436   0.6631    0.154     H
H       0.5436   0.8369    0.654     H
O      0.56184  0.13716  0.71953     O
O      0.56184  0.36284  0.21953     O
H       0.5697   0.1281   0.3146     H
H       0.5697   0.3719   0.8146     H
C      0.57005  0.11694  0.62771     C
C      0.57005  0.38306  0.12771     C
O      0.57079  0.53105   0.9668     O
O      0.57079  0.96895   0.4668     O
C      0.57622  0.64352  0.15205     C
C      0.57622  0.85648  0.65205     C
C      0.57813  0.09209  0.53092     C
C      0.57813  0.40791  0.03092     C
Zn     0.57886  0.07886  0.42114    Zn
Zn     0.57886  0.42114  0.92114    Zn
C      0.57948  0.59769  0.12063     C
C      0.57948  0.90231  0.62063     C
H       0.5853   0.1964   0.3836     H
H       0.5853   0.3036   0.8836     H
C      0.58835  0.14449  0.67184     C
C      0.58835  0.35551  0.17184     C
O        0.592   0.6315   0.9786     O
O        0.592   0.8685   0.4786     O
C      0.59209  0.53092  0.92187     C
C      0.59209  0.96908  0.42187     C
O      0.59296  0.00958  0.39014     O
O      0.59296  0.49042  0.89014     O
H       0.5955   0.6302   0.9613     H
H       0.5955   0.8698   0.4613     H
C      0.59769  0.12063  0.57948     C
C      0.59769  0.37937  0.07948     C
C      0.60875  0.12173  0.31729     C
C      0.60875  0.37827  0.81729     C
O      0.60986  0.09296  0.49042     O
O      0.60986  0.40704  0.99042     O
H       0.6147   0.1933   0.2735     H
H       0.6147   0.3067   0.7735     H
H       0.6164   0.0853   0.3036     H
H       0.6164   0.4147   0.8036     H
C      0.61694  0.62771  0.92995     C
C      0.61694  0.87229  0.42995     C
H        0.618   0.6909   0.2028     H
H        0.618   0.8091   0.7028     H
C      0.62058  0.66036  0.18028     C
C      0.62058  0.83964  0.68028     C
C      0.62063  0.57948  0.90231     C
C      0.62063  0.92052  0.40231     C
C      0.62173  0.18271  0.39125     C
C      0.62173  0.31729  0.89125     C
N      0.62591  0.12591  0.37409     N
N      0.62591  0.37409  0.87409     N
C      0.62771  0.57005  0.11694     C
C      0.62771  0.92995  0.61694     C
H       0.6281   0.1854   0.4303     H
H       0.6281   0.3146   0.9303     H
H       0.6302   0.5387   0.0955     H
H       0.6302   0.9613   0.5955     H
O       0.6315   0.5214    0.092     O
O       0.6315   0.9786    0.592     O
O      0.63203  0.19993  0.76102     O
O      0.63203  0.30007  0.26102     O
C      0.63353  0.17627  0.66859     C
C      0.63353  0.32373  0.16859     C
O      0.63716  0.71953  0.93816     O
O      0.63716  0.78047  0.43816     O
C       0.6391   0.1636  0.28339     C
C       0.6391   0.3364  0.78339     C
C      0.64352  0.15205  0.57622     C
C      0.64352  0.34795  0.07622     C
C      0.64449  0.67184  0.91165     C
C      0.64449  0.82816  0.41165     C
H       0.6468     0.25   0.3475     H
H       0.6468     0.25   0.8475     H
C      0.65205  0.57622  0.85648     C
C      0.65205  0.92378  0.35648     C
H       0.6525   0.1468     0.25     H
H       0.6525   0.3532     0.75     H
H        0.654   0.5436   0.8369     H
H        0.654   0.9564   0.3369     H
C      0.65425  0.20609  0.71628     C
C      0.65425  0.29391  0.21628     C
C      0.66036  0.18028  0.62058     C
C      0.66036  0.31972  0.12058     C
H       0.6631    0.154   0.5436     H
H       0.6631    0.346   0.0436     H
C       0.6636  0.21661   0.3609     C
C       0.6636  0.28339   0.8609     C
C      0.66859  0.63353  0.17627     C
C      0.66859  0.86647  0.67627     C
C      0.67184  0.58835  0.14449     C
C      0.67184  0.91165  0.64449     C
C      0.67627  0.66859  0.86647     C
C      0.67627  0.83141  0.36647     C
C      0.68028  0.62058  0.83964     C
C      0.68028  0.87942  0.33964     C
C      0.68271  0.10875  0.37827     C
C      0.68271  0.39125  0.87827     C
N      0.68471  0.18471  0.31529     N
N      0.68471  0.31529  0.81529     N
H       0.6854   0.0697   0.3719     H
H       0.6854   0.4303   0.8719     H
H       0.6909   0.2028    0.618     H
H       0.6909   0.2972    0.118     H
H       0.6933   0.2265   0.3853     H
H       0.6933   0.2735   0.8853     H
O      0.69374  0.23711  0.70821     O
O      0.69374  0.26289  0.20821     O
H       0.6964   0.1164   0.4147     H
H       0.6964   0.3836   0.9147     H
O      0.69993  0.73898  0.36797     O
O      0.69993  0.76102  0.86797     O
H       0.7028    0.618   0.8091     H
H       0.7028    0.882   0.3091     H
C      0.70609  0.71628  0.84575     C
C      0.70609  0.78372  0.34575     C
O      0.70821  0.69374  0.23711     O
O      0.70821  0.80626  0.73711     O
C      0.71628  0.65425  0.20609     C
C      0.71628  0.84575  0.70609     C
C      0.71661   0.1391   0.3364     C
C      0.71661   0.3609   0.8364     C
O      0.71953  0.56184  0.13716     O
O      0.71953  0.93816  0.63716     O
H       0.7265   0.1147   0.3067     H
H       0.7265   0.3853   0.8067     H
Zn     0.73183  0.23183  0.26817    Zn
Zn     0.73183  0.26817  0.76817    Zn
O      0.73711  0.70821  0.80626     O
O      0.73711  0.79179  0.30626     O
O      0.73898  0.13203  0.19993     O
O      0.73898  0.36797  0.69993     O
H         0.75   0.1525   0.3532     H
H         0.75   0.3475   0.8532     H
H         0.75   0.6525   0.3532     H
H         0.75   0.8475   0.8532     H
O      0.76102  0.63203  0.19993     O
O      0.76102  0.86797  0.69993     O
O      0.76289  0.20821  0.80626     O
O      0.76289  0.29179  0.30626     O
Zn     0.76817  0.73183  0.26817    Zn
Zn     0.76817  0.76817  0.76817    Zn
H       0.7735   0.6147   0.3067     H
H       0.7735   0.8853   0.8067     H
O      0.78047  0.06184  0.13716     O
O      0.78047  0.43816  0.63716     O
C      0.78339   0.6391   0.3364     C
C      0.78339   0.8609   0.8364     C
C      0.78372  0.15425  0.20609     C
C      0.78372  0.34575  0.70609     C
O      0.79179  0.19374  0.23711     O
O      0.79179  0.30626  0.73711     O
C      0.79391  0.21628  0.84575     C
C      0.79391  0.28372  0.34575     C
H       0.7972    0.118   0.8091     H
H       0.7972    0.382   0.3091     H
O      0.80007  0.23898  0.36797     O
O      0.80007  0.26102  0.86797     O
H       0.8036   0.6164   0.4147     H
H       0.8036   0.8836   0.9147     H
O      0.80626  0.73711  0.70821     O
O      0.80626  0.76289  0.20821     O
H       0.8067   0.7265   0.3853     H
H       0.8067   0.7735   0.8853     H
H       0.8091   0.7028    0.618     H
H       0.8091   0.7972    0.118     H
H       0.8146   0.5697   0.3719     H
H       0.8146   0.9303   0.8719     H
N      0.81529  0.68471  0.31529     N
N      0.81529  0.81529  0.81529     N
C      0.81729  0.60875  0.37827     C
C      0.81729  0.89125  0.87827     C
C      0.81972  0.12058  0.83964     C
C      0.81972  0.37942  0.33964     C
C      0.82373  0.16859  0.86647     C
C      0.82373  0.33141  0.36647     C
C      0.82816  0.08835  0.14449     C
C      0.82816  0.41165  0.64449     C
C      0.83141  0.13353  0.17627     C
C      0.83141  0.36647  0.67627     C
C       0.8364  0.71661   0.3609     C
C       0.8364  0.78339   0.8609     C
H       0.8369    0.654   0.5436     H
H       0.8369    0.846   0.0436     H
C      0.83964  0.68028  0.62058     C
C      0.83964  0.81972  0.12058     C
C      0.84575  0.70609  0.71628     C
C      0.84575  0.79391  0.21628     C
H        0.846   0.0436   0.8369     H
H        0.846   0.4564   0.3369     H
H       0.8475   0.6468     0.25     H
H       0.8475   0.8532     0.75     H
C      0.84795  0.07622  0.85648     C
C      0.84795  0.42378  0.35648     C
H       0.8532     0.75   0.3475     H
H       0.8532     0.75   0.8475     H
C      0.85551  0.17184  0.91165     C
C      0.85551  0.32816  0.41165     C
C      0.85648  0.65205  0.57622     C
C      0.85648  0.84795  0.07622     C
C       0.8609   0.6636  0.28339     C
C       0.8609   0.8364  0.78339     C
O      0.86284  0.21953  0.93816     O
O      0.86284  0.28047  0.43816     O
C      0.86647  0.67627  0.66859     C
C      0.86647  0.82373  0.16859     C
O      0.86797  0.69993  0.76102     O
O      0.86797  0.80007  0.26102     O
O       0.8685   0.0214    0.092     O
O       0.8685   0.4786    0.592     O
H       0.8698   0.0387   0.0955     H
H       0.8698   0.4613   0.5955     H
H       0.8719   0.6854   0.4303     H
H       0.8719   0.8146   0.9303     H
C      0.87229  0.07005  0.11694     C
C      0.87229  0.42995  0.61694     C
N      0.87409  0.62591  0.37409     N
N      0.87409  0.87409  0.87409     N
C      0.87827  0.68271  0.39125     C
C      0.87827  0.81729  0.89125     C
C      0.87937  0.07948  0.90231     C
C      0.87937  0.42052  0.40231     C
C      0.87942  0.16036  0.18028     C
C      0.87942  0.33964  0.68028     C
H        0.882   0.1909   0.2028     H
H        0.882   0.3091   0.7028     H
C      0.88306  0.12771  0.92995     C
C      0.88306  0.37229  0.42995     C
H       0.8836   0.5853   0.3036     H
H       0.8836   0.9147   0.8036     H
H       0.8853   0.6933   0.2735     H
H       0.8853   0.8067   0.7735     H
O      0.89014  0.59296  0.49042     O
O      0.89014  0.90704  0.99042     O
C      0.89125  0.62173  0.31729     C
C      0.89125  0.87827  0.81729     C
C      0.90231  0.62063  0.57948     C
C      0.90231  0.87937  0.07948     C
H       0.9045   0.1302   0.9613     H
H       0.9045   0.3698   0.4613     H
O      0.90704  0.50958  0.39014     O
O      0.90704  0.99042  0.89014     O
C      0.90791  0.03092  0.92187     C
C      0.90791  0.46908  0.42187     C
O        0.908   0.1315   0.9786     O
O        0.908   0.3685   0.4786     O
C      0.91165  0.64449  0.67184     C
C      0.91165  0.85551  0.17184     C
H       0.9147   0.6964   0.3836     H
H       0.9147   0.8036   0.8836     H
C      0.92052  0.09769  0.12063     C
C      0.92052  0.40231  0.62063     C
Zn     0.92114  0.57886  0.42114    Zn
Zn     0.92114  0.92114  0.92114    Zn
C      0.92187  0.59209  0.53092     C
C      0.92187  0.90791  0.03092     C
C      0.92378  0.14352  0.15205     C
C      0.92378  0.35648  0.65205     C
O      0.92921  0.03105   0.9668     O
O      0.92921  0.46895   0.4668     O
C      0.92995  0.61694  0.62771     C
C      0.92995  0.88306  0.12771     C
H       0.9303   0.6281   0.3146     H
H       0.9303   0.8719   0.8146     H
O      0.93816  0.63716  0.71953     O
O      0.93816  0.86284  0.21953     O
H       0.9564   0.1631    0.154     H
H       0.9564   0.3369    0.654     H
H       0.9613   0.5955   0.6302     H
H       0.9613   0.9045   0.1302     H
O       0.9668  0.57079  0.53105     O
O       0.9668  0.92921  0.03105     O
O      0.96895   0.0332  0.07079     O
O      0.96895   0.4668  0.57079     O
C      0.96908  0.07813  0.09209     C
C      0.96908  0.42187  0.59209     C
O       0.9786    0.592   0.6315     O
O       0.9786    0.908   0.1315     O
O      0.99042  0.60986  0.40704     O
O      0.99042  0.89014  0.90704     O
