data_I
_chemical_name_common  '/home/zhangsd/repos/MofS-CGCNN/ML/data/SSD/clean_cifs/GADHIF_clean'
_cell_length_a 30.88510
_cell_length_b 17.46650
_cell_length_c 20.32720
_cell_angle_alpha 90.00000
_cell_angle_beta  127.70500
_cell_angle_gamma 90.00000
_space_group_name_H-M_alt      'P 1'


loop_
_space_group_symop_operation_xyz
  'x, y, z' 

loop_
_atom_site_label
_atom_site_fract_x
_atom_site_fract_y
_atom_site_fract_z
_atom_site_type_symbol
H       0.0052    0.145   0.6897     H
H       0.0052    0.855   0.1897     H
C       0.0077   0.0812   0.6112     C
C       0.0077   0.9188   0.1112     C
H       0.0085   0.2879    0.827     H
H       0.0085   0.7121    0.327     H
C        0.014   0.4466   0.6174     C
C        0.014   0.5534   0.1174     C
C       0.0168   0.3338   0.8558     C
C       0.0168   0.6662   0.3558     C
O       0.0182   0.3974   0.0727     O
O       0.0182   0.6026   0.5727     O
N       0.0248   0.0063   0.5224     N
N       0.0248   0.9937   0.0224     N
C       0.0254   0.3761    0.659     C
C       0.0254   0.6239    0.159     C
C        0.028   0.1288   0.6771     C
C        0.028   0.8712   0.1771     C
H       0.0283   0.0644   0.9198     H
H       0.0283   0.9356   0.4198     H
C       0.0405   0.0576   0.5901     C
C       0.0405   0.9424   0.0901     C
C       0.0408   0.4675   0.9401     C
C       0.0408   0.5325   0.4401     C
H       0.0506   0.4876   0.4708     H
H       0.0506   0.5124   0.9708     H
C       0.0582   0.4384   0.1153     C
C       0.0582   0.5616   0.6153     C
N       0.0586   0.4878   0.6371     N
N       0.0586   0.5122   0.1371     N
H       0.0612   0.3587    0.696     H
H       0.0612   0.6413    0.196     H
N      0.06977   0.3544   0.9095     N
N      0.06977   0.6456   0.4095     N
O      0.07393    0.226   0.8154     O
O      0.07393    0.774   0.3154     O
C       0.0795   0.4211   0.9502     C
C       0.0795   0.5789   0.4502     C
C       0.0818   0.1537   0.7259     C
C       0.0818   0.8463   0.2259     C
H       0.0832   0.4576    0.646     H
H       0.0832   0.5424    0.146     H
H       0.0901    0.307   0.0908     H
H       0.0901    0.693   0.5908     H
C       0.0949   0.0791   0.6379     C
C       0.0949   0.9209   0.1379     C
C       0.1051   0.2062   0.7978     C
C       0.1051   0.7938   0.2978     C
H       0.1069    0.155   0.9712     H
H       0.1069    0.845   0.4712     H
C       0.1148   0.4094    0.151     C
C       0.1148   0.5906    0.651     C
C       0.1149   0.1262   0.7066     C
C       0.1149   0.8738   0.2066     C
H       0.1158   0.4363   0.9883     H
H       0.1158   0.5637   0.4883     H
H       0.1175   0.0629   0.6248     H
H       0.1175   0.9371   0.1248     H
C       0.1204   0.3367   0.1296     C
C       0.1204   0.6633   0.6296     C
Zn     0.12994  0.29669  0.91392    Zn
Zn     0.12994  0.70331  0.41392    Zn
O       0.1327   0.4139   0.8387     O
O       0.1327   0.5861   0.3387     O
C       0.1447   0.1589   0.0113     C
C       0.1447   0.8411   0.5113     C
H       0.1488   0.4499   0.3275     H
H       0.1488   0.5501   0.8275     H
H        0.151   0.0605   0.0688     H
H        0.151   0.9395   0.5688     H
H       0.1517   0.1396   0.7406     H
H       0.1517   0.8604   0.2406     H
O       0.1542   0.2252   0.8421     O
O       0.1542   0.7748   0.3421     O
N       0.1568   0.4551   0.2047     N
N       0.1568   0.5449   0.7047     N
N       0.1687   0.2193   0.0081     N
N       0.1687   0.7807   0.5081     N
C         0.17   0.4261   0.9136     C
C         0.17   0.5739   0.4136     C
C       0.1708   0.1007   0.0692     C
C       0.1708   0.8993   0.5692     C
C       0.1742   0.3097   0.1696     C
C       0.1742   0.6903   0.6696     C
C       0.1763   0.4398   0.3834     C
C       0.1763   0.5602   0.8834     C
H       0.1803   0.2601   0.1604     H
H       0.1803   0.7399   0.6604     H
H       0.1847   0.3274   0.3696     H
H       0.1847   0.6726   0.8696     H
O       0.1866   0.3782   0.9688     O
O       0.1866   0.6218   0.4688     O
C       0.1959    0.498   0.4418     C
C       0.1959    0.502   0.9418     C
C       0.1978   0.3663   0.4086     C
C       0.1978   0.6337   0.9086     C
O       0.1986   0.0492   0.6449     O
O       0.1986   0.9508   0.1449     O
H       0.2075   0.4355    0.773     H
H       0.2075   0.5645    0.273     H
C       0.2082   0.4286   0.2431     C
C       0.2082   0.5714   0.7431     C
H       0.2088   0.3285   0.8359     H
H       0.2088   0.6715   0.3359     H
H       0.2141   0.1008   0.3934     H
H       0.2141   0.8992   0.8934     H
C       0.2179   0.3586   0.2229     C
C       0.2179   0.6414   0.7229     C
C       0.2242   0.2223   0.0665     C
C       0.2242   0.7777   0.5665     C
C       0.2273   0.1037   0.1278     C
C       0.2273   0.8963   0.6278     C
C        0.237   0.4828   0.5255     C
C        0.237   0.5172   0.0255     C
N       0.2387   0.2253   0.4799     N
N       0.2387   0.7747   0.9799     N
C       0.2388   0.3512   0.4923     C
C       0.2388   0.6488   0.9923     C
N       0.2398    0.451   0.8111     N
N       0.2398    0.549   0.3111     N
C       0.2415   0.0906   0.4493     C
C       0.2415   0.9094   0.9493     C
H       0.2429   0.2639   0.0662     H
H       0.2429   0.7361   0.5662     H
C       0.2462   0.0227   0.6954     C
C       0.2462   0.9773   0.1954     C
H       0.2466   0.1559   0.7552     H
C       0.2466   0.3331   0.8746     C
C       0.2466   0.6669   0.3746     C
H       0.2466   0.8441   0.2552     H
H       0.2499   0.0218   0.9355     H
H       0.2499   0.9782   0.4355     H
H       0.2501   0.4782   0.0645     H
H       0.2501   0.5218   0.5645     H
C       0.2534   0.1669   0.1254     C
H       0.2534   0.3441   0.2448     H
H       0.2534   0.6559   0.7448     H
C       0.2534   0.8331   0.6254     C
C       0.2538   0.4773   0.3046     C
C       0.2538   0.5227   0.8046     C
H       0.2571   0.2361   0.9338     H
H       0.2571   0.7639   0.4338     H
C       0.2585   0.4094   0.5507     C
C       0.2585   0.5906   0.0507     C
N       0.2602    0.049   0.1889     N
N       0.2602    0.951   0.6889     N
C       0.2612   0.1488   0.5077     C
C       0.2612   0.8512   0.0077     C
N       0.2613   0.2747   0.5201     N
N       0.2613   0.7253   0.0201     N
C        0.263   0.0172   0.4745     C
C        0.263   0.9828   0.9745     C
C       0.2727   0.3963   0.8722     C
C       0.2727   0.6037   0.3722     C
C       0.2758   0.2777   0.9335     C
C       0.2758   0.7223   0.4335     C
C       0.2821   0.1414   0.7771     C
C       0.2821   0.8586   0.2771     C
H       0.2859   0.3992   0.6066     H
H       0.2859   0.6008   0.1066     H
H       0.2912   0.1715   0.1641     H
H       0.2912   0.8285   0.6641     H
C       0.2918   0.0714   0.7569     C
C       0.2918   0.9286   0.2569     C
H       0.2925   0.0645    0.227     H
H       0.2925   0.9355    0.727     H
O       0.3014   0.4508   0.3551     O
O       0.3014   0.5492   0.8551     O
C       0.3022   0.1337   0.5914     C
C       0.3022   0.8663   0.0914     C
C       0.3041    0.002   0.5582     C
C       0.3041    0.998   0.0582     C
O       0.3134   0.1218   0.0312     O
O       0.3134   0.8782   0.5312     O
H       0.3153   0.1726   0.6304     H
H       0.3153   0.8274   0.1304     H
H       0.3197   0.2399   0.8396     H
H       0.3197   0.7601   0.3396     H
C       0.3237   0.0602   0.6166     C
C       0.3237   0.9398   0.1166     C
C       0.3258   0.1903   0.8304     C
C       0.3258   0.8097   0.3304     C
C       0.3292   0.3993   0.9308     C
C       0.3292   0.6007   0.4308     C
C         0.33   0.0739   0.0864     C
C         0.33   0.9261   0.5864     C
N       0.3313   0.2807   0.9919     N
N       0.3313   0.7193   0.4919     N
N       0.3432   0.0449   0.7953     N
N       0.3432   0.9551   0.2953     N
O       0.3458   0.2748   0.1579     O
O       0.3458   0.7252   0.6579     O
H       0.3483   0.3604   0.2594     H
H       0.3483   0.6396   0.7594     H
H        0.349   0.4395   0.9312     H
H        0.349   0.5605   0.4312     H
H       0.3512   0.0501   0.6725     H
H       0.3512   0.9499   0.1725     H
C       0.3553   0.3411   0.9887     C
C       0.3553   0.6589   0.4887     C
O       0.3673   0.0861   0.1613     O
O       0.3673   0.9139   0.6613     O
Zn     0.37006  0.20331  0.08608    Zn
Zn     0.37006  0.79669  0.58608    Zn
C       0.3796   0.1633   0.8704     C
C       0.3796   0.8367   0.3704     C
H       0.3825   0.4371   0.3752     H
H       0.3825   0.5629   0.8752     H
H       0.3842   0.0637   0.0117     H
H       0.3842   0.9363   0.5117     H
C       0.3851   0.3738   0.2934     C
C       0.3851   0.6262   0.7934     C
C       0.3852   0.0906    0.849     C
C       0.3852   0.9094    0.349     C
H       0.3931    0.345   0.0288     H
H       0.3931    0.655   0.5288     H
C       0.3949   0.2938   0.2022     C
C       0.3949   0.7062   0.7022     C
C       0.4051   0.4209   0.3621     C
C       0.4051   0.5791   0.8621     C
H       0.4099    0.193   0.9092     H
H       0.4099    0.807   0.4092     H
H       0.4168   0.0424    0.354     H
H       0.4168   0.9576    0.854     H
C       0.4182   0.3463   0.2741     C
C       0.4182   0.6537   0.7741     C
C       0.4205   0.0789   0.0498     C
C       0.4205   0.9211   0.5498     C
O      0.42607    0.274   0.1846     O
O      0.42607    0.726   0.6846     O
N      0.43023   0.1456   0.0905     N
N      0.43023   0.8544   0.5905     N
H       0.4388   0.1413    0.304     H
H       0.4388   0.8587    0.804     H
N       0.4414   0.0122   0.3629     N
N       0.4414   0.9878   0.8629     N
C       0.4418   0.0616   0.8847     C
C       0.4418   0.9384   0.3847     C
H       0.4494   0.0124   0.5292     H
H       0.4494   0.9876   0.0292     H
C       0.4592   0.0325   0.0599     C
C       0.4592   0.9675   0.5599     C
C       0.4595   0.4424   0.4099     C
C       0.4595   0.5576   0.9099     C
H       0.4717   0.4356   0.0802     H
H       0.4717   0.5644   0.5802     H
C        0.472   0.3712   0.3229     C
C        0.472   0.6288   0.8229     C
C       0.4746   0.1239    0.341     C
C       0.4746   0.8761    0.841     C
N       0.4752   0.4937   0.4776     N
N       0.4752   0.5063   0.9776     N
O       0.4818   0.1026   0.9273     O
O       0.4818   0.8974   0.4273     O
C       0.4832   0.1662   0.1442     C
C       0.4832   0.8338   0.6442     C
C        0.486   0.0534   0.3826     C
C        0.486   0.9466   0.8826     C
H       0.4915   0.2121    0.173     H
H       0.4915   0.7879    0.673     H
C       0.4923   0.4188   0.3888     C
C       0.4923   0.5812   0.8888     C
H       0.4948    0.355   0.3103     H
H       0.4948    0.645   0.8103     H
H       0.5052    0.355   0.1897     H
H       0.5052    0.645   0.6897     H
C       0.5077   0.4188   0.1112     C
C       0.5077   0.5812   0.6112     C
H       0.5085   0.2121    0.327     H
H       0.5085   0.7879    0.827     H
C        0.514   0.0534   0.1174     C
C        0.514   0.9466   0.6174     C
C       0.5168   0.1662   0.3558     C
C       0.5168   0.8338   0.8558     C
O       0.5182   0.1026   0.5727     O
O       0.5182   0.8974   0.0727     O
N       0.5248   0.4937   0.0224     N
N       0.5248   0.5063   0.5224     N
C       0.5254   0.1239    0.159     C
C       0.5254   0.8761    0.659     C
C        0.528   0.3712   0.1771     C
C        0.528   0.6288   0.6771     C
H       0.5283   0.4356   0.4198     H
H       0.5283   0.5644   0.9198     H
C       0.5405   0.4424   0.0901     C
C       0.5405   0.5576   0.5901     C
C       0.5408   0.0325   0.4401     C
C       0.5408   0.9675   0.9401     C
H       0.5506   0.0124   0.9708     H
H       0.5506   0.9876   0.4708     H
C       0.5582   0.0616   0.6153     C
C       0.5582   0.9384   0.1153     C
N       0.5586   0.0122   0.1371     N
N       0.5586   0.9878   0.6371     N
H       0.5612   0.1413    0.196     H
H       0.5612   0.8587    0.696     H
N      0.56977   0.1456   0.4095     N
N      0.56977   0.8544   0.9095     N
O      0.57393    0.274   0.3154     O
O      0.57393    0.726   0.8154     O
C       0.5795   0.0789   0.4502     C
C       0.5795   0.9211   0.9502     C
C       0.5818   0.3463   0.2259     C
C       0.5818   0.6537   0.7259     C
H       0.5832   0.0424    0.146     H
H       0.5832   0.9576    0.646     H
H       0.5901    0.193   0.5908     H
H       0.5901    0.807   0.0908     H
C       0.5949   0.4209   0.1379     C
C       0.5949   0.5791   0.6379     C
C       0.6051   0.2938   0.2978     C
C       0.6051   0.7062   0.7978     C
H       0.6069    0.345   0.4712     H
H       0.6069    0.655   0.9712     H
C       0.6148   0.0906    0.651     C
C       0.6148   0.9094    0.151     C
C       0.6149   0.3738   0.2066     C
C       0.6149   0.6262   0.7066     C
H       0.6158   0.0637   0.4883     H
H       0.6158   0.9363   0.9883     H
H       0.6175   0.4371   0.1248     H
H       0.6175   0.5629   0.6248     H
C       0.6204   0.1633   0.6296     C
C       0.6204   0.8367   0.1296     C
Zn     0.62994  0.20331  0.41392    Zn
Zn     0.62994  0.79669  0.91392    Zn
O       0.6327   0.0861   0.3387     O
O       0.6327   0.9139   0.8387     O
C       0.6447   0.3411   0.5113     C
C       0.6447   0.6589   0.0113     C
H       0.6488   0.0501   0.8275     H
H       0.6488   0.9499   0.3275     H
H        0.651   0.4395   0.5688     H
H        0.651   0.5605   0.0688     H
H       0.6517   0.3604   0.2406     H
H       0.6517   0.6396   0.7406     H
O       0.6542   0.2748   0.3421     O
O       0.6542   0.7252   0.8421     O
N       0.6568   0.0449   0.7047     N
N       0.6568   0.9551   0.2047     N
N       0.6687   0.2807   0.5081     N
N       0.6687   0.7193   0.0081     N
C         0.67   0.0739   0.4136     C
C         0.67   0.9261   0.9136     C
C       0.6708   0.3993   0.5692     C
C       0.6708   0.6007   0.0692     C
C       0.6742   0.1903   0.6696     C
C       0.6742   0.8097   0.1696     C
C       0.6763   0.0602   0.8834     C
C       0.6763   0.9398   0.3834     C
H       0.6803   0.2399   0.6604     H
H       0.6803   0.7601   0.1604     H
H       0.6847   0.1726   0.8696     H
H       0.6847   0.8274   0.3696     H
O       0.6866   0.1218   0.4688     O
O       0.6866   0.8782   0.9688     O
C       0.6959    0.002   0.9418     C
C       0.6959    0.998   0.4418     C
C       0.6978   0.1337   0.9086     C
C       0.6978   0.8663   0.4086     C
O       0.6986   0.4508   0.1449     O
O       0.6986   0.5492   0.6449     O
H       0.7075   0.0645    0.273     H
H       0.7075   0.9355    0.773     H
C       0.7082   0.0714   0.7431     C
C       0.7082   0.9286   0.2431     C
H       0.7088   0.1715   0.3359     H
H       0.7088   0.8285   0.8359     H
H       0.7141   0.3992   0.8934     H
H       0.7141   0.6008   0.3934     H
C       0.7179   0.1414   0.7229     C
C       0.7179   0.8586   0.2229     C
C       0.7242   0.2777   0.5665     C
C       0.7242   0.7223   0.0665     C
C       0.7273   0.3963   0.6278     C
C       0.7273   0.6037   0.1278     C
C        0.737   0.0172   0.0255     C
C        0.737   0.9828   0.5255     C
N       0.7387   0.2747   0.9799     N
N       0.7387   0.7253   0.4799     N
C       0.7388   0.1488   0.9923     C
C       0.7388   0.8512   0.4923     C
N       0.7398    0.049   0.3111     N
N       0.7398    0.951   0.8111     N
C       0.7415   0.4094   0.9493     C
C       0.7415   0.5906   0.4493     C
H       0.7429   0.2361   0.5662     H
H       0.7429   0.7639   0.0662     H
C       0.7462   0.4773   0.1954     C
C       0.7462   0.5227   0.6954     C
C       0.7466   0.1669   0.3746     C
H       0.7466   0.3441   0.2552     H
H       0.7466   0.6559   0.7552     H
C       0.7466   0.8331   0.8746     C
H       0.7499   0.4782   0.4355     H
H       0.7499   0.5218   0.9355     H
H       0.7501   0.0218   0.5645     H
H       0.7501   0.9782   0.0645     H
H       0.7534   0.1559   0.7448     H
C       0.7534   0.3331   0.6254     C
C       0.7534   0.6669   0.1254     C
H       0.7534   0.8441   0.2448     H
C       0.7538   0.0227   0.8046     C
C       0.7538   0.9773   0.3046     C
H       0.7571   0.2639   0.4338     H
H       0.7571   0.7361   0.9338     H
C       0.7585   0.0906   0.0507     C
C       0.7585   0.9094   0.5507     C
N       0.7602    0.451   0.6889     N
N       0.7602    0.549   0.1889     N
C       0.7612   0.3512   0.0077     C
C       0.7612   0.6488   0.5077     C
N       0.7613   0.2253   0.0201     N
N       0.7613   0.7747   0.5201     N
C        0.763   0.4828   0.9745     C
C        0.763   0.5172   0.4745     C
C       0.7727   0.1037   0.3722     C
C       0.7727   0.8963   0.8722     C
C       0.7758   0.2223   0.4335     C
C       0.7758   0.7777   0.9335     C
C       0.7821   0.3586   0.2771     C
C       0.7821   0.6414   0.7771     C
H       0.7859   0.1008   0.1066     H
H       0.7859   0.8992   0.6066     H
H       0.7912   0.3285   0.6641     H
H       0.7912   0.6715   0.1641     H
C       0.7918   0.4286   0.2569     C
C       0.7918   0.5714   0.7569     C
H       0.7925   0.4355    0.727     H
H       0.7925   0.5645    0.227     H
O       0.8014   0.0492   0.8551     O
O       0.8014   0.9508   0.3551     O
C       0.8022   0.3663   0.0914     C
C       0.8022   0.6337   0.5914     C
C       0.8041    0.498   0.0582     C
C       0.8041    0.502   0.5582     C
O       0.8134   0.3782   0.5312     O
O       0.8134   0.6218   0.0312     O
H       0.8153   0.3274   0.1304     H
H       0.8153   0.6726   0.6304     H
H       0.8197   0.2601   0.3396     H
H       0.8197   0.7399   0.8396     H
C       0.8237   0.4398   0.1166     C
C       0.8237   0.5602   0.6166     C
C       0.8258   0.3097   0.3304     C
C       0.8258   0.6903   0.8304     C
C       0.8292   0.1007   0.4308     C
C       0.8292   0.8993   0.9308     C
C         0.83   0.4261   0.5864     C
C         0.83   0.5739   0.0864     C
N       0.8313   0.2193   0.4919     N
N       0.8313   0.7807   0.9919     N
N       0.8432   0.4551   0.2953     N
N       0.8432   0.5449   0.7953     N
O       0.8458   0.2252   0.6579     O
O       0.8458   0.7748   0.1579     O
H       0.8483   0.1396   0.7594     H
H       0.8483   0.8604   0.2594     H
H        0.849   0.0605   0.4312     H
H        0.849   0.9395   0.9312     H
H       0.8512   0.4499   0.1725     H
H       0.8512   0.5501   0.6725     H
C       0.8553   0.1589   0.4887     C
C       0.8553   0.8411   0.9887     C
O       0.8673   0.4139   0.6613     O
O       0.8673   0.5861   0.1613     O
Zn     0.87006  0.29669  0.58608    Zn
Zn     0.87006  0.70331  0.08608    Zn
C       0.8796   0.3367   0.3704     C
C       0.8796   0.6633   0.8704     C
H       0.8825   0.0629   0.8752     H
H       0.8825   0.9371   0.3752     H
H       0.8842   0.4363   0.5117     H
H       0.8842   0.5637   0.0117     H
C       0.8851   0.1262   0.7934     C
C       0.8851   0.8738   0.2934     C
C       0.8852   0.4094    0.349     C
C       0.8852   0.5906    0.849     C
H       0.8931    0.155   0.5288     H
H       0.8931    0.845   0.0288     H
C       0.8949   0.2062   0.7022     C
C       0.8949   0.7938   0.2022     C
C       0.9051   0.0791   0.8621     C
C       0.9051   0.9209   0.3621     C
H       0.9099    0.307   0.4092     H
H       0.9099    0.693   0.9092     H
H       0.9168   0.4576    0.854     H
H       0.9168   0.5424    0.354     H
C       0.9182   0.1537   0.7741     C
C       0.9182   0.8463   0.2741     C
C       0.9205   0.4211   0.5498     C
C       0.9205   0.5789   0.0498     C
O      0.92607    0.226   0.6846     O
O      0.92607    0.774   0.1846     O
N      0.93023   0.3544   0.5905     N
N      0.93023   0.6456   0.0905     N
H       0.9388   0.3587    0.804     H
H       0.9388   0.6413    0.304     H
N       0.9414   0.4878   0.8629     N
N       0.9414   0.5122   0.3629     N
C       0.9418   0.4384   0.3847     C
C       0.9418   0.5616   0.8847     C
H       0.9494   0.4876   0.0292     H
H       0.9494   0.5124   0.5292     H
C       0.9592   0.4675   0.5599     C
C       0.9592   0.5325   0.0599     C
C       0.9595   0.0576   0.9099     C
C       0.9595   0.9424   0.4099     C
H       0.9717   0.0644   0.5802     H
H       0.9717   0.9356   0.0802     H
C        0.972   0.1288   0.8229     C
C        0.972   0.8712   0.3229     C
C       0.9746   0.3761    0.841     C
C       0.9746   0.6239    0.341     C
N       0.9752   0.0063   0.9776     N
N       0.9752   0.9937   0.4776     N
O       0.9818   0.3974   0.4273     O
O       0.9818   0.6026   0.9273     O
C       0.9832   0.3338   0.6442     C
C       0.9832   0.6662   0.1442     C
C        0.986   0.4466   0.8826     C
C        0.986   0.5534   0.3826     C
H       0.9915   0.2879    0.673     H
H       0.9915   0.7121    0.173     H
C       0.9923   0.0812   0.8888     C
C       0.9923   0.9188   0.3888     C
H       0.9948    0.145   0.8103     H
H       0.9948    0.855   0.3103     H
