data_I
_chemical_name_common  '/home/zhangsd/repos/MofS-CGCNN/ML/data/SSD/clean_cifs/GAJZIC_clean'
_cell_length_a  5.54620
_cell_length_b 13.34300
_cell_length_c 21.16400
_cell_angle_alpha 90.00000
_cell_angle_beta  96.51600
_cell_angle_gamma 90.00000
_space_group_name_H-M_alt      'P 1'


loop_
_space_group_symop_operation_xyz
  'x, y, z' 

loop_
_atom_site_label
_atom_site_fract_x
_atom_site_fract_y
_atom_site_fract_z
_atom_site_type_symbol
N        0.004   0.5786   0.2852     N
N        0.004   0.9214   0.7852     N
H       0.0112   0.7488   0.6743     H
H       0.0112   0.7512   0.1743     H
H        0.028   0.0932   0.3698     H
H        0.028   0.4068   0.8698     H
C         0.03   0.1855   0.2036     C
C         0.03   0.3145   0.7036     C
O       0.0374   0.6239   0.4419     O
O       0.0374   0.8761   0.9419     O
C        0.077   0.5627   0.2215     C
C        0.077   0.9373   0.7215     C
P       0.0841   0.5233  0.41289     P
P       0.0841   0.9767  0.91289     P
H       0.0903    0.194   0.1626     H
H       0.0903    0.306   0.6626     H
C        0.092   0.1043   0.3296     C
C        0.092   0.3957   0.8296     C
H       0.0935   0.0087   0.7145     H
H       0.0935   0.4913   0.2145     H
H       0.1258   0.7189   0.2983     H
H       0.1258   0.7811   0.7983     H
O       0.1282   0.5461   0.5898     O
O       0.1282   0.9539   0.0898     O
C        0.143   0.2168   0.3228     C
C        0.143   0.2832   0.8228     C
C         0.18   0.5374   0.3339     C
C         0.18   0.9626   0.8339     C
C        0.209   0.2361   0.2555     C
C        0.209   0.2639   0.7555     C
H         0.21   0.1922   0.7479     H
H         0.21   0.3078   0.2479     H
H       0.2282   0.0279   0.8197     H
H       0.2282   0.4721   0.3197     H
H       0.2354    0.593   0.2198     H
H       0.2354    0.907   0.7198     H
H       0.2447   0.0681   0.3311     H
H       0.2447   0.4319   0.8311     H
O        0.296   0.2435    0.431     O
O        0.296   0.2565    0.931     O
O       0.3135   0.0171   0.9551     O
O       0.3135   0.4829   0.4551     O
H       0.3223     0.58   0.3374     H
H       0.3223     0.92   0.8374     H
C        0.323   0.2382   0.8738     C
C        0.323   0.2618   0.3738     C
H       0.3716   0.2111   0.2524     H
H       0.3716   0.2889   0.7524     H
Sm     0.37333  0.63256  0.52775    Sm
Sm     0.37333  0.86744  0.02775    Sm
O        0.498   0.1855   0.8603     O
O        0.498   0.3145   0.3603     O
O        0.502   0.6855   0.6397     O
O        0.502   0.8145   0.1397     O
Sm     0.62667  0.13256  0.97225    Sm
Sm     0.62667  0.36744  0.47225    Sm
H       0.6284   0.7111   0.2476     H
H       0.6284   0.7889   0.7476     H
C        0.677   0.7382   0.6262     C
C        0.677   0.7618   0.1262     C
H       0.6777     0.08   0.1626     H
H       0.6777     0.42   0.6626     H
O       0.6865   0.5171   0.5449     O
O       0.6865   0.9829   0.0449     O
O        0.704   0.7435    0.069     O
O        0.704   0.7565    0.569     O
H       0.7553   0.5681   0.1689     H
H       0.7553   0.9319   0.6689     H
H       0.7646    0.093   0.2802     H
H       0.7646    0.407   0.7802     H
H       0.7718   0.5279   0.6803     H
H       0.7718   0.9721   0.1803     H
H         0.79   0.6922   0.7521     H
H         0.79   0.8078   0.2521     H
C        0.791   0.7361   0.2445     C
C        0.791   0.7639   0.7445     C
C         0.82   0.0374   0.1661     C
C         0.82   0.4626   0.6661     C
C        0.857   0.7168   0.1772     C
C        0.857   0.7832   0.6772     C
O       0.8718   0.0461   0.9102     O
O       0.8718   0.4539   0.4102     O
H       0.8742   0.2189   0.2017     H
H       0.8742   0.2811   0.7017     H
H       0.9065   0.5087   0.7855     H
H       0.9065   0.9913   0.2855     H
C        0.908   0.6043   0.1704     C
C        0.908   0.8957   0.6704     C
H       0.9097    0.694   0.3374     H
H       0.9097    0.806   0.8374     H
P       0.9159   0.0233  0.08711     P
P       0.9159   0.4767  0.58711     P
C        0.923   0.0627   0.2785     C
C        0.923   0.4373   0.7785     C
O       0.9626   0.1239   0.0581     O
O       0.9626   0.3761   0.5581     O
C         0.97   0.6855   0.2964     C
C         0.97   0.8145   0.7964     C
H        0.972   0.5932   0.1302     H
H        0.972   0.9068   0.6302     H
H       0.9888   0.2488   0.8257     H
H       0.9888   0.2512   0.3257     H
N        0.996   0.0786   0.2148     N
N        0.996   0.4214   0.7148     N
