data_I
_chemical_name_common  '/home/zhangsd/repos/MofS-CGCNN/ML/data/SSD/clean_cifs/GAMFEI_clean'
_cell_length_a 17.32450
_cell_length_b 17.32450
_cell_length_c 33.93960
_cell_angle_alpha 90.00000
_cell_angle_beta  90.00000
_cell_angle_gamma 90.00000
_space_group_name_H-M_alt      'P 1'


loop_
_space_group_symop_operation_xyz
  'x, y, z' 

loop_
_atom_site_label
_atom_site_fract_x
_atom_site_fract_y
_atom_site_fract_z
_atom_site_type_symbol
H        0.002   0.3477   0.0907     H
C       0.0045   0.9592    0.572     C
H       0.0056   0.3033    0.656     H
Cu     0.00757  0.41487  0.88479    Cu
Cu     0.01218  0.41703    0.978    Cu
H       0.0139   0.4058   0.8011     H
C       0.0163    0.611   0.0744     C
N       0.0222   0.7986   0.5723     N
C       0.0249   0.1422   0.4272     C
H       0.0262   0.3051   0.4896     H
H       0.0264   0.4119   0.0606     H
C       0.0276   0.6939   0.4963     C
H         0.03   0.6405   0.7684     H
C       0.0321   0.7167   0.5713     C
C       0.0356    0.604   0.7895     C
C       0.0364   0.6714   0.5378     C
C       0.0408   0.0045    0.428     C
H       0.0408   0.5726   0.0905     H
C       0.0446   0.6691   0.6039     C
C        0.046   0.6875   0.6469     C
H       0.0464   0.1914   0.4272     H
H       0.0484    0.235   0.8046     H
H       0.0494   0.7443   0.4924     H
N       0.0507   0.5985  0.54945     N
C       0.0534   0.1732     0.57     C
H       0.0538   0.6573   0.4798     H
N       0.0547   0.5972  0.59042     N
C       0.0557   0.8656   0.4282     C
H       0.0564   0.5566   0.7793     H
H       0.0566   0.4436   0.7207     H
H       0.0602   0.2438   0.3319     H
C       0.0625   0.0872   0.5715     C
N       0.0667   0.6291   0.0066     N
H       0.0678   0.6449   0.6611     H
O       0.0708   0.2812  0.73421     O
C       0.0715   0.0804   0.4263     C
H       0.0726   0.4592   0.4095     H
C       0.0733   0.6418   0.0452     C
N       0.0755   0.6269  0.85833     N
H       0.0768   0.7328   0.6513     H
O       0.0786   0.3111   0.3963     O
C       0.0804   0.9285   0.5737     C
H       0.0809   0.1933    0.868     H
Cu     0.08297  0.51218    0.522    Cu
Cu     0.08513  0.50757  0.61521    Cu
H       0.0872   0.8221   0.4287     H
C       0.0872   0.9375   0.4285     C
H       0.0881   0.5264   0.4394     H
C       0.0881   0.6355   0.8194     C
C       0.0892   0.8428   0.5766     C
H       0.0913   0.2014   0.2681     H
H       0.0942   0.5139   0.6989     H
N       0.0972   0.4453  0.90958     N
N       0.0985   0.4493  0.95055     N
C       0.0998   0.2342   0.8124     C
C        0.104   0.4644   0.7105     C
O       0.1083   0.2151   0.5662     O
C        0.111   0.4837   0.4256     C
C       0.1113   0.2441   0.3235     C
C       0.1194   0.2081   0.8505     C
N       0.1269   0.4245  0.64167     N
N       0.1278   0.6623   0.9876     N
N       0.1291   0.4333   0.4934     N
C         0.13   0.2172   0.2853     C
C       0.1344   0.0557   0.5718     C
C       0.1355   0.4119   0.6806     C
N       0.1355   0.6604   0.8777     N
C       0.1357   0.2838   0.7466     C
Cu     0.13582  0.65839  0.93289    Cu
H       0.1405     0.47   0.7316     H
C       0.1412   0.6831    0.051     C
C       0.1418   0.4267   0.4548     C
C       0.1422   0.9751   0.5728     C
H       0.1449   0.4322   0.8389     H
C       0.1456   0.3055   0.3865     C
O       0.1505   0.8128   0.5824     O
H       0.1523    0.502   0.4093     H
O        0.155   0.8313   0.0749     O
C       0.1556   0.6753   0.8146     C
C       0.1562   0.2585   0.7869     C
O       0.1562   0.8223   0.7879     O
C       0.1572   0.0892   0.4234     C
H       0.1573   0.4462   0.0202     H
Cu     0.15839  0.36418  0.56711    Cu
N       0.1604   0.3645   0.6223     N
N       0.1623   0.3722   0.5124     N
C       0.1669   0.2702   0.3476     C
O       0.1687    0.155   0.9251     O
C       0.1691   0.4554   0.8961     C
N       0.1709   0.7043   0.0893     N
C       0.1714   0.4636   0.9622     C
C       0.1732   0.9466     0.43     C
C       0.1736   0.6943    0.015     C
C       0.1752   0.7822   0.0981     C
C       0.1753   0.3444   0.6854     C
O       0.1777   0.1562   0.2121     O
H       0.1779   0.0872   0.5713     H
C       0.1829   0.7741   0.7662     C
C       0.1831   0.3588    0.449     C
C        0.184   0.6921   0.8513     C
O       0.1872   0.1505   0.4176     O
C       0.1875    0.454   0.8531     C
N       0.1888   0.6956   0.7772     N
O       0.1889   0.5786   0.1037     O
H       0.1914   0.9536   0.5728     H
C       0.1921    0.316   0.6487     C
H       0.1933   0.9191    0.132     H
C       0.1939   0.4724   0.0037     C
C       0.1943   0.3264    0.485     C
C       0.1945   0.6456   0.1135     C
H       0.1949   0.5262   0.0104     H
N       0.1956   0.3112   0.7228     N
H       0.1967   0.5056    0.844     H
C       0.1968   0.2044   0.8619     C
N       0.2014   0.0222   0.4277     N
H       0.2014   0.9087   0.7319     H
N       0.2043   0.3291   0.4107     N
C       0.2044   0.8032   0.1381     C
H       0.2055   0.7715   0.3434     H
C       0.2064   0.2145    0.274     C
H       0.2072   0.2352    0.994     H
C       0.2081   0.8806   0.1495     C
H       0.2096   0.2429   0.1356     H
H       0.2132   0.7761   0.5203     H
C       0.2145   0.7936    0.726     C
O       0.2151   0.8917   0.4338     O
C       0.2162   0.6357   0.7534     C
C       0.2167   0.4679   0.9287     C
C       0.2172     0.87   0.7147     C
C       0.2178   0.1752   0.9019     C
H       0.2186    0.227   0.6121     H
O       0.2188   0.5708  0.76579     O
H       0.2239   0.2132   0.4797     H
C       0.2259   0.1829   0.2338     C
H       0.2268   0.2422   0.5234     H
H        0.227   0.7814   0.3879     H
H       0.2285   0.2055   0.6566     H
C       0.2298   0.6669   0.1524     C
C       0.2302   0.7449   0.1638     C
H       0.2328   0.4232   0.8487     H
C       0.2342   0.9002   0.1876     C
C       0.2348   0.2573    0.798     C
H        0.235   0.9516   0.1954     H
H       0.2352   0.7928    0.006     H
C       0.2364    0.245   0.6372     C
C       0.2384   0.2552   0.4966     C
C       0.2415   0.6562   0.7131     C
H       0.2422   0.7732   0.4766     H
C       0.2427   0.7348    0.702     C
H       0.2429   0.7904   0.8644     H
H       0.2438   0.9398   0.6681     H
C       0.2441   0.8887   0.6765     C
H       0.2443   0.4506   0.0076     H
C       0.2448   0.7384   0.0034     C
C       0.2449   0.2698   0.3362     C
C        0.245   0.7636   0.3628     C
C        0.255   0.7364   0.8628     C
C       0.2551   0.2302   0.8362     C
C       0.2552   0.7616   0.5034     C
H       0.2557   0.0494   0.5076     H
C       0.2559   0.6113   0.1765     C
H       0.2562   0.5602   0.1681     H
H       0.2571   0.7096   0.3644     H
C       0.2573   0.7652    0.202     C
H       0.2578   0.7268   0.9766     H
C       0.2585   0.8438   0.2131     C
C       0.2616   0.2448   0.9966     C
C       0.2636    0.255   0.1372     C
H       0.2648   0.7072    0.506     H
H        0.265   0.5484   0.6954     H
C       0.2652   0.2427    0.298     C
C       0.2658   0.5998   0.6876     C
H       0.2672   0.0768   0.3487     H
C       0.2698   0.7551   0.6638     C
C       0.2702   0.8331   0.6524     C
H       0.2715   0.2945   0.1566     H
H        0.273   0.7186   0.8879     H
H       0.2732   0.2578   0.0234     H
C       0.2741   0.3171   0.7338     C
H       0.2761   0.2868   0.9797     H
O       0.2812   0.9292  0.26579     O
H       0.2814    0.273   0.1121     H
C       0.2822   0.3248   0.4019     C
C       0.2828     0.63   0.2147     C
C       0.2833   0.0321   0.4287     C
C       0.2838   0.8643   0.2534     C
O       0.2849   0.6083   0.9338     O
C       0.2855   0.7064    0.226     C
H       0.2868   0.7239   0.0203     H
H       0.2904   0.2571   0.6356     H
C       0.2919   0.6194   0.6495     C
H       0.2928   0.2648    0.494     H
C       0.2936   0.2855    0.774     C
H       0.2945   0.7285   0.8434     H
C       0.2956   0.6968   0.6381     C
N       0.2957   0.1709   0.9107     N
N       0.2986   0.4778   0.9277     N
H       0.2986   0.5913   0.2319     H
C       0.3032   0.2956   0.3619     C
H       0.3033   0.9944    0.344     H
N       0.3044   0.1888   0.2228     N
H       0.3051   0.9738   0.5104     H
C       0.3055   0.8544   0.6135     C
C       0.3057   0.1736    0.985     C
C       0.3061   0.0276   0.5037     C
H       0.3067   0.5809    0.632     H
C       0.3079    0.184   0.1487     C
H       0.3086   0.5464   0.0728     H
O       0.3111   0.9214   0.6037     O
N       0.3112   0.8044   0.2772     N
C       0.3125    0.046   0.3531     C
O       0.3128   0.3495   0.9176     O
C        0.316   0.8079   0.3513     C
C       0.3169   0.1412    0.949     C
C       0.3171   0.7259   0.2662     C
H       0.3221   0.4128   0.0713     H
O       0.3223   0.3438   0.7121     O
C       0.3247   0.1556   0.1854     C
C       0.3248   0.7178   0.5981     C
C       0.3264   0.8057    0.515     C
C       0.3268   0.5534     0.93     C
C       0.3286   0.0364   0.4622     C
N       0.3291   0.7957   0.5893     N
C       0.3309   0.0446   0.3961     C
O       0.3313    0.345   0.4251     O
C       0.3331   0.2298   0.8476     C
N       0.3377   0.1278   0.0124     N
N       0.3396   0.1355   0.1223     N
Cu     0.34161  0.13582  0.06711    Cu
H       0.3427   0.0538   0.5202     H
C       0.3428   0.4108   0.9234     C
C       0.3438   0.2415   0.2869     C
O       0.3438   0.6777   0.2879     O
C       0.3444   0.8247   0.3146     C
O        0.345   0.6687   0.5749     O
H       0.3477    0.998   0.9093     H
O       0.3495   0.6872   0.0824     O
C       0.3544   0.1945   0.8865     C
H       0.3551   0.0678   0.3389     H
C       0.3578   0.5249   0.0728     C
C       0.3582   0.0733   0.9548     C
C       0.3588   0.8169    0.551     C
H       0.3595     0.03   0.2316     H
Cu     0.36418  0.84161  0.43289    Cu
C       0.3643   0.2162   0.2466     C
C       0.3645   0.0881   0.1806     C
N       0.3645   0.8396   0.3777     N
C       0.3656   0.4443   0.0718     C
C         0.37   0.2828   0.7853     C
N       0.3709   0.0667   0.9934     N
N       0.3722   0.8377   0.4876     N
N       0.3731   0.0755  0.14167     N
C       0.3806   0.2919   0.3505     C
C       0.3887   0.2559   0.8235     C
C        0.389   0.0163   0.9256     C
O       0.3917   0.2849   0.0662     O
C        0.396   0.0356   0.2105     C
C       0.4002   0.2658   0.3124     C
N       0.4015   0.0507  0.45055     N
N       0.4028   0.0547  0.40958     N
H       0.4058   0.9861   0.1989     H
H       0.4087   0.2986   0.7681     H
C       0.4108   0.6572   0.0766     C
C       0.4119   0.8645   0.3194     C
H       0.4119   0.9736   0.9394     H
C       0.4128   0.5625   0.9285     C
H       0.4128   0.6779   0.9287     H
Cu     0.41487  0.99243  0.11521    Cu
Cu     0.41703  0.98782    0.022    Cu
H       0.4191   0.3067    0.368     H
C       0.4196   0.5715   0.0737     C
O       0.4214   0.1889   0.8963     O
H       0.4232   0.7672   0.1513     H
N       0.4245   0.8731  0.35833     N
C       0.4267   0.8582   0.5452     C
H       0.4274   0.0408   0.9095     H
C       0.4285   0.4196   0.9263     C
O       0.4292   0.2188  0.23421     O
H       0.4322   0.8551   0.1611     H
N       0.4333   0.8709   0.5066     N
C       0.4375   0.4128   0.0715     C
H       0.4398   0.2562   0.8319     H
H       0.4434   0.0564   0.2207     H
H       0.4436   0.9434   0.2793     H
C       0.4443   0.6344   0.9282     C
N       0.4453   0.9028  0.09042     N
H       0.4462   0.8427   0.9798     H
C       0.4466   0.3268     0.07     C
N       0.4493   0.9015  0.04945     N
H       0.4506   0.7557   0.9924     H
H       0.4516    0.265   0.3046     H
H       0.4536   0.3086   0.9272     H
C        0.454   0.8125   0.1469     C
C       0.4554   0.8309   0.1039     C
C       0.4592   0.4955    0.928     C
H       0.4592   0.9274   0.5905     H
C       0.4636   0.8286   0.0378     C
C       0.4644    0.896   0.2895     C
C       0.4679   0.7833   0.0713     C
H         0.47   0.8595   0.2684     H
C       0.4724   0.8061   0.9963     C
H       0.4736   0.0881   0.5606     H
H       0.4738   0.1949   0.9896     H
C       0.4751   0.3578   0.9272     C
N       0.4778   0.7014   0.0723     N
C       0.4837    0.889   0.5744     C
H       0.4861   0.0942   0.3011     H
Cu     0.48782  0.08297    0.478    Cu
Cu     0.49243  0.08513  0.38479    Cu
H       0.4944   0.1967    0.156     H
C       0.4955   0.5408    0.072     C
H        0.498   0.1523   0.5907     H
H        0.502   0.8477   0.5907     H
C       0.5045   0.4592    0.072     C
H       0.5056   0.8033    0.156     H
Cu     0.50757  0.91487  0.38479    Cu
Cu     0.51218  0.91703    0.478    Cu
H       0.5139   0.9058   0.3011     H
C       0.5163    0.111   0.5744     C
N       0.5222   0.2986   0.0723     N
C       0.5249   0.6422   0.9272     C
H       0.5262   0.8051   0.9896     H
H       0.5264   0.9119   0.5606     H
C       0.5276   0.1939   0.9963     C
H         0.53   0.1405   0.2684     H
C       0.5321   0.2167   0.0713     C
C       0.5356    0.104   0.2895     C
C       0.5364   0.1714   0.0378     C
H       0.5408   0.0726   0.5905     H
C       0.5408   0.5045    0.928     C
C       0.5446   0.1691   0.1039     C
C        0.546   0.1875   0.1469     C
H       0.5464   0.6914   0.9272     H
H       0.5484    0.735   0.3046     H
H       0.5494   0.2443   0.9924     H
N       0.5507   0.0985  0.04945     N
C       0.5534   0.6732     0.07     C
H       0.5538   0.1573   0.9798     H
N       0.5547   0.0972  0.09042     N
C       0.5557   0.3656   0.9282     C
H       0.5564   0.0566   0.2793     H
H       0.5566   0.9436   0.2207     H
H       0.5602   0.7438   0.8319     H
C       0.5625   0.5872   0.0715     C
N       0.5667   0.1291   0.5066     N
H       0.5678   0.1449   0.1611     H
O       0.5708   0.7812  0.23421     O
C       0.5715   0.5804   0.9263     C
H       0.5726   0.9592   0.9095     H
C       0.5733   0.1418   0.5452     C
N       0.5755   0.1269  0.35833     N
H       0.5768   0.2328   0.1513     H
O       0.5786   0.8111   0.8963     O
C       0.5804   0.4285   0.0737     C
H       0.5809   0.6933    0.368     H
Cu     0.58297  0.01218    0.022    Cu
Cu     0.58513  0.00757  0.11521    Cu
H       0.5872   0.3221   0.9287     H
C       0.5872   0.4375   0.9285     C
H       0.5881   0.0264   0.9394     H
C       0.5881   0.1355   0.3194     C
C       0.5892   0.3428   0.0766     C
H       0.5913   0.7014   0.7681     H
H       0.5942   0.0139   0.1989     H
N       0.5972   0.9453  0.40958     N
N       0.5985   0.9493  0.45055     N
C       0.5998   0.7342   0.3124     C
C        0.604   0.9644   0.2105     C
O       0.6083   0.7151   0.0662     O
C        0.611   0.9837   0.9256     C
C       0.6113   0.7441   0.8235     C
C       0.6194   0.7081   0.3505     C
N       0.6269   0.9245  0.14167     N
N       0.6278   0.1623   0.4876     N
N       0.6291   0.9333   0.9934     N
C         0.63   0.7172   0.7853     C
C       0.6344   0.5557   0.0718     C
N       0.6355   0.1604   0.3777     N
C       0.6355   0.9119   0.1806     C
C       0.6357   0.7838   0.2466     C
Cu     0.63582  0.15839  0.43289    Cu
H       0.6405     0.97   0.2316     H
C       0.6412   0.1831    0.551     C
C       0.6418   0.9267   0.9548     C
C       0.6422   0.4751   0.0728     C
H       0.6449   0.9322   0.3389     H
C       0.6456   0.8055   0.8865     C
O       0.6505   0.3128   0.0824     O
H       0.6523    0.002   0.9093     H
O        0.655   0.3313   0.5749     O
C       0.6556   0.1753   0.3146     C
O       0.6562   0.3223   0.2879     O
C       0.6562   0.7585   0.2869     C
C       0.6572   0.5892   0.9234     C
H       0.6573   0.9462   0.5202     H
Cu     0.65839  0.86418  0.06711    Cu
N       0.6604   0.8645   0.1223     N
N       0.6623   0.8722   0.0124     N
C       0.6669   0.7702   0.8476     C
O       0.6687    0.655   0.4251     O
C       0.6691   0.9554   0.3961     C
N       0.6709   0.2043   0.5893     N
C       0.6714   0.9636   0.4622     C
C       0.6732   0.4466     0.93     C
C       0.6736   0.1943    0.515     C
C       0.6752   0.2822   0.5981     C
C       0.6753   0.8444   0.1854     C
O       0.6777   0.6562   0.7121     O
H       0.6779   0.5872   0.0713     H
C       0.6829   0.2741   0.2662     C
C       0.6831   0.8588    0.949     C
C        0.684   0.1921   0.3513     C
O       0.6872   0.6505   0.9176     O
C       0.6875    0.954   0.3531     C
N       0.6888   0.1956   0.2772     N
O       0.6889   0.0786   0.6037     O
H       0.6914   0.4536   0.0728     H
C       0.6921    0.816   0.1487     C
H       0.6933   0.4191    0.632     H
C       0.6939   0.9724   0.5037     C
C       0.6943   0.8264    0.985     C
C       0.6945   0.1456   0.6135     C
H       0.6949   0.0262   0.5104     H
N       0.6956   0.8112   0.2228     N
H       0.6967   0.0056    0.344     H
C       0.6968   0.7044   0.3619     C
H       0.7014   0.4087   0.2319     H
N       0.7014   0.5222   0.9277     N
N       0.7043   0.8291   0.9107     N
C       0.7044   0.3032   0.6381     C
H       0.7055   0.2715   0.8434     H
C       0.7064   0.7145    0.774     C
H       0.7072   0.7352    0.494     H
C       0.7081   0.3806   0.6495     C
H       0.7096   0.7429   0.6356     H
H       0.7132   0.2761   0.0203     H
C       0.7145   0.2936    0.226     C
O       0.7151   0.3917   0.9338     O
C       0.7162   0.1357   0.2534     C
C       0.7167   0.9679   0.4287     C
C       0.7172     0.37   0.2147     C
C       0.7178   0.6752   0.4019     C
H       0.7186    0.727   0.1121     H
O       0.7188   0.0708  0.26579     O
H       0.7239   0.7132   0.9797     H
C       0.7259   0.6829   0.7338     C
H       0.7268   0.7422   0.0234     H
H        0.727   0.2814   0.8879     H
H       0.7285   0.7055   0.1566     H
C       0.7298   0.1669   0.6524     C
C       0.7302   0.2449   0.6638     C
H       0.7328   0.9232   0.3487     H
C       0.7342   0.4002   0.6876     C
C       0.7348   0.7573    0.298     C
H        0.735   0.4516   0.6954     H
H       0.7352   0.2928    0.506     H
C       0.7364    0.745   0.1372     C
C       0.7384   0.7552   0.9966     C
C       0.7415   0.1562   0.2131     C
H       0.7422   0.2732   0.9766     H
C       0.7427   0.2348    0.202     C
H       0.7429   0.2904   0.3644     H
H       0.7438   0.4398   0.1681     H
C       0.7441   0.3887   0.1765     C
H       0.7443   0.9506   0.5076     H
C       0.7448   0.2384   0.5034     C
C       0.7449   0.7698   0.8362     C
C        0.745   0.2636   0.8628     C
C        0.755   0.2364   0.3628     C
C       0.7551   0.7302   0.3362     C
C       0.7552   0.2616   0.0034     C
H       0.7557   0.5494   0.0076     H
C       0.7559   0.1113   0.6765     C
H       0.7562   0.0602   0.6681     H
H       0.7571   0.2096   0.8644     H
C       0.7573   0.2652    0.702     C
H       0.7578   0.2268   0.4766     H
C       0.7585   0.3438   0.7131     C
C       0.7616   0.7448   0.4966     C
C       0.7636    0.755   0.6372     C
H       0.7648   0.2072    0.006     H
H        0.765   0.0484   0.1954     H
C       0.7652   0.7427    0.798     C
C       0.7658   0.0998   0.1876     C
H       0.7672   0.5768   0.8487     H
C       0.7698   0.2551   0.1638     C
C       0.7702   0.3331   0.1524     C
H       0.7715   0.7945   0.6566     H
H        0.773   0.2186   0.3879     H
H       0.7732   0.7578   0.5234     H
C       0.7741   0.8171   0.2338     C
H       0.7761   0.7868   0.4797     H
O       0.7812   0.4292  0.76579     O
H       0.7814    0.773   0.6121     H
C       0.7822   0.8248   0.9019     C
C       0.7828     0.13   0.7147     C
C       0.7833   0.5321   0.9287     C
C       0.7838   0.3643   0.7534     C
O       0.7849   0.1083   0.4338     O
C       0.7855   0.2064    0.726     C
H       0.7868   0.2239   0.5203     H
H       0.7904   0.7571   0.1356     H
C       0.7919   0.1194   0.1495     C
H       0.7928   0.7648    0.994     H
C       0.7936   0.7855    0.274     C
H       0.7945   0.2285   0.3434     H
C       0.7956   0.1968   0.1381     C
N       0.7957   0.6709   0.4107     N
H       0.7986   0.0913   0.7319     H
N       0.7986   0.9778   0.4277     N
C       0.8032   0.7956   0.8619     C
H       0.8033   0.4944    0.844     H
N       0.8044   0.6888   0.7228     N
H       0.8051   0.4738   0.0104     H
C       0.8055   0.3544   0.1135     C
C       0.8057   0.6736    0.485     C
C       0.8061   0.5276   0.0037     C
H       0.8067   0.0809    0.132     H
C       0.8079    0.684   0.6487     C
H       0.8086   0.0464   0.5728     H
O       0.8111   0.4214   0.1037     O
N       0.8112   0.3044   0.7772     N
C       0.8125    0.546   0.8531     C
O       0.8128   0.8495   0.4176     O
C        0.816   0.3079   0.8513     C
C       0.8169   0.6412    0.449     C
C       0.8171   0.2259   0.7662     C
H       0.8221   0.9128   0.5713     H
O       0.8223   0.8438   0.2121     O
C       0.8247   0.6556   0.6854     C
C       0.8248   0.2178   0.0981     C
C       0.8264   0.3057    0.015     C
C       0.8268   0.0534     0.43     C
C       0.8286   0.5364   0.9622     C
N       0.8291   0.2957   0.0893     N
C       0.8309   0.5446   0.8961     C
O       0.8313    0.845   0.9251     O
C       0.8331   0.7298   0.3476     C
N       0.8377   0.6278   0.5124     N
N       0.8396   0.6355   0.6223     N
Cu     0.84161  0.63582  0.56711    Cu
H       0.8427   0.5538   0.0202     H
C       0.8428   0.9108   0.4234     C
O       0.8438   0.1777   0.7879     O
C       0.8438   0.7415   0.7869     C
C       0.8444   0.3247   0.8146     C
O        0.845   0.1687   0.0749     O
H       0.8477    0.498   0.4093     H
O       0.8495   0.1872   0.5824     O
C       0.8544   0.6945   0.3865     C
H       0.8551   0.5678   0.8389     H
C       0.8578   0.0249   0.5728     C
C       0.8582   0.5733   0.4548     C
C       0.8588   0.3169    0.051     C
H       0.8595     0.53   0.7316     H
Cu     0.86418  0.34161  0.93289    Cu
C       0.8643   0.7162   0.7466     C
N       0.8645   0.3396   0.8777     N
C       0.8645   0.5881   0.6806     C
C       0.8656   0.9443   0.5718     C
C         0.87   0.7828   0.2853     C
N       0.8709   0.5667   0.4934     N
N       0.8722   0.3377   0.9876     N
N       0.8731   0.5755  0.64167     N
C       0.8806   0.7919   0.8505     C
C       0.8887   0.7559   0.3235     C
C        0.889   0.5163   0.4256     C
O       0.8917   0.7849   0.5662     O
C        0.896   0.5356   0.7105     C
C       0.9002   0.7658   0.8124     C
N       0.9015   0.5507  0.95055     N
N       0.9028   0.5547  0.90958     N
H       0.9058   0.4861   0.6989     H
H       0.9087   0.7986   0.2681     H
C       0.9108   0.1572   0.5766     C
C       0.9119   0.3645   0.8194     C
H       0.9119   0.4736   0.4394     H
C       0.9128   0.0625   0.4285     C
H       0.9128   0.1779   0.4287     H
Cu     0.91487  0.49243  0.61521    Cu
Cu     0.91703  0.48782    0.522    Cu
H       0.9191   0.8067    0.868     H
C       0.9196   0.0715   0.5737     C
O       0.9214   0.6889   0.3963     O
H       0.9232   0.2672   0.6513     H
N       0.9245   0.3731  0.85833     N
C       0.9267   0.3582   0.0452     C
H       0.9274   0.5408   0.4095     H
C       0.9285   0.9196   0.4263     C
O       0.9292   0.7188  0.73421     O
H       0.9322   0.3551   0.6611     H
N       0.9333   0.3709   0.0066     N
C       0.9375   0.9128   0.5715     C
H       0.9398   0.7562   0.3319     H
H       0.9434   0.5564   0.7207     H
H       0.9436   0.4434   0.7793     H
C       0.9443   0.1344   0.4282     C
N       0.9453   0.4028  0.59042     N
H       0.9462   0.3427   0.4798     H
C       0.9466   0.8268     0.57     C
N       0.9493   0.4015  0.54945     N
H       0.9506   0.2557   0.4924     H
H       0.9516    0.765   0.8046     H
H       0.9536   0.8086   0.4272     H
C        0.954   0.3125   0.6469     C
C       0.9554   0.3309   0.6039     C
H       0.9592   0.4274   0.0905     H
C       0.9592   0.9955    0.428     C
C       0.9636   0.3286   0.5378     C
C       0.9644    0.396   0.7895     C
C       0.9679   0.2833   0.5713     C
H         0.97   0.3595   0.7684     H
C       0.9724   0.3061   0.4963     C
H       0.9736   0.5881   0.0606     H
H       0.9738   0.6949   0.4896     H
C       0.9751   0.8578   0.4272     C
N       0.9778   0.2014   0.5723     N
C       0.9837    0.389   0.0744     C
H       0.9861   0.5942   0.8011     H
Cu     0.98782  0.58297    0.978    Cu
Cu     0.99243  0.58513  0.88479    Cu
H       0.9944   0.6967    0.656     H
C       0.9955   0.0408    0.572     C
H        0.998   0.6523   0.0907     H
