data_I
_chemical_name_common  '/home/zhangsd/repos/MofS-CGCNN/ML/data/SSD/clean_cifs/GAMTAQ_clean'
_cell_length_a  8.61800
_cell_length_b 11.02800
_cell_length_c 11.12600
_cell_angle_alpha 64.06000
_cell_angle_beta  80.57000
_cell_angle_gamma 73.21000
_space_group_name_H-M_alt      'P 1'


loop_
_space_group_symop_operation_xyz
  'x, y, z' 

loop_
_atom_site_label
_atom_site_fract_x
_atom_site_fract_y
_atom_site_fract_z
_atom_site_type_symbol
H       0.0123   0.3996   0.6896     H
O       0.0319   0.4378   0.9087     O
H       0.0374   0.2551   0.8192     H
C       0.0917   0.3285   0.7563     C
C       0.1404   0.3952   0.8327     C
C       0.2339    0.265   0.6849     C
La     0.24652  0.50634  0.00142    La
H       0.2541   0.4476   0.5259     H
H       0.2596   0.0655    0.822     H
O       0.2688   0.4421   0.2564     O
O       0.2778   0.2598   0.1181     O
O       0.2808    0.409    0.823     O
C       0.3011   0.3503   0.5648     C
C       0.3044   0.1232   0.7402     C
O       0.3166   0.0458   0.1361     O
C         0.35   0.1322   0.1631     C
H       0.3771   0.6684   0.6384     H
H       0.4052   0.8894   0.4839     H
C       0.4183   0.4274   0.2505     C
H       0.4302   0.8606   0.7922     H
C       0.4361    0.293   0.5026     C
C        0.438   0.0636   0.6794     C
H        0.439   0.1212   0.3301     H
H       0.4821   0.5325   0.6185     H
C       0.4845   0.0899   0.2579     C
C        0.489   0.6169   0.6262     C
C       0.4967     0.85   0.4406     C
O       0.4978   0.4516   0.1371     O
O       0.5022   0.5484   0.8629     O
C       0.5033     0.15   0.5594     C
C        0.511   0.3831   0.3738     C
C       0.5155   0.9101   0.7421     C
H       0.5179   0.4675   0.3815     H
H        0.561   0.8788   0.6699     H
C        0.562   0.9364   0.3206     C
C       0.5639    0.707   0.4974     C
H       0.5698   0.1394   0.2078     H
C       0.5817   0.5726   0.7495     C
H       0.5948   0.1106   0.5161     H
H       0.6229   0.3316   0.3616     H
C         0.65   0.8678   0.8369     C
O       0.6834   0.9542   0.8639     O
C       0.6956   0.8768   0.2598     C
C       0.6989   0.6497   0.4352     C
O       0.7192    0.591    0.177     O
O       0.7222   0.7402   0.8819     O
O       0.7312   0.5579   0.7436     O
H       0.7404   0.9345    0.178     H
H       0.7459   0.5524   0.4741     H
La     0.75348  0.49366  0.99858    La
C       0.7661    0.735   0.3151     C
C       0.8596   0.6048   0.1673     C
C       0.9083   0.6715   0.2437     C
H       0.9626   0.7449   0.1808     H
O       0.9681   0.5622   0.0913     O
H       0.9877   0.6004   0.3104     H
