data_I
_chemical_name_common  '/home/zhangsd/repos/MofS-CGCNN/ML/data/SSD/clean_cifs/GAMTEU_clean'
_cell_length_a  8.58200
_cell_length_b 10.95600
_cell_length_c 11.21700
_cell_angle_alpha 64.17000
_cell_angle_beta  79.98000
_cell_angle_gamma 73.43100
_space_group_name_H-M_alt      'P 1'


loop_
_space_group_symop_operation_xyz
  'x, y, z' 

loop_
_atom_site_label
_atom_site_fract_x
_atom_site_fract_y
_atom_site_fract_z
_atom_site_type_symbol
C       0.0014     0.15   0.5586     C
C       0.0062   0.3807   0.3684     C
O       0.0081   0.5431   0.8694     O
H       0.0159    0.466   0.3739     H
C       0.0159   0.9082   0.7457     C
H       0.0582   0.8749   0.6745     H
C       0.0663   0.7085   0.4982     C
H       0.0669   0.1433   0.1988     H
C        0.067    0.934   0.3184     C
C       0.0836   0.5746    0.754     C
H        0.093   0.1091   0.5159     H
H       0.1179   0.3282   0.3556     H
C        0.158   0.8743   0.8323     C
O       0.1934   0.9606   0.8539     O
C       0.1953    0.875    0.257     C
C        0.201   0.6492   0.4378     C
O       0.2174   0.5844   0.1775     O
O       0.2216   0.7435   0.8841     O
H       0.2367   0.9315   0.1726     H
O       0.2459   0.5525   0.7506     O
H       0.2483   0.5519    0.479     H
Ce       0.252  0.49734  0.99676    Ce
C       0.2689   0.7316   0.3155     C
C       0.3598   0.6021   0.1674     C
C       0.4096   0.6639   0.2495     C
O       0.4712   0.5568   0.0923     O
H       0.4723   0.7338   0.1909     H
H       0.4822   0.5888   0.3181     H
H       0.5178   0.4112   0.6819     H
H       0.5277   0.2662   0.8091     H
O       0.5288   0.4432   0.9077     O
C       0.5904   0.3361   0.7505     C
C       0.6402   0.3979   0.8326     C
C       0.7311   0.2684   0.6845     C
Ce       0.748  0.50266  0.00324    Ce
H       0.7517   0.4481    0.521     H
O       0.7541   0.4475   0.2494     O
H       0.7633   0.0685   0.8274     H
O       0.7784   0.2565   0.1159     O
O       0.7826   0.4156   0.8225     O
C        0.799   0.3508   0.5622     C
C       0.8047    0.125    0.743     C
O       0.8066   0.0394   0.1461     O
C        0.842   0.1257   0.1677     C
H       0.8821   0.6718   0.6444     H
H        0.907   0.8909   0.4841     H
C       0.9164   0.4254    0.246     C
C        0.933    0.066   0.6816     C
H       0.9331   0.8567   0.8012     H
C       0.9337   0.2915   0.5018     C
H       0.9418   0.1251   0.3255     H
C       0.9841   0.0918   0.2543     C
H       0.9841    0.534   0.6261     H
O       0.9919   0.4569   0.1306     O
C       0.9938   0.6193   0.6316     C
C       0.9986     0.85   0.4414     C
