data_I
_chemical_name_common  '/home/zhangsd/repos/MofS-CGCNN/ML/data/SSD/clean_cifs/GAMTIY_clean'
_cell_length_a  8.54100
_cell_length_b 10.90900
_cell_length_c 11.19800
_cell_angle_alpha 64.15300
_cell_angle_beta  79.90200
_cell_angle_gamma 73.71100
_space_group_name_H-M_alt      'P 1'


loop_
_space_group_symop_operation_xyz
  'x, y, z' 

loop_
_atom_site_label
_atom_site_fract_x
_atom_site_fract_y
_atom_site_fract_z
_atom_site_type_symbol
H       0.0156   0.4024   0.1889     H
O       0.0305   0.4371   0.4116     O
H       0.0343   0.2559   0.3156     H
C       0.0925   0.3295   0.2553     C
C       0.1379   0.3951   0.3368     C
C       0.2324   0.2668    0.185     C
Pr     0.24808  0.50296  0.50342    Pr
H       0.2504   0.4473   0.0229     H
H       0.2644   0.0664   0.3248     H
O       0.2655   0.4365    0.756     O
O        0.276   0.2594   0.6151     O
O        0.282   0.4076   0.3265     O
C       0.2991     0.35   0.0629     C
O       0.3054   0.0385   0.6501     O
C       0.3067   0.1243    0.241     C
C       0.3458   0.1309   0.6665     C
H       0.3785     0.67   0.1447     H
H       0.4068   0.8895   0.9876     H
C       0.4152   0.4257   0.7462     C
C       0.4337   0.2944   0.9992     C
H       0.4341   0.1224   0.8286     H
H       0.4347   0.8586   0.2948     H
C       0.4387   0.0651   0.1789     C
C       0.4798   0.0901   0.7569     C
H       0.4805   0.5314   0.1267     H
C       0.4904   0.6173   0.1318     C
O       0.4967   0.4521   0.6338     O
C       0.4976   0.8496   0.9432     C
C       0.5024   0.1504   0.0568     C
O       0.5033   0.5479   0.3662     O
C       0.5096   0.3827   0.8682     C
H       0.5195   0.4686   0.8733     H
C       0.5202   0.9099   0.2431     C
C       0.5613   0.9349   0.8211     C
H       0.5653   0.1414   0.7052     H
H       0.5659   0.8776   0.1714     H
C       0.5663   0.7056   0.0008     C
C       0.5848   0.5743   0.2538     C
H       0.5932   0.1105   0.0124     H
H       0.6215     0.33   0.8553     H
C       0.6542   0.8691   0.3335     C
C       0.6933   0.8757    0.759     C
O       0.6946   0.9615   0.3499     O
C       0.7009     0.65   0.9371     C
O        0.718   0.5924   0.6735     O
O        0.724   0.7406   0.3849     O
O       0.7345   0.5635    0.244     O
H       0.7356   0.9336   0.6752     H
H       0.7496   0.5527   0.9771     H
Pr     0.75192  0.49704  0.49658    Pr
C       0.7676   0.7332    0.815     C
C       0.8621   0.6049   0.6632     C
C       0.9075   0.6705   0.7447     C
H       0.9657   0.7441   0.6844     H
O       0.9695   0.5629   0.5884     O
H       0.9844   0.5976   0.8111     H
