data_I
_chemical_name_common  '/home/zhangsd/repos/MofS-CGCNN/ML/data/SSD/clean_cifs/GARLOD_clean'
_cell_length_a 15.85800
_cell_length_b 10.52200
_cell_length_c 20.97000
_cell_angle_alpha 90.00000
_cell_angle_beta  107.52000
_cell_angle_gamma 90.00000
_space_group_name_H-M_alt      'P 1'


loop_
_space_group_symop_operation_xyz
  'x, y, z' 

loop_
_atom_site_label
_atom_site_fract_x
_atom_site_fract_y
_atom_site_fract_z
_atom_site_type_symbol
H       0.0069   0.4326   0.4398     H
H       0.0069   0.5674   0.9398     H
C        0.015   0.3595   0.4174     C
C        0.015   0.6405   0.9174     C
C       0.0348   0.2152   0.1728     C
C       0.0348   0.7848   0.6728     C
C       0.0417   0.1457   0.3511     C
C       0.0417   0.8543   0.8511     C
C       0.0505   0.3215   0.1403     C
C       0.0505   0.6785   0.6403     C
H        0.051   0.0743   0.3279     H
H        0.051   0.9257   0.8279     H
H        0.077   0.1895    0.212     H
H        0.077   0.8105    0.712     H
C       0.0914   0.2902   0.4414     C
C       0.0914   0.7098   0.9414     C
H       0.0995   0.4504   0.2684     H
H       0.0995   0.5496   0.7684     H
C       0.1046   0.1822   0.4094     C
C       0.1046   0.8178   0.9094     C
H       0.1205   0.4881   0.1625     H
H       0.1205   0.5119   0.6625     H
H       0.1346    0.317   0.4798     H
H       0.1346    0.683   0.9798     H
C       0.1354   0.3985   0.1644     C
C       0.1354   0.6015   0.6644     C
H       0.1389   0.4205   0.8775     H
H       0.1389   0.5795   0.3775     H
C       0.1603   0.4223   0.2862     C
C       0.1603   0.5777   0.7862     C
H       0.1622   0.3568   0.3191     H
H       0.1622   0.6432   0.8191     H
H       0.1704   0.3842   0.1343     H
H       0.1704   0.6158   0.6343     H
C       0.1873    0.107   0.4373     C
C       0.1873    0.893   0.9373     C
N       0.1884   0.3673   0.2319     N
N       0.1884   0.6327   0.7319     N
C       0.1908   0.3984   0.8683     C
C       0.1908   0.6016   0.3683     C
O       0.1954   0.0102   0.4011     O
O       0.1954   0.9898   0.9011     O
C       0.2169   0.4661   0.8206     C
C       0.2169   0.5339   0.3206     C
H       0.2222   0.2511    0.933     H
H       0.2222   0.7489    0.433     H
H       0.2357    0.214   0.1495     H
H       0.2357    0.786   0.6495     H
O       0.2413   0.1344   0.4897     O
C       0.2413   0.2981   0.9024     C
C       0.2413   0.7019   0.4024     C
O       0.2413   0.8656   0.9897     O
C       0.2513   0.2721   0.2449     C
C       0.2513   0.7279   0.7449     C
C       0.2688   0.1998   0.1937     C
C       0.2688   0.8002   0.6937     C
H       0.2932   0.2919   0.3462     H
H       0.2932   0.7081   0.8462     H
C       0.2945   0.4321   0.8081     C
C       0.2945   0.5679   0.3081     C
C       0.3035   0.2473    0.311     C
C       0.3035   0.7527    0.811     C
O       0.3111   0.0708   0.0916     O
O       0.3111   0.9292   0.5916     O
H       0.3123   0.4755   0.7757     H
H       0.3123   0.5245   0.2757     H
C       0.3214   0.2679   0.8906     C
C       0.3214   0.7321   0.3906     C
C       0.3338   0.1088    0.208     C
C       0.3338   0.8912    0.708     C
C        0.346   0.0317   0.1505     C
C        0.346   0.9683   0.6505     C
C       0.3464    0.334   0.8433     C
C       0.3464    0.666   0.3433     C
O       0.3474   0.0874   0.9614     O
O       0.3474   0.9126   0.4614     O
C       0.3706   0.1563    0.324     C
C       0.3706   0.8437    0.824     C
C       0.3806   0.1679    0.931     C
C       0.3806   0.8321    0.431     C
C       0.3867   0.0862   0.2728     C
C       0.3867   0.9138   0.7728     C
O       0.3916   0.1693   0.4406     O
O       0.3916   0.8307   0.9406     O
O       0.3944   0.0657   0.6621     O
O       0.3944   0.9343   0.1621     O
H       0.3988    0.313   0.8345     H
H       0.3988    0.687   0.3345     H
Sm     0.39932  0.07927  0.54608    Sm
Sm     0.39932  0.92073  0.04608    Sm
C        0.424   0.1335    0.396     C
C        0.424   0.8665    0.896     C
H       0.4315   0.0258   0.2818     H
H       0.4315   0.9742   0.7818     H
O       0.4597   0.1701   0.9336     O
O       0.4597   0.8299   0.4336     O
O       0.4976   0.0786    0.407     O
O       0.4976   0.9214    0.907     O
O       0.5024   0.0786    0.093     O
O       0.5024   0.9214    0.593     O
O       0.5403   0.1701   0.5664     O
O       0.5403   0.8299   0.0664     O
H       0.5685   0.0258   0.2182     H
H       0.5685   0.9742   0.7182     H
C        0.576   0.1335    0.104     C
C        0.576   0.8665    0.604     C
Sm     0.60068  0.07927  0.95392    Sm
Sm     0.60068  0.92073  0.45392    Sm
H       0.6012    0.313   0.6655     H
H       0.6012    0.687   0.1655     H
O       0.6056   0.0657   0.8379     O
O       0.6056   0.9343   0.3379     O
O       0.6084   0.1693   0.0594     O
O       0.6084   0.8307   0.5594     O
C       0.6133   0.0862   0.2272     C
C       0.6133   0.9138   0.7272     C
C       0.6194   0.1679    0.569     C
C       0.6194   0.8321    0.069     C
C       0.6294   0.1563    0.176     C
C       0.6294   0.8437    0.676     C
O       0.6526   0.0874   0.5386     O
O       0.6526   0.9126   0.0386     O
C       0.6536    0.334   0.6567     C
C       0.6536    0.666   0.1567     C
C        0.654   0.0317   0.3495     C
C        0.654   0.9683   0.8495     C
C       0.6662   0.1088    0.292     C
C       0.6662   0.8912    0.792     C
C       0.6786   0.2679   0.6094     C
C       0.6786   0.7321   0.1094     C
H       0.6877   0.4755   0.7243     H
H       0.6877   0.5245   0.2243     H
O       0.6889   0.0708   0.4084     O
O       0.6889   0.9292   0.9084     O
C       0.6965   0.2473    0.189     C
C       0.6965   0.7527    0.689     C
C       0.7055   0.4321   0.6919     C
C       0.7055   0.5679   0.1919     C
H       0.7068   0.2919   0.1538     H
H       0.7068   0.7081   0.6538     H
C       0.7312   0.1998   0.3063     C
C       0.7312   0.8002   0.8063     C
C       0.7487   0.2721   0.2551     C
C       0.7487   0.7279   0.7551     C
O       0.7587   0.1344   0.0103     O
C       0.7587   0.2981   0.5976     C
C       0.7587   0.7019   0.0976     C
O       0.7587   0.8656   0.5103     O
H       0.7643    0.214   0.3505     H
H       0.7643    0.786   0.8505     H
H       0.7778   0.2511    0.567     H
H       0.7778   0.7489    0.067     H
C       0.7831   0.4661   0.6794     C
C       0.7831   0.5339   0.1794     C
O       0.8046   0.0102   0.0989     O
O       0.8046   0.9898   0.5989     O
C       0.8092   0.3984   0.6317     C
C       0.8092   0.6016   0.1317     C
N       0.8116   0.3673   0.2681     N
N       0.8116   0.6327   0.7681     N
C       0.8127    0.107   0.0627     C
C       0.8127    0.893   0.5627     C
H       0.8296   0.3842   0.3657     H
H       0.8296   0.6158   0.8657     H
H       0.8378   0.3568   0.1809     H
H       0.8378   0.6432   0.6809     H
C       0.8397   0.4223   0.2138     C
C       0.8397   0.5777   0.7138     C
H       0.8611   0.4205   0.6225     H
H       0.8611   0.5795   0.1225     H
C       0.8646   0.3985   0.3356     C
C       0.8646   0.6015   0.8356     C
H       0.8654    0.317   0.0202     H
H       0.8654    0.683   0.5202     H
H       0.8795   0.4881   0.3375     H
H       0.8795   0.5119   0.8375     H
C       0.8954   0.1822   0.0906     C
C       0.8954   0.8178   0.5906     C
H       0.9005   0.4504   0.2316     H
H       0.9005   0.5496   0.7316     H
C       0.9086   0.2902   0.0586     C
C       0.9086   0.7098   0.5586     C
H        0.923   0.1895    0.288     H
H        0.923   0.8105    0.788     H
H        0.949   0.0743   0.1721     H
H        0.949   0.9257   0.6721     H
C       0.9495   0.3215   0.3597     C
C       0.9495   0.6785   0.8597     C
C       0.9583   0.1457   0.1489     C
C       0.9583   0.8543   0.6489     C
C       0.9652   0.2152   0.3272     C
C       0.9652   0.7848   0.8272     C
C        0.985   0.3595   0.0826     C
C        0.985   0.6405   0.5826     C
H       0.9931   0.4326   0.0602     H
H       0.9931   0.5674   0.5602     H
