data_I
_chemical_name_common  '/home/zhangsd/repos/MofS-CGCNN/ML/data/SSD/clean_cifs/GARLIX_clean'
_cell_length_a 15.83800
_cell_length_b 10.54800
_cell_length_c 21.07400
_cell_angle_alpha 90.00000
_cell_angle_beta  107.24700
_cell_angle_gamma 90.00000
_space_group_name_H-M_alt      'P 1'


loop_
_space_group_symop_operation_xyz
  'x, y, z' 

loop_
_atom_site_label
_atom_site_fract_x
_atom_site_fract_y
_atom_site_fract_z
_atom_site_type_symbol
H       0.0051   0.4337   0.4387     H
H       0.0051   0.5663   0.9387     H
C       0.0136   0.3604   0.4168     C
C       0.0136   0.6396   0.9168     C
C       0.0358   0.2157   0.1727     C
C       0.0358   0.7843   0.6727     C
C       0.0407   0.1452   0.3516     C
C       0.0407   0.8548   0.8516     C
H       0.0497   0.0731    0.329     H
H       0.0497   0.9269    0.829     H
C       0.0517    0.322   0.1406     C
C       0.0517    0.678   0.6406     C
H       0.0775   0.1903   0.2119     H
H       0.0775   0.8097   0.7119     H
C       0.0898   0.2919   0.4413     C
C       0.0898   0.7081   0.9413     C
H        0.099   0.4541   0.2675     H
H        0.099   0.5459   0.7675     H
C       0.1038   0.1818   0.4094     C
C       0.1038   0.8182   0.9094     C
H       0.1191   0.4889   0.1647     H
H       0.1191   0.5111   0.6647     H
H       0.1325   0.3191   0.4795     H
H       0.1325   0.6809   0.9795     H
C       0.1352   0.4001   0.1658     C
H       0.1352    0.415   0.8739     H
H       0.1352    0.585   0.3739     H
C       0.1352   0.5999   0.6658     C
C       0.1593   0.4246   0.2858     C
C       0.1593   0.5754   0.7858     C
H       0.1594   0.3597   0.3184     H
H       0.1594   0.6403   0.8184     H
H       0.1709   0.3886    0.136     H
H       0.1709   0.6114    0.636     H
C       0.1844   0.1072   0.4372     C
C       0.1844   0.8928   0.9372     C
N       0.1881   0.3681   0.2328     N
N       0.1881   0.6319   0.7328     N
C       0.1891   0.3956   0.8669     C
C       0.1891   0.6044   0.3669     C
O       0.1941   0.0113   0.4007     O
O       0.1941   0.9887   0.9007     O
C       0.2166   0.4646    0.821     C
C       0.2166   0.5354    0.321     C
H       0.2202   0.2542   0.9335     H
H       0.2202   0.7458   0.4335     H
H       0.2342   0.2161   0.1512     H
H       0.2342   0.7839   0.6512     H
O       0.2392   0.1358   0.4896     O
O       0.2392   0.8642   0.9896     O
C       0.2395   0.2991   0.9025     C
C       0.2395   0.7009   0.4025     C
C       0.2514   0.2729   0.2458     C
C       0.2514   0.7271   0.7458     C
C       0.2678   0.2017    0.195     C
C       0.2678   0.7983    0.695     C
H       0.2936   0.2956    0.344     H
C       0.2936   0.4322   0.8088     C
C       0.2936   0.5678   0.3088     C
H       0.2936   0.7044    0.844     H
C       0.3032   0.2489   0.3094     C
C       0.3032   0.7511   0.8094     C
O       0.3105   0.0709   0.0936     O
O       0.3105   0.9291   0.5936     O
H       0.3115   0.4756   0.7767     H
H       0.3115   0.5244   0.2767     H
C       0.3201   0.2685   0.8917     C
C       0.3201   0.7315   0.3917     C
C       0.3335   0.1096   0.2085     C
C       0.3335   0.8904   0.7085     C
C       0.3455   0.3341   0.8443     C
C       0.3455   0.6659   0.3443     C
O       0.3457   0.0873   0.9614     O
O       0.3457   0.9127   0.4614     O
C       0.3461   0.0343   0.1516     C
C       0.3461   0.9657   0.6516     C
C       0.3695   0.1572   0.3242     C
C       0.3695   0.8428   0.8242     C
C       0.3788   0.1684    0.932     C
C       0.3788   0.8316    0.432     C
C       0.3859   0.0873   0.2733     C
C       0.3859   0.9127   0.7733     C
O       0.3905   0.1721   0.4397     O
O       0.3905   0.8279   0.9397     O
O        0.393   0.0651   0.6631     O
O        0.393   0.9349   0.1631     O
H        0.398   0.3129   0.8357     H
H        0.398   0.6871   0.3357     H
Nd      0.3992  0.08038  0.54667    Nd
Nd      0.3992  0.91962  0.04667    Nd
C       0.4227   0.1339   0.3957     C
C       0.4227   0.8661   0.8957     C
H       0.4307    0.027   0.2823     H
H       0.4307    0.973   0.7823     H
O       0.4583   0.1717    0.935     O
O       0.4583   0.8283    0.435     O
O       0.4954    0.078    0.407     O
O       0.4954    0.922    0.907     O
O       0.5046    0.078    0.093     O
O       0.5046    0.922    0.593     O
O       0.5417   0.1717    0.565     O
O       0.5417   0.8283    0.065     O
H       0.5693    0.027   0.2177     H
H       0.5693    0.973   0.7177     H
C       0.5773   0.1339   0.1043     C
C       0.5773   0.8661   0.6043     C
Nd     0.60081  0.08038  0.95333    Nd
Nd     0.60081  0.91962  0.45333    Nd
H        0.602   0.3129   0.6643     H
H        0.602   0.6871   0.1643     H
O        0.607   0.0651   0.8369     O
O        0.607   0.9349   0.3369     O
O       0.6095   0.1721   0.0603     O
O       0.6095   0.8279   0.5603     O
C       0.6141   0.0873   0.2267     C
C       0.6141   0.9127   0.7267     C
C       0.6212   0.1684    0.568     C
C       0.6212   0.8316    0.068     C
C       0.6305   0.1572   0.1758     C
C       0.6305   0.8428   0.6758     C
C       0.6539   0.0343   0.3484     C
C       0.6539   0.9657   0.8484     C
O       0.6543   0.0873   0.5386     O
O       0.6543   0.9127   0.0386     O
C       0.6545   0.3341   0.6557     C
C       0.6545   0.6659   0.1557     C
C       0.6665   0.1096   0.2915     C
C       0.6665   0.8904   0.7915     C
C       0.6799   0.2685   0.6083     C
C       0.6799   0.7315   0.1083     C
H       0.6885   0.4756   0.7233     H
H       0.6885   0.5244   0.2233     H
O       0.6895   0.0709   0.4064     O
O       0.6895   0.9291   0.9064     O
C       0.6968   0.2489   0.1906     C
C       0.6968   0.7511   0.6906     C
H       0.7064   0.2956    0.156     H
C       0.7064   0.4322   0.6912     C
C       0.7064   0.5678   0.1912     C
H       0.7064   0.7044    0.656     H
C       0.7322   0.2017    0.305     C
C       0.7322   0.7983    0.805     C
C       0.7486   0.2729   0.2542     C
C       0.7486   0.7271   0.7542     C
C       0.7605   0.2991   0.5975     C
C       0.7605   0.7009   0.0975     C
O       0.7608   0.1358   0.0104     O
O       0.7608   0.8642   0.5104     O
H       0.7658   0.2161   0.3488     H
H       0.7658   0.7839   0.8488     H
H       0.7798   0.2542   0.5665     H
H       0.7798   0.7458   0.0665     H
C       0.7834   0.4646    0.679     C
C       0.7834   0.5354    0.179     C
O       0.8059   0.0113   0.0993     O
O       0.8059   0.9887   0.5993     O
C       0.8109   0.3956   0.6331     C
C       0.8109   0.6044   0.1331     C
N       0.8119   0.3681   0.2672     N
N       0.8119   0.6319   0.7672     N
C       0.8156   0.1072   0.0628     C
C       0.8156   0.8928   0.5628     C
H       0.8291   0.3886    0.364     H
H       0.8291   0.6114    0.864     H
H       0.8406   0.3597   0.1816     H
H       0.8406   0.6403   0.6816     H
C       0.8407   0.4246   0.2142     C
C       0.8407   0.5754   0.7142     C
C       0.8648   0.4001   0.3342     C
H       0.8648    0.415   0.6261     H
H       0.8648    0.585   0.1261     H
C       0.8648   0.5999   0.8342     C
H       0.8675   0.3191   0.0205     H
H       0.8675   0.6809   0.5205     H
H       0.8809   0.4889   0.3353     H
H       0.8809   0.5111   0.8353     H
C       0.8962   0.1818   0.0906     C
C       0.8962   0.8182   0.5906     C
H        0.901   0.4541   0.2325     H
H        0.901   0.5459   0.7325     H
C       0.9102   0.2919   0.0587     C
C       0.9102   0.7081   0.5587     C
H       0.9225   0.1903   0.2881     H
H       0.9225   0.8097   0.7881     H
C       0.9483    0.322   0.3594     C
C       0.9483    0.678   0.8594     C
H       0.9503   0.0731    0.171     H
H       0.9503   0.9269    0.671     H
C       0.9593   0.1452   0.1484     C
C       0.9593   0.8548   0.6484     C
C       0.9642   0.2157   0.3273     C
C       0.9642   0.7843   0.8273     C
C       0.9864   0.3604   0.0832     C
C       0.9864   0.6396   0.5832     C
H       0.9949   0.4337   0.0613     H
H       0.9949   0.5663   0.5613     H
