data_I
_chemical_name_common  '/home/zhangsd/repos/MofS-CGCNN/ML/data/SSD/clean_cifs/GASSUR_clean'
_cell_length_a 15.70100
_cell_length_b 14.96400
_cell_length_c 17.33900
_cell_angle_alpha 90.00000
_cell_angle_beta  115.09600
_cell_angle_gamma 90.00000
_space_group_name_H-M_alt      'P 1'


loop_
_space_group_symop_operation_xyz
  'x, y, z' 

loop_
_atom_site_label
_atom_site_fract_x
_atom_site_fract_y
_atom_site_fract_z
_atom_site_type_symbol
O       0.0433    0.058   0.1814     O
O       0.0433    0.942   0.6814     O
Zn      0.0444  0.05071  0.84516    Zn
Zn      0.0444  0.94929  0.34516    Zn
O       0.0703   0.1294   0.6858     O
O       0.0703   0.8706   0.1858     O
N       0.1008   0.0481    0.971     N
N       0.1008   0.9519    0.471     N
O       0.1107   0.1573   0.8229     O
O       0.1107   0.8427   0.3229     O
H       0.1149   0.1748   0.0064     H
H       0.1149   0.8252   0.5064     H
C       0.1154   0.1702   0.7542     C
C       0.1154   0.8298   0.2542     C
C       0.1164    0.067   0.2493     C
C       0.1164    0.933   0.7493     C
H       0.1238   0.0867   0.5015     H
H       0.1238   0.9133   0.0015     H
C       0.1254   0.1153    0.023     C
C       0.1254   0.8847    0.523     C
C       0.1301   0.0282   0.5213     C
C       0.1301   0.9718   0.0213     C
O       0.1345   0.0287   0.3174     O
O       0.1345   0.9713   0.8174     O
H       0.1663   0.2189   0.6325     H
H       0.1663   0.7811   0.1325     H
N       0.1679   0.0873   0.1039     N
N       0.1679   0.9127   0.6039     N
C       0.1686   0.0033   0.6021     C
C       0.1686   0.9967   0.1021     C
C        0.184   0.2411   0.7534     C
C        0.184   0.7589   0.2534     C
C       0.1888   0.1306   0.2468     C
C       0.1888   0.8694   0.7468     C
H        0.192    0.041   0.6492     H
H        0.192    0.959   0.1492     H
C       0.1981   0.2535   0.6809     C
C       0.1981   0.7465   0.1809     C
C       0.2085   0.1429   0.1765     C
C       0.2085   0.8571   0.6765     C
H       0.2176   0.2859   0.8718     H
H       0.2176   0.7141   0.3718     H
C       0.2292   0.2935   0.8239     C
C       0.2292   0.7065   0.3239     C
H       0.2302   0.1706   0.3669     H
H       0.2302   0.8294   0.8669     H
C       0.2388   0.1808   0.3178     C
C       0.2388   0.8192   0.8178     C
C       0.2612   0.3192   0.6822     C
C       0.2612   0.6808   0.1822     C
H       0.2698   0.3294   0.6331     H
H       0.2698   0.6706   0.1331     H
C       0.2708   0.2065   0.1761     C
C       0.2708   0.7935   0.6761     C
H       0.2824   0.2141   0.1282     H
H       0.2824   0.7859   0.6282     H
C       0.2915   0.3571   0.8235     C
C       0.2915   0.6429   0.3235     C
C       0.3019   0.2465   0.3191     C
C       0.3019   0.7535   0.8191     C
H        0.308    0.459   0.3508     H
H        0.308    0.541   0.8508     H
C       0.3112   0.3694   0.7532     C
C       0.3112   0.6306   0.2532     C
C        0.316   0.2589   0.2466     C
C        0.316   0.7411   0.7466     C
C       0.3314   0.4967   0.3979     C
C       0.3314   0.5033   0.8979     C
N       0.3321   0.4127   0.8961     N
N       0.3321   0.5873   0.3961     N
H       0.3337   0.2811   0.3675     H
H       0.3337   0.7189   0.8675     H
O       0.3655   0.4713   0.6826     O
O       0.3655   0.5287   0.1826     O
C       0.3699   0.4718   0.4787     C
C       0.3699   0.5282   0.9787     C
C       0.3746   0.3847    0.977     C
C       0.3746   0.6153    0.477     C
H       0.3762   0.4133   0.4985     H
H       0.3762   0.5867   0.9985     H
C       0.3836    0.433   0.7507     C
C       0.3836    0.567   0.2507     C
C       0.3846   0.3298   0.2458     C
C       0.3846   0.6702   0.7458     C
H       0.3851   0.3252   0.9936     H
H       0.3851   0.6748   0.4936     H
O       0.3893   0.3427   0.1771     O
O       0.3893   0.6573   0.6771     O
N       0.3992   0.4519    0.029     N
N       0.3992   0.5481    0.529     N
O       0.4297   0.3706   0.3142     O
O       0.4297   0.6294   0.8142     O
Zn      0.4556  0.44929  0.15484    Zn
Zn      0.4556  0.55071  0.65484    Zn
O       0.4567    0.442   0.8186     O
O       0.4567    0.558   0.3186     O
O       0.5433    0.442   0.6814     O
O       0.5433    0.558   0.1814     O
Zn      0.5444  0.44929  0.34516    Zn
Zn      0.5444  0.55071  0.84516    Zn
O       0.5703   0.3706   0.1858     O
O       0.5703   0.6294   0.6858     O
N       0.6008   0.4519    0.471     N
N       0.6008   0.5481    0.971     N
O       0.6107   0.3427   0.3229     O
O       0.6107   0.6573   0.8229     O
H       0.6149   0.3252   0.5064     H
H       0.6149   0.6748   0.0064     H
C       0.6154   0.3298   0.2542     C
C       0.6154   0.6702   0.7542     C
C       0.6164    0.433   0.7493     C
C       0.6164    0.567   0.2493     C
H       0.6238   0.4133   0.0015     H
H       0.6238   0.5867   0.5015     H
C       0.6254   0.3847    0.523     C
C       0.6254   0.6153    0.023     C
C       0.6301   0.4718   0.0213     C
C       0.6301   0.5282   0.5213     C
O       0.6345   0.4713   0.8174     O
O       0.6345   0.5287   0.3174     O
H       0.6663   0.2811   0.1325     H
H       0.6663   0.7189   0.6325     H
N       0.6679   0.4127   0.6039     N
N       0.6679   0.5873   0.1039     N
C       0.6686   0.4967   0.1021     C
C       0.6686   0.5033   0.6021     C
C        0.684   0.2589   0.2534     C
C        0.684   0.7411   0.7534     C
C       0.6888   0.3694   0.7468     C
C       0.6888   0.6306   0.2468     C
H        0.692    0.459   0.1492     H
H        0.692    0.541   0.6492     H
C       0.6981   0.2465   0.1809     C
C       0.6981   0.7535   0.6809     C
C       0.7085   0.3571   0.6765     C
C       0.7085   0.6429   0.1765     C
H       0.7176   0.2141   0.3718     H
H       0.7176   0.7859   0.8718     H
C       0.7292   0.2065   0.3239     C
C       0.7292   0.7935   0.8239     C
H       0.7302   0.3294   0.8669     H
H       0.7302   0.6706   0.3669     H
C       0.7388   0.3192   0.8178     C
C       0.7388   0.6808   0.3178     C
C       0.7612   0.1808   0.1822     C
C       0.7612   0.8192   0.6822     C
H       0.7698   0.1706   0.1331     H
H       0.7698   0.8294   0.6331     H
C       0.7708   0.2935   0.6761     C
C       0.7708   0.7065   0.1761     C
H       0.7824   0.2859   0.6282     H
H       0.7824   0.7141   0.1282     H
C       0.7915   0.1429   0.3235     C
C       0.7915   0.8571   0.8235     C
C       0.8019   0.2535   0.8191     C
C       0.8019   0.7465   0.3191     C
H        0.808    0.041   0.8508     H
H        0.808    0.959   0.3508     H
C       0.8112   0.1306   0.2532     C
C       0.8112   0.8694   0.7532     C
C        0.816   0.2411   0.7466     C
C        0.816   0.7589   0.2466     C
C       0.8314   0.0033   0.8979     C
C       0.8314   0.9967   0.3979     C
N       0.8321   0.0873   0.3961     N
N       0.8321   0.9127   0.8961     N
H       0.8337   0.2189   0.8675     H
H       0.8337   0.7811   0.3675     H
O       0.8655   0.0287   0.1826     O
O       0.8655   0.9713   0.6826     O
C       0.8699   0.0282   0.9787     C
C       0.8699   0.9718   0.4787     C
C       0.8746   0.1153    0.477     C
C       0.8746   0.8847    0.977     C
H       0.8762   0.0867   0.9985     H
H       0.8762   0.9133   0.4985     H
C       0.8836    0.067   0.2507     C
C       0.8836    0.933   0.7507     C
C       0.8846   0.1702   0.7458     C
C       0.8846   0.8298   0.2458     C
H       0.8851   0.1748   0.4936     H
H       0.8851   0.8252   0.9936     H
O       0.8893   0.1573   0.6771     O
O       0.8893   0.8427   0.1771     O
N       0.8992   0.0481    0.529     N
N       0.8992   0.9519    0.029     N
O       0.9297   0.1294   0.8142     O
O       0.9297   0.8706   0.3142     O
Zn      0.9556  0.05071  0.65484    Zn
Zn      0.9556  0.94929  0.15484    Zn
O       0.9567    0.058   0.3186     O
O       0.9567    0.942   0.8186     O
