data_I
_chemical_name_common  '/home/zhangsd/repos/MofS-CGCNN/ML/data/SSD/clean_cifs/GAVYAG_clean'
_cell_length_a 10.37000
_cell_length_b 10.02500
_cell_length_c 19.57500
_cell_angle_alpha 90.00000
_cell_angle_beta  92.13000
_cell_angle_gamma 90.00000
_space_group_name_H-M_alt      'P 1'


loop_
_space_group_symop_operation_xyz
  'x, y, z' 

loop_
_atom_site_label
_atom_site_fract_x
_atom_site_fract_y
_atom_site_fract_z
_atom_site_type_symbol
Zn     0.00867  0.24199  0.15896    Zn
Zn     0.00867  0.25801  0.65896    Zn
C       0.0275    0.514   0.7468     C
C       0.0275    0.986   0.2468     C
N       0.0397   0.5817   0.2827     N
N       0.0397   0.9183   0.7827     N
O       0.0469    0.563   0.9348     O
O       0.0469    0.937   0.4348     O
N       0.0484   0.1003   0.7217     N
N       0.0484   0.3997   0.2217     N
O        0.066   0.1358   0.0537     O
O        0.066   0.3642   0.5537     O
C        0.155   0.6114   0.9219     C
C        0.155   0.8886   0.4219     C
N       0.1587   0.5186   0.7484     N
N       0.1587   0.9814   0.2484     N
O       0.1649   0.7067   0.8791     O
O       0.1649   0.7933   0.3791     O
N       0.1682   0.5517   0.2712     N
N       0.1682   0.9483   0.7712     N
H      0.17034  0.51917  0.47064     H
H      0.17034  0.98083  0.97064     H
N        0.171   0.0549   0.7339     N
N        0.171   0.4451   0.2339     N
C        0.177   0.1337   0.0806     C
C        0.177   0.3663   0.5806     C
H      0.18082  0.03257  0.53538     H
H      0.18082  0.46743  0.03538     H
O       0.1966   0.1816   0.1398     O
O       0.1966   0.3184   0.6398     O
H      0.19853  0.58379  0.76849     H
H      0.19853  0.91621  0.26849     H
H      0.20176  0.04358  0.22941     H
H      0.20176  0.45642  0.72941     H
C       0.2558   0.5053    0.485     C
C       0.2558   0.9947    0.985     C
C       0.2625   0.0128   0.5202     C
C       0.2625   0.4872   0.0202     C
C       0.2748   0.5613   0.9595     C
C       0.2748   0.9387   0.4595     C
C       0.2856   0.0701   0.0437     C
C       0.2856   0.4299   0.5437     C
H      0.33741   0.6084  0.40936     H
H      0.33741   0.8916  0.90936     H
C       0.3557   0.5588   0.4487     C
C       0.3557   0.9412   0.9487     C
H      0.35874  0.09834  0.59823     H
H      0.35874  0.40166  0.09823     H
C       0.3684   0.0556   0.5566     C
C       0.3684   0.4444   0.0566     C
C       0.3926    0.584   0.9348     C
C       0.3926    0.916   0.4348     C
H      0.39932  0.63257  0.89459     H
H      0.39932  0.86743  0.39459     H
C       0.4118   0.0908   0.0671     C
C       0.4118   0.4092   0.5671     C
H      0.42896  0.13825  0.10727     H
H      0.42896  0.36175  0.60727     H
C       0.4844   0.5382   0.4711     C
C       0.4844   0.9618   0.9711     C
C       0.4942   0.0357   0.5316     C
C       0.4942   0.4643   0.0316     C
C       0.5058   0.5357   0.9684     C
C       0.5058   0.9643   0.4684     C
C       0.5156   0.0382   0.0289     C
C       0.5156   0.4618   0.5289     C
H      0.57104  0.63825  0.39273     H
H      0.57104  0.86175  0.89273     H
C       0.5882   0.5908   0.4329     C
C       0.5882   0.9092   0.9329     C
H      0.60068  0.13257  0.60541     H
H      0.60068  0.36743  0.10541     H
C       0.6074    0.084   0.5652     C
C       0.6074    0.416   0.0652     C
C       0.6316   0.5556   0.9434     C
C       0.6316   0.9444   0.4434     C
H      0.64126  0.59834  0.90177     H
H      0.64126  0.90166  0.40177     H
C       0.6443   0.0588   0.0513     C
C       0.6443   0.4412   0.5513     C
H      0.66259   0.1084  0.09064     H
H      0.66259   0.3916  0.59064     H
C       0.7144   0.5701   0.4563     C
C       0.7144   0.9299   0.9563     C
C       0.7252   0.0613   0.5405     C
C       0.7252   0.4387   0.0405     C
C       0.7375   0.5128   0.9798     C
C       0.7375   0.9872   0.4798     C
C       0.7442   0.0053    0.015     C
C       0.7442   0.4947    0.515     C
H      0.79824  0.54358  0.27059     H
H      0.79824  0.95642  0.77059     H
H      0.80147  0.08379  0.73151     H
H      0.80147  0.41621  0.23151     H
O       0.8034   0.6816   0.3602     O
O       0.8034   0.8184   0.8602     O
H      0.81918  0.53257  0.96462     H
H      0.81918  0.96743  0.46462     H
C        0.823   0.6337   0.4194     C
C        0.823   0.8663   0.9194     C
N        0.829   0.5549   0.7661     N
N        0.829   0.9451   0.2661     N
H      0.82966  0.01917  0.02936     H
H      0.82966  0.48083  0.52936     H
N       0.8318   0.0517   0.2288     N
N       0.8318   0.4483   0.7288     N
O       0.8351   0.2067   0.6209     O
O       0.8351   0.2933   0.1209     O
N       0.8413   0.0186   0.7516     N
N       0.8413   0.4814   0.2516     N
C        0.845   0.1114   0.5781     C
C        0.845   0.3886   0.0781     C
O        0.934   0.6358   0.4463     O
O        0.934   0.8642   0.9463     O
N       0.9516   0.6003   0.7783     N
N       0.9516   0.8997   0.2783     N
O       0.9531    0.063   0.5652     O
O       0.9531    0.437   0.0652     O
N       0.9603   0.0817   0.2173     N
N       0.9603   0.4183   0.7173     N
C       0.9725    0.014   0.7532     C
C       0.9725    0.486   0.2532     C
Zn     0.99133  0.74199  0.34104    Zn
Zn     0.99133  0.75801  0.84104    Zn
