data_I
_chemical_name_common  '/home/zhangsd/repos/MofS-CGCNN/ML/data/SSD/clean_cifs/GAXVUY_clean'
_cell_length_a 10.31100
_cell_length_b 14.36660
_cell_length_c 18.40140
_cell_angle_alpha 90.00000
_cell_angle_beta  90.00000
_cell_angle_gamma 99.82500
_space_group_name_H-M_alt      'P 1'


loop_
_space_group_symop_operation_xyz
  'x, y, z' 

loop_
_atom_site_label
_atom_site_fract_x
_atom_site_fract_y
_atom_site_fract_z
_atom_site_type_symbol
O       0.0064   0.3704  0.28667     O
O       0.0227   0.5115  0.33865     O
C       0.0418   0.9301   0.2079     C
C       0.0428   0.5629   0.6892     C
H       0.0549   0.8276   0.2804     H
H       0.0732   0.0316   0.1313     H
O       0.0819   0.7571   0.8507     O
H       0.0917   0.6012   0.9225     H
H       0.1033   0.5129    0.026     H
C       0.1037   0.8695   0.2481     C
C       0.1041    0.069   0.7834     C
C       0.1144   0.9917   0.1596     C
Ca     0.12367   0.3211  0.19185    Ca
C       0.1259   0.6307    0.965     C
O       0.1273   0.4772  0.15643     O
C       0.1307    0.578   0.0275     C
O       0.1538   0.0193  0.82868     O
O       0.1633   0.1148   0.7327     O
C       0.1677   0.7832   0.8968     C
C       0.1709    0.563   0.1598     C
C       0.1715   0.7266   0.9652     C
C       0.1756   0.6207    0.092     C
C       0.1889    0.567    0.694     C
H        0.203   0.4635   0.6218     H
Zn     0.20741  0.55302  0.31383    Zn
O       0.2098   0.6076  0.21702     O
C       0.2214   0.7164   0.0923     C
C       0.2216   0.7686   0.0291     C
H       0.2226   0.6716    0.768     H
C       0.2372   0.8703    0.241     C
O       0.2419   0.6457  0.39192     O
H       0.2441   0.6672   0.5297     H
H       0.2476   0.7538   0.6353     H
C       0.2482   0.9938   0.1535     C
C       0.2518   0.5062   0.6535     C
H       0.2524   0.7462   0.1353     H
H       0.2559   0.8328   0.0297     H
O       0.2581   0.8543  0.89192     O
C       0.2628   0.6297    0.741     C
H       0.2774   0.8284    0.268     H
C       0.2784   0.7314   0.5291     C
C       0.2786   0.7836   0.5923     C
O       0.2902   0.8924  0.71702     O
Zn     0.29259  0.94698  0.81383    Zn
H        0.297   0.0365   0.1218     H
C       0.3111    0.933    0.194     C
C       0.3244   0.8793    0.592     C
C       0.3285   0.7734   0.4652     C
C       0.3291    0.937   0.6598     C
C       0.3323   0.7168   0.3968     C
O       0.3367   0.3852   0.2327     O
O       0.3462   0.4807  0.32868     O
C       0.3693    0.922   0.5275     C
O       0.3727   0.0228  0.65643     O
C       0.3741   0.8693    0.465     C
Ca     0.37633   0.1789  0.69185    Ca
C       0.3856   0.5083   0.6596     C
C       0.3959    0.431   0.2834     C
C       0.3963   0.6305   0.7481     C
H       0.3967   0.9871    0.526     H
H       0.4083   0.8988   0.4225     H
O       0.4181   0.7429   0.3507     O
H       0.4268   0.4684   0.6313     H
H       0.4451   0.6724   0.7804     H
C       0.4572   0.9371   0.1892     C
C       0.4582   0.5699   0.7079     C
O       0.4773   0.9885  0.83865     O
O       0.4936   0.1296  0.78667     O
O       0.5064   0.8704  0.21333     O
O       0.5227   0.0115  0.16135     O
C       0.5418   0.4301   0.2921     C
C       0.5428   0.0629   0.8108     C
H       0.5549   0.3276   0.2196     H
H       0.5732   0.5316   0.3687     H
O       0.5819   0.2571   0.6493     O
H       0.5917   0.1012   0.5775     H
H       0.6033   0.0129    0.474     H
C       0.6037   0.3695   0.2519     C
C       0.6041    0.569   0.7166     C
C       0.6144   0.4917   0.3404     C
Ca     0.62367   0.8211  0.30815    Ca
C       0.6259   0.1307    0.535     C
O       0.6273   0.9772  0.34357     O
C       0.6307    0.078   0.4725     C
O       0.6538   0.5193  0.67132     O
O       0.6633   0.6148   0.7673     O
C       0.6677   0.2832   0.6032     C
C       0.6709    0.063   0.3402     C
C       0.6715   0.2266   0.5348     C
C       0.6756   0.1207    0.408     C
C       0.6889    0.067    0.806     C
H        0.703   0.9635   0.8782     H
Zn     0.70741  0.05302  0.18617    Zn
O       0.7098   0.1076  0.28298     O
C       0.7214   0.2164   0.4077     C
C       0.7216   0.2686   0.4709     C
H       0.7226   0.1716    0.732     H
C       0.7372   0.3703    0.259     C
O       0.7419   0.1457  0.10808     O
H       0.7441   0.1672   0.9703     H
H       0.7476   0.2538   0.8647     H
C       0.7482   0.4938   0.3465     C
C       0.7518   0.0062   0.8465     C
H       0.7524   0.2462   0.3647     H
H       0.7559   0.3328   0.4703     H
O       0.7581   0.3543  0.60808     O
C       0.7628   0.1297    0.759     C
H       0.7774   0.3284    0.232     H
C       0.7784   0.2314   0.9709     C
C       0.7786   0.2836   0.9077     C
O       0.7902   0.3924  0.78298     O
Zn     0.79259  0.44698  0.68617    Zn
H        0.797   0.5365   0.3782     H
C       0.8111    0.433    0.306     C
C       0.8244   0.3793    0.908     C
C       0.8285   0.2734   0.0348     C
C       0.8291    0.437   0.8402     C
C       0.8323   0.2168   0.1032     C
O       0.8367   0.8852   0.2673     O
O       0.8462   0.9807  0.17132     O
C       0.8693    0.422   0.9725     C
O       0.8727   0.5228  0.84357     O
C       0.8741   0.3693    0.035     C
Ca     0.87633   0.6789  0.80815    Ca
C       0.8856   0.0083   0.8404     C
C       0.8959    0.931   0.2166     C
C       0.8963   0.1305   0.7519     C
H       0.8967   0.4871    0.974     H
H       0.9083   0.3988   0.0775     H
O       0.9181   0.2429   0.1493     O
H       0.9268   0.9684   0.8687     H
H       0.9451   0.1724   0.7196     H
C       0.9572   0.4371   0.3108     C
C       0.9582   0.0699   0.7921     C
O       0.9773   0.4885  0.66135     O
O       0.9936   0.6296  0.71333     O
