data_I
_chemical_name_common  '/home/zhangsd/repos/MofS-CGCNN/ML/data/SSD/clean_cifs/GAXWEJ_clean'
_cell_length_a 12.17980
_cell_length_b 12.17980
_cell_length_c 12.66340
_cell_angle_alpha 103.93900
_cell_angle_beta  103.93900
_cell_angle_gamma 103.00300
_space_group_name_H-M_alt      'P 1'


loop_
_space_group_symop_operation_xyz
  'x, y, z' 

loop_
_atom_site_label
_atom_site_fract_x
_atom_site_fract_y
_atom_site_fract_z
_atom_site_type_symbol
C      0.00492  0.70068   0.9334     C
C       0.0069   0.4835    0.605     C
H       0.0119   0.4731   0.6762     H
O      0.01318  0.59596   0.8935     O
O      0.04333  0.33947   0.8132     O
H       0.0472   0.2048   0.6207     H
H       0.0613   0.1085   0.0163     H
O      0.07847  0.77573   0.0199     O
C       0.0961   0.5727   0.4846     C
C      0.09722  0.26898   0.1325     C
C       0.1028    0.555   0.5901     C
H       0.1085   0.0613   0.5163     H
C       0.1108   0.1582   0.0882     C
C       0.1217   0.1971   0.6505     C
H       0.1267   0.5203   0.1228     H
C      0.14962  0.36058   0.8261     C
C       0.1582   0.1108   0.5882     C
H       0.1686   0.4192   0.2673     H
H       0.1727   0.5917   0.6509     H
Zn     0.17318    0.586  0.96173    Zn
C      0.17509  0.34411   0.2377     C
O      0.17517  0.58077   0.1196     O
Ba     0.18028  0.81972     0.25    Ba
O      0.19403  0.65935   0.3703     O
C      0.19526  0.27254   0.7572     C
C       0.1971   0.1217   0.1505     C
C      0.19963  0.65277   0.4671     C
H       0.2048   0.0472   0.1207     H
O      0.22427  0.92153   0.4801     O
O      0.22759  0.45425   0.8947     O
H       0.2407   0.5861   0.1664     H
C       0.2626    0.307    0.299     C
C      0.26898  0.09722   0.6325     C
C      0.27254  0.19526   0.2572     C
O      0.28769  0.71145    0.557     O
O      0.28855  0.71231    0.943     O
C      0.29932  0.99508   0.5666     C
C        0.307   0.2626    0.799     C
H       0.3153   0.3581    0.369     H
O      0.33947  0.04333   0.3132     O
O      0.34065  0.80597   0.1297     O
C      0.34411  0.17509   0.7377     C
C      0.34723  0.80037   0.0329     C
H       0.3581   0.3153    0.869     H
C      0.36058  0.14962   0.3261     C
O      0.40404  0.98682   0.6065     O
H       0.4083   0.8273   0.8491     H
H       0.4139   0.7593   0.3336     H
Zn       0.414  0.82682  0.53827    Zn
H       0.4192   0.1686   0.7673     H
O      0.41923  0.82483   0.3804     O
C       0.4273   0.9039   0.0154     C
C        0.445   0.8972   0.9099     C
O      0.45425  0.22759   0.3947     O
H       0.4731   0.0119   0.1762     H
H       0.4797   0.8733   0.3772     H
C       0.4835   0.0069    0.105     C
C       0.5165   0.9931    0.895     C
H       0.5203   0.1267   0.6228     H
H       0.5269   0.9881   0.8238     H
O      0.54575  0.77241   0.6053     O
C        0.555   0.1028   0.0901     C
C       0.5727   0.0961   0.9846     C
O      0.58077  0.17517   0.6196     O
H       0.5808   0.8314   0.2327     H
Zn       0.586  0.17318  0.46173    Zn
H       0.5861   0.2407   0.6664     H
H       0.5917   0.1727   0.1509     H
O      0.59596  0.01318   0.3935     O
C      0.63942  0.85038   0.6739     C
H       0.6419   0.6847    0.131     H
C      0.65277  0.19963   0.9671     C
C      0.65589  0.82491   0.2623     C
O      0.65935  0.19403   0.8703     O
O      0.66053  0.95667   0.6868     O
H       0.6847   0.6419    0.631     H
C        0.693   0.7374    0.201     C
C      0.70068  0.00492   0.4334     C
O      0.71145  0.28769    0.057     O
O      0.71231  0.28855    0.443     O
C      0.72746  0.80474   0.7428     C
C      0.73102  0.90278   0.3675     C
C       0.7374    0.693    0.701     C
H       0.7593   0.4139   0.8336     H
O      0.77241  0.54575   0.1053     O
O      0.77573  0.07847   0.5199     O
H       0.7952   0.9528   0.8793     H
C      0.80037  0.34723   0.5329     C
C       0.8029   0.8783   0.8495     C
C      0.80474  0.72746   0.2428     C
O      0.80597  0.34065   0.6297     O
Ba     0.81972  0.18028     0.75    Ba
O      0.82483  0.41923   0.8804     O
C      0.82491  0.65589   0.7623     C
Zn     0.82682    0.414  0.03827    Zn
H       0.8273   0.4083   0.3491     H
H       0.8314   0.5808   0.7327     H
C       0.8418   0.8892   0.4118     C
C      0.85038  0.63942   0.1739     C
H       0.8733   0.4797   0.8772     H
C       0.8783   0.8029   0.3495     C
C       0.8892   0.8418   0.9118     C
H       0.8915   0.9387   0.4837     H
C       0.8972    0.445   0.4099     C
C      0.90278  0.73102   0.8675     C
C       0.9039   0.4273   0.5154     C
O      0.92153  0.22427   0.9801     O
H       0.9387   0.8915   0.9837     H
H       0.9528   0.7952   0.3793     H
O      0.95667  0.66053   0.1868     O
O      0.98682  0.40404   0.1065     O
H       0.9881   0.5269   0.3238     H
C       0.9931   0.5165    0.395     C
C      0.99508  0.29932   0.0666     C
