data_I
_chemical_name_common  '/home/zhangsd/repos/MofS-CGCNN/ML/data/SSD/clean_cifs/GELVID01_clean'
_cell_length_a  8.80790
_cell_length_b  8.80790
_cell_length_c 21.16630
_cell_angle_alpha 90.00000
_cell_angle_beta  90.00000
_cell_angle_gamma 120.00000
_space_group_name_H-M_alt      'P 1'


loop_
_space_group_symop_operation_xyz
  'x, y, z' 

loop_
_atom_site_label
_atom_site_fract_x
_atom_site_fract_y
_atom_site_fract_z
_atom_site_type_symbol
C          0.0    0.267  0.33333     C
C          0.0   0.4056  0.83333     C
C          0.0   0.7205  0.83333     C
C          0.0   0.7508  0.33333     C
O          0.0   0.8714  0.83333     O
O          0.0   0.9014  0.33333     O
Ni     0.01898  0.05371  0.08282    Ni
O       0.0255   0.2142  0.38598     O
Ni     0.03473  0.98102  0.74948    Ni
O       0.0393   0.1913  0.88476     O
C       0.0477   0.5071  0.77848     C
C       0.0504   0.6661  0.77902     C
Ni     0.05371  0.01898  0.25052    Ni
C        0.063   0.5447  0.28047     C
C       0.0647   0.7023  0.28153     C
H       0.0779   0.4679  0.74127     H
O       0.0986   0.0986  0.66667     O
O       0.1021   0.7829  0.72989     O
H       0.1038   0.5112  0.24453     H
H        0.116    0.746  0.69427     H
O       0.1286   0.1286  0.16667     O
O       0.1299   0.8264  0.23414     O
H         0.15    0.786  0.20023     H
O        0.152   0.9607  0.55143     O
O       0.1736   0.3035  0.56748     O
O       0.1887   0.9745  0.05265     O
O       0.1913   0.0393  0.44857     O
H        0.214    0.364  0.53357     H
O       0.2142   0.0255  0.94735     O
O       0.2171   0.3192  0.06322     O
C       0.2366     -0.0      0.5     C
C       0.2492   0.2492  0.66667     C
H        0.254     0.37   0.0276     H
C        0.267     -0.0      0.0     C
C       0.2795   0.2795  0.16667     C
C       0.2977   0.3624  0.61487     C
O       0.3035   0.1736  0.76586     O
O       0.3192   0.2171  0.27011     O
C       0.3339   0.3843  0.11235     C
C       0.3624   0.2977  0.71847     C
H        0.364    0.214  0.79977     H
H         0.37    0.254  0.30573     H
C       0.3843   0.3339  0.22098     C
H         0.39   0.9221  0.40793     H
C       0.4056     -0.0      0.5     C
H       0.4074   0.8962   0.9112     H
C       0.4354     -0.0      0.0     C
C       0.4553   0.5183  0.61381     C
C       0.4594   0.9523  0.44514     C
H       0.4679   0.0779  0.59207     H
C       0.4817    0.937  0.94714     C
H       0.4888   0.5926  0.57787     H
C       0.4929   0.5406  0.11181     C
C       0.5071   0.0477  0.55486     C
H       0.5112   0.1038   0.0888     H
C       0.5183   0.4553  0.71953     C
H       0.5321     0.61   0.0746     H
C       0.5406   0.4929  0.22152     C
C       0.5447    0.063  0.05286     C
C       0.5646   0.5646  0.66667     C
H       0.5926   0.4888  0.75547     H
C       0.5944   0.5944  0.16667     C
H         0.61   0.5321  0.25873     H
C       0.6157   0.9496  0.44568     C
H         0.63    0.884  0.36093     H
H        0.636     0.85   0.8669     H
C       0.6376   0.9353   0.9482     C
C       0.6661   0.0504  0.55432     C
O       0.6808   0.8979  0.39655     O
O       0.6965   0.8701  0.90081     O
C       0.7023   0.0647   0.0518     C
C       0.7205     -0.0      0.5     C
C        0.733    0.733  0.66667     C
H        0.746    0.116  0.63907     H
C       0.7508     -0.0      0.0     C
C       0.7634   0.7634  0.16667     C
O       0.7829   0.1021  0.60345     O
O       0.7858   0.8113  0.71932     O
H        0.786     0.15   0.1331     H
O       0.8087    0.848  0.21809     O
O       0.8113   0.7858  0.61402     O
O       0.8264   0.1299  0.09919     O
O        0.848   0.8087  0.11524     O
H         0.85    0.636  0.46643     H
O       0.8701   0.6965  0.43252     O
O       0.8714     -0.0      0.5     O
H        0.884     0.63   0.9724     H
H       0.8962   0.4074  0.42213     H
O       0.8979   0.6808  0.93678     O
O       0.9014     -0.0      0.0     O
H       0.9221     0.39   0.9254     H
C       0.9353   0.6376  0.38513     C
C        0.937   0.4817  0.38619     C
Ni     0.94629  0.96527  0.41615    Ni
C       0.9496   0.6157  0.88765     C
C       0.9523   0.4594  0.88819     C
O       0.9607    0.152  0.78191     O
Ni     0.96527  0.94629  0.91718    Ni
O       0.9745   0.1887  0.28068     O
Ni     0.98102  0.03473  0.58385    Ni
C          1.0   0.2366  0.83333     C
C          1.0   0.4354  0.33333     C
