data_I
_chemical_name_common  '/home/zhangsd/repos/MofS-CGCNN/ML/data/SSD/clean_cifs/GIQYUB_clean'
_cell_length_a  9.58990
_cell_length_b  9.58990
_cell_length_c 15.52400
_cell_angle_alpha 92.91920
_cell_angle_beta  92.91920
_cell_angle_gamma 98.98660
_space_group_name_H-M_alt      'P 1'


loop_
_space_group_symop_operation_xyz
  'x, y, z' 

loop_
_atom_site_label
_atom_site_fract_x
_atom_site_fract_y
_atom_site_fract_z
_atom_site_type_symbol
Tb     0.01103  0.98897     0.75    Tb
C       0.0148    0.506    0.217     C
P       0.0229  0.34864  0.84635     P
P      0.04476   0.3545   0.1454     P
O       0.0449   0.2269  0.78742     O
O       0.0749   0.2361   0.1982     O
O       0.0925   0.6891    0.914     O
O       0.0988   0.5482  0.73244     O
O       0.1055   0.6913   0.0989     O
Ru     0.12112  0.54526  0.00205    Ru
H       0.1305   0.6395   0.3126     H
C       0.1428    0.553   0.2795     C
H       0.1525   0.4783   0.3191     H
O       0.1559   0.4055   0.9067     O
O       0.1677   0.4087  0.08974     O
H       0.1692   0.5784   0.7673     H
O       0.2269   0.0449  0.28742     O
H       0.2282   0.5714    0.247     H
O       0.2361   0.0749   0.6982     O
O       0.3087   0.8945   0.4011     O
O       0.3109   0.9075    0.586     O
P      0.34864   0.0229  0.34635     P
P       0.3545  0.04476   0.6454     P
H       0.3605   0.8695   0.1874     H
O       0.4055   0.1559   0.4067     O
O       0.4087   0.1677  0.58974     O
H       0.4216   0.8308   0.7327     H
H       0.4286   0.7718    0.253     H
C        0.447   0.8572   0.2205     C
O       0.4518   0.9012  0.76756     O
Ru     0.45474  0.87888  0.49795    Ru
H       0.4783   0.1525   0.8191     H
C        0.494   0.9852    0.283     C
C        0.506   0.0148    0.717     C
H       0.5217   0.8475   0.1809     H
Ru     0.54526  0.12112  0.50205    Ru
O       0.5482   0.0988  0.23244     O
C        0.553   0.1428   0.7795     C
H       0.5714   0.2282    0.747     H
H       0.5784   0.1692   0.2673     H
O       0.5913   0.8323  0.41026     O
O       0.5945   0.8441   0.5933     O
H       0.6395   0.1305   0.8126     H
P       0.6455  0.95524   0.3546     P
P      0.65136   0.9771  0.65365     P
O       0.6891   0.0925    0.414     O
O       0.6913   0.1055   0.5989     O
O       0.7639   0.9251   0.3018     O
H       0.7718   0.4286    0.753     H
O       0.7731   0.9551  0.71258     O
H       0.8308   0.4216   0.2327     H
O       0.8323   0.5913  0.91026     O
O       0.8441   0.5945   0.0933     O
H       0.8475   0.5217   0.6809     H
C       0.8572    0.447   0.7205     C
H       0.8695   0.3605   0.6874     H
Ru     0.87888  0.45474  0.99795    Ru
O       0.8945   0.3087   0.9011     O
O       0.9012   0.4518  0.26756     O
O       0.9075   0.3109    0.086     O
O       0.9251   0.7639   0.8018     O
O       0.9551   0.7731  0.21258     O
P      0.95524   0.6455   0.8546     P
P       0.9771  0.65136  0.15365     P
C       0.9852    0.494    0.783     C
Tb     0.98897  0.01103     0.25    Tb
