data_I
_chemical_name_common  '/home/zhangsd/repos/MofS-CGCNN/ML/data/SSD/clean_cifs/GIQYIP_clean'
_cell_length_a  9.66020
_cell_length_b  9.66020
_cell_length_c 15.62500
_cell_angle_alpha 92.90530
_cell_angle_beta  92.90530
_cell_angle_gamma 99.10620
_space_group_name_H-M_alt      'P 1'


loop_
_space_group_symop_operation_xyz
  'x, y, z' 

loop_
_atom_site_label
_atom_site_fract_x
_atom_site_fract_y
_atom_site_fract_z
_atom_site_type_symbol
Nd     0.01135  0.98865     0.75    Nd
C       0.0154   0.5058   0.2162     C
P      0.02509  0.34995  0.84738     P
P      0.04489  0.35531  0.14424     P
O      0.04863  0.23117  0.78786     O
O       0.0776   0.2354  0.19856     O
O         0.09   0.6894  0.91438     O
O       0.1013   0.5499    0.734     O
O       0.1018   0.6908  0.09825     O
Ru     0.12039  0.54603  0.00221    Ru
H       0.1285   0.6377   0.3121     H
C       0.1426   0.5536    0.278     C
H       0.1546   0.4786   0.3163     H
O      0.15612  0.40748  0.90762     O
O       0.1685   0.4097  0.08889     O
H        0.175    0.581    0.768     H
H       0.2266   0.5754   0.2455     H
O      0.23117  0.04863  0.28786     O
O       0.2354   0.0776  0.69856     O
O       0.3092   0.8982  0.40175     O
O       0.3106     0.91  0.58562     O
P      0.34995  0.02509  0.34738     P
P      0.35531  0.04489  0.64424     P
H       0.3623   0.8715   0.1879     H
O      0.40748  0.15612  0.40762     O
O       0.4097   0.1685  0.58889     O
H        0.419    0.825    0.732     H
H       0.4246   0.7734   0.2545     H
C       0.4464   0.8574    0.222     C
O       0.4501   0.8987    0.766     O
Ru     0.45397  0.87961  0.49779    Ru
H       0.4786   0.1546   0.8163     H
C       0.4942   0.9846   0.2838     C
C       0.5058   0.0154   0.7162     C
H       0.5214   0.8454   0.1837     H
Ru     0.54603  0.12039  0.50221    Ru
O       0.5499   0.1013    0.234     O
C       0.5536   0.1426    0.778     C
H       0.5754   0.2266   0.7455     H
H        0.581    0.175    0.268     H
O       0.5903   0.8315  0.41111     O
O      0.59252  0.84388  0.59238     O
H       0.6377   0.1285   0.8121     H
P      0.64469  0.95511  0.35576     P
P      0.65005  0.97491  0.65262     P
O       0.6894     0.09  0.41438     O
O       0.6908   0.1018  0.59825     O
O       0.7646   0.9224  0.30144     O
O      0.76883  0.95137  0.71214     O
H       0.7734   0.4246   0.7545     H
H        0.825    0.419    0.232     H
O       0.8315   0.5903  0.91111     O
O      0.84388  0.59252  0.09238     O
H       0.8454   0.5214   0.6837     H
C       0.8574   0.4464    0.722     C
H       0.8715   0.3623   0.6879     H
Ru     0.87961  0.45397  0.99779    Ru
O       0.8982   0.3092  0.90175     O
O       0.8987   0.4501    0.266     O
O         0.91   0.3106  0.08562     O
O       0.9224   0.7646  0.80144     O
O      0.95137  0.76883  0.21214     O
P      0.95511  0.64469  0.85576     P
P      0.97491  0.65005  0.15262     P
C       0.9846   0.4942   0.7838     C
Nd     0.98865  0.01135     0.25    Nd
