data_I
_chemical_name_common  '/home/zhangsd/repos/MofS-CGCNN/ML/data/SSD/clean_cifs/GIQYAH_clean'
_cell_length_a  9.55150
_cell_length_b  9.55150
_cell_length_c 15.39000
_cell_angle_alpha 92.71050
_cell_angle_beta  92.71050
_cell_angle_gamma 98.29970
_space_group_name_H-M_alt      'P 1'


loop_
_space_group_symop_operation_xyz
  'x, y, z' 

loop_
_atom_site_label
_atom_site_fract_x
_atom_site_fract_y
_atom_site_fract_z
_atom_site_type_symbol
Ho     0.00995  0.99005     0.75    Ho
C       0.0207   0.5031   0.2163     C
P      0.02314  0.34712  0.84546     P
P      0.04408  0.35318  0.14512     P
O       0.0477   0.2285   0.7859     O
O       0.0715   0.2333   0.1979     O
O       0.0903   0.6919   0.9138     O
O       0.0984    0.545   0.7295     O
O       0.1055   0.6927   0.0981     O
Ru     0.12146   0.5453  0.00194    Ru
H       0.1257   0.6283   0.3181     H
C       0.1465   0.5509    0.279     C
O       0.1559   0.4045   0.9064     O
O       0.1648   0.4048   0.0868     O
H        0.166   0.4714   0.3134     H
H       0.1689   0.5753   0.7644     H
O       0.2285   0.0477   0.2859     O
H       0.2294   0.5838   0.2464     H
O       0.2333   0.0715   0.6979     O
O       0.3073   0.8945   0.4019     O
O       0.3081   0.9097   0.5862     O
P      0.34712  0.02314  0.34546     P
P      0.35318  0.04408  0.64512     P
H       0.3717   0.8743   0.1819     H
O       0.4045   0.1559   0.4064     O
O       0.4048   0.1648   0.5868     O
H       0.4162   0.7706   0.2536     H
H       0.4247   0.8311   0.7356     H
C       0.4491   0.8535    0.221     C
Ru      0.4547  0.87854  0.49806    Ru
O        0.455   0.9016   0.7705     O
H       0.4714    0.166   0.8134     H
C       0.4969   0.9793   0.2837     C
C       0.5031   0.0207   0.7163     C
H       0.5286    0.834   0.1866     H
O        0.545   0.0984   0.2295     O
Ru      0.5453  0.12146  0.50194    Ru
C       0.5509   0.1465    0.779     C
H       0.5753   0.1689   0.2644     H
H       0.5838   0.2294   0.7464     H
O       0.5952   0.8352   0.4132     O
O       0.5955   0.8441   0.5936     O
H       0.6283   0.1257   0.8181     H
P      0.64682  0.95592  0.35488     P
P      0.65288  0.97686  0.65454     P
O       0.6919   0.0903   0.4138     O
O       0.6927   0.1055   0.5981     O
O       0.7667   0.9285   0.3021     O
H       0.7706   0.4162   0.7536     H
O       0.7715   0.9523   0.7141     O
H       0.8311   0.4247   0.2356     H
H        0.834   0.5286   0.6866     H
O       0.8352   0.5952   0.9132     O
O       0.8441   0.5955   0.0936     O
C       0.8535   0.4491    0.721     C
H       0.8743   0.3717   0.6819     H
Ru     0.87854   0.4547  0.99806    Ru
O       0.8945   0.3073   0.9019     O
O       0.9016    0.455   0.2705     O
O       0.9097   0.3081   0.0862     O
O       0.9285   0.7667   0.8021     O
O       0.9523   0.7715   0.2141     O
P      0.95592  0.64682  0.85488     P
P      0.97686  0.65288  0.15454     P
C       0.9793   0.4969   0.7837     C
Ho     0.99005  0.00995     0.25    Ho
