data_I
_chemical_name_common  '/home/zhangsd/repos/MofS-CGCNN/ML/data/SSD/clean_cifs/GIRYEN_clean'
_cell_length_a 16.20500
_cell_length_b 24.83400
_cell_length_c 13.51400
_cell_angle_alpha 90.00000
_cell_angle_beta  124.24400
_cell_angle_gamma 90.00000
_space_group_name_H-M_alt      'P 1'


loop_
_space_group_symop_operation_xyz
  'x, y, z' 

loop_
_atom_site_label
_atom_site_fract_x
_atom_site_fract_y
_atom_site_fract_z
_atom_site_type_symbol
Zn         0.0      0.5      0.0    Zn
Zn         0.0      0.5      0.5    Zn
H       0.0025   0.4384   0.1552     H
H       0.0025   0.5616   0.6552     H
O        0.016  0.21801   0.4691     O
O        0.016  0.78199   0.9691     O
H       0.0178   0.3735   0.5138     H
H       0.0178   0.6265   0.0138     H
C      0.02028  0.37888  0.95517     C
C      0.02028  0.62112  0.45517     C
O         0.03  0.15628   0.9639     O
O         0.03  0.84372   0.4639     O
N       0.0327  0.17845   0.0451     N
N       0.0327  0.82155   0.5451     N
H       0.0378   0.2997   0.9372     H
H       0.0378   0.7003   0.4372     H
N      0.04016  0.42953  0.94068     N
N      0.04016  0.57047  0.44068     N
O      0.04119  0.46139  0.15488     O
O      0.04119  0.53861  0.65488     O
C      0.05374  0.33419   0.9261     C
C      0.05374  0.66581   0.4261     C
H       0.0768   0.2177   0.2483     H
H       0.0768   0.7823   0.7483     H
H       0.0941   0.2354   0.8733     H
H       0.0941   0.7646   0.3733     H
C      0.09547  0.43637   0.8962     C
C      0.09547  0.56363   0.3962     C
C      0.10041   0.1569   0.1672     C
C      0.10041   0.8431   0.6672     C
H       0.1097   0.4713   0.8854     H
H       0.1097   0.5287   0.3854     H
C       0.1115  0.18572   0.2613     C
C       0.1115  0.81428   0.7613     C
C      0.11179  0.34131     0.88     C
C      0.11179  0.65869     0.38     C
O      0.12419  0.37895  0.40758     O
O      0.12419  0.62105  0.90758     O
H       0.1254   0.1403   0.8643     H
H       0.1254   0.8597   0.3643     H
C      0.13216    0.394   0.8658     C
C      0.13216    0.606   0.3658     C
C      0.13552  0.24514   0.8491     C
C      0.13552  0.75486   0.3491     C
H       0.1416   0.0911    0.117     H
H       0.1416   0.9089    0.617     H
C      0.15114  0.10949   0.1826     C
C      0.15114  0.89051   0.6826     C
O      0.15123  0.47012  0.58091     O
O      0.15123  0.52988  0.08091     O
C      0.15151  0.29701   0.8461     C
C      0.15151  0.70299   0.3461     C
C       0.1636  0.14835   0.8346     C
C       0.1636  0.85165   0.3346     C
H       0.1706   0.4007   0.8357     H
H       0.1706   0.5993   0.3357     H
C       0.1759  0.16546   0.3756     C
C       0.1759  0.83454   0.8756     C
Zn     0.17749  0.44749   0.2716    Zn
Zn     0.17749  0.55251   0.7716    Zn
C       0.1781  0.20125   0.8171     C
C       0.1781  0.79875   0.3171     C
H       0.1843    0.184   0.4404     H
H       0.1843    0.816   0.9404     H
H       0.1862   0.3262   0.2826     H
H       0.1862   0.6738   0.7826     H
H       0.1918   0.3065   0.8201     H
H       0.1918   0.6935   0.3201     H
H       0.1946    0.072   0.8216     H
H       0.1946    0.928   0.3216     H
C      0.20465  0.40154  0.47597     C
C      0.20465  0.59846  0.97597     C
C       0.2054  0.10733   0.8085     C
C       0.2054  0.89267   0.3085     C
C       0.2167  0.08986  0.29814     C
C       0.2167  0.91014  0.79814     C
C      0.22341  0.46013  0.68355     C
C      0.22341  0.53987  0.18355     C
C        0.225  0.33299    0.253     C
C        0.225  0.66701    0.753     C
C      0.22875  0.11771  0.39552     C
C      0.22875  0.88229  0.89552     C
C       0.2349  0.21012   0.7702     C
C       0.2349  0.78988   0.2702     C
N      0.23892  0.38414    0.235     N
N      0.23892  0.61586    0.735     N
O      0.24207  0.43779  0.44579     O
O      0.24207  0.56221  0.94579     O
H       0.2456    0.245   0.7547     H
H       0.2456    0.755   0.2547     H
O      0.24803  0.01222  0.22329     O
O      0.24803  0.98778  0.72329     O
O      0.25197  0.48778  0.77671     O
O      0.25197  0.51222  0.27671     O
H       0.2544    0.255   0.2453     H
H       0.2544    0.745   0.7453     H
O      0.25793  0.06221  0.55421     O
O      0.25793  0.93779  0.05421     O
N      0.26108  0.11586    0.765     N
N      0.26108  0.88414    0.265     N
C       0.2651  0.28988   0.2298     C
C       0.2651  0.71012   0.7298     C
C      0.27125  0.38229  0.60448     C
C      0.27125  0.61771  0.10448     C
C        0.275  0.16701    0.747     C
C        0.275  0.83299    0.247     C
C      0.27659  0.03987  0.31645     C
C      0.27659  0.96013  0.81645     C
C       0.2833  0.41014  0.70186     C
C       0.2833  0.58986  0.20186     C
C       0.2946  0.39267   0.1915     C
C       0.2946  0.60733   0.6915     C
C      0.29535  0.09846  0.52403     C
C      0.29535  0.90154  0.02403     C
H       0.3054    0.428   0.1784     H
H       0.3054    0.572   0.6784     H
H       0.3082   0.1935   0.1799     H
H       0.3082   0.8065   0.6799     H
H       0.3138   0.1738   0.7174     H
H       0.3138   0.8262   0.2174     H
H       0.3157    0.316   0.5596     H
H       0.3157    0.684   0.0596     H
C       0.3219  0.29875   0.1829     C
C       0.3219  0.70125   0.6829     C
Zn     0.32251  0.05251   0.7284    Zn
Zn     0.32251  0.94749   0.2284    Zn
C       0.3241  0.33454   0.6244     C
C       0.3241  0.66546   0.1244     C
H       0.3294   0.0993   0.1643     H
H       0.3294   0.9007   0.6643     H
C       0.3364  0.35165   0.1654     C
C       0.3364  0.64835   0.6654     C
C      0.34849  0.20299   0.1539     C
C      0.34849  0.79701   0.6539     C
O      0.34877  0.02988  0.41909     O
O      0.34877  0.97012  0.91909     O
C      0.34886  0.39051   0.8174     C
C      0.34886  0.60949   0.3174     C
H       0.3584   0.4089    0.883     H
H       0.3584   0.5911    0.383     H
C      0.36448  0.25486   0.1509     C
C      0.36448  0.74514   0.6509     C
C      0.36784    0.106   0.1342     C
C      0.36784    0.894   0.6342     C
H       0.3746   0.3597   0.1357     H
H       0.3746   0.6403   0.6357     H
O      0.37581  0.12105  0.59242     O
O      0.37581  0.87895  0.09242     O
C      0.38821  0.15869     0.12     C
C      0.38821  0.84131     0.62     C
C       0.3885  0.31428   0.7387     C
C       0.3885  0.68572   0.2387     C
H       0.3903   0.0287   0.1146     H
H       0.3903   0.9713   0.6146     H
C      0.39959   0.3431   0.8328     C
C      0.39959   0.6569   0.3328     C
C      0.40453  0.06363   0.1038     C
C      0.40453  0.93637   0.6038     C
H       0.4059   0.2646   0.1267     H
H       0.4059   0.7354   0.6267     H
H       0.4232   0.2823   0.7517     H
H       0.4232   0.7177   0.2517     H
C      0.44626  0.16581   0.0739     C
C      0.44626  0.83419   0.5739     C
O      0.45881  0.03861  0.84512     O
O      0.45881  0.96139  0.34512     O
N      0.45984  0.07047  0.05932     N
N      0.45984  0.92953  0.55932     N
H       0.4622   0.2003   0.0628     H
H       0.4622   0.7997   0.5628     H
N       0.4673  0.32155   0.9549     N
N       0.4673  0.67845   0.4549     N
O         0.47  0.34372   0.0361     O
O         0.47  0.65628   0.5361     O
C      0.47972  0.12112  0.04483     C
C      0.47972  0.87888  0.54483     C
H       0.4822   0.1265   0.4862     H
H       0.4822   0.8735   0.9862     H
O        0.484  0.28199   0.5309     O
O        0.484  0.71801   0.0309     O
H       0.4975   0.0616   0.8448     H
H       0.4975   0.9384   0.3448     H
Zn         0.5      0.0      0.0    Zn
Zn         0.5      0.0      0.5    Zn
H       0.5025   0.0616   0.6552     H
H       0.5025   0.9384   0.1552     H
O        0.516  0.28199   0.9691     O
O        0.516  0.71801   0.4691     O
H       0.5178   0.1265   0.0138     H
H       0.5178   0.8735   0.5138     H
C      0.52028  0.12112  0.45517     C
C      0.52028  0.87888  0.95517     C
O         0.53  0.34372   0.4639     O
O         0.53  0.65628   0.9639     O
N       0.5327  0.32155   0.5451     N
N       0.5327  0.67845   0.0451     N
H       0.5378   0.2003   0.4372     H
H       0.5378   0.7997   0.9372     H
N      0.54016  0.07047  0.44068     N
N      0.54016  0.92953  0.94068     N
O      0.54119  0.03861  0.65488     O
O      0.54119  0.96139  0.15488     O
C      0.55374  0.16581   0.4261     C
C      0.55374  0.83419   0.9261     C
H       0.5768   0.2823   0.7483     H
H       0.5768   0.7177   0.2483     H
H       0.5941   0.2646   0.3733     H
H       0.5941   0.7354   0.8733     H
C      0.59547  0.06363   0.3962     C
C      0.59547  0.93637   0.8962     C
C      0.60041   0.3431   0.6672     C
C      0.60041   0.6569   0.1672     C
H       0.6097   0.0287   0.3854     H
H       0.6097   0.9713   0.8854     H
C       0.6115  0.31428   0.7613     C
C       0.6115  0.68572   0.2613     C
C      0.61179  0.15869     0.38     C
C      0.61179  0.84131     0.88     C
O      0.62419  0.12105  0.90758     O
O      0.62419  0.87895  0.40758     O
H       0.6254   0.3597   0.3643     H
H       0.6254   0.6403   0.8643     H
C      0.63216    0.106   0.3658     C
C      0.63216    0.894   0.8658     C
C      0.63552  0.25486   0.3491     C
C      0.63552  0.74514   0.8491     C
H       0.6416   0.4089    0.617     H
H       0.6416   0.5911    0.117     H
C      0.65114  0.39051   0.6826     C
C      0.65114  0.60949   0.1826     C
O      0.65123  0.02988  0.08091     O
O      0.65123  0.97012  0.58091     O
C      0.65151  0.20299   0.3461     C
C      0.65151  0.79701   0.8461     C
C       0.6636  0.35165   0.3346     C
C       0.6636  0.64835   0.8346     C
H       0.6706   0.0993   0.3357     H
H       0.6706   0.9007   0.8357     H
C       0.6759  0.33454   0.8756     C
C       0.6759  0.66546   0.3756     C
Zn     0.67749  0.05251   0.7716    Zn
Zn     0.67749  0.94749   0.2716    Zn
C       0.6781  0.29875   0.3171     C
C       0.6781  0.70125   0.8171     C
H       0.6843    0.316   0.9404     H
H       0.6843    0.684   0.4404     H
H       0.6862   0.1738   0.7826     H
H       0.6862   0.8262   0.2826     H
H       0.6918   0.1935   0.3201     H
H       0.6918   0.8065   0.8201     H
H       0.6946    0.428   0.3216     H
H       0.6946    0.572   0.8216     H
C      0.70465  0.09846  0.97597     C
C      0.70465  0.90154  0.47597     C
C       0.7054  0.39267   0.3085     C
C       0.7054  0.60733   0.8085     C
C       0.7167  0.41014  0.79814     C
C       0.7167  0.58986  0.29814     C
C      0.72341  0.03987  0.18355     C
C      0.72341  0.96013  0.68355     C
C        0.725  0.16701    0.753     C
C        0.725  0.83299    0.253     C
C      0.72875  0.38229  0.89552     C
C      0.72875  0.61771  0.39552     C
C       0.7349  0.28988   0.2702     C
C       0.7349  0.71012   0.7702     C
N      0.73892  0.11586    0.735     N
N      0.73892  0.88414    0.235     N
O      0.74207  0.06221  0.94579     O
O      0.74207  0.93779  0.44579     O
H       0.7456    0.255   0.2547     H
H       0.7456    0.745   0.7547     H
O      0.74803  0.48778  0.72329     O
O      0.74803  0.51222  0.22329     O
O      0.75197  0.01222  0.27671     O
O      0.75197  0.98778  0.77671     O
H       0.7544    0.245   0.7453     H
H       0.7544    0.755   0.2453     H
O      0.75793  0.43779  0.05421     O
O      0.75793  0.56221  0.55421     O
N      0.76108  0.38414    0.265     N
N      0.76108  0.61586    0.765     N
C       0.7651  0.21012   0.7298     C
C       0.7651  0.78988   0.2298     C
C      0.77125  0.11771  0.10448     C
C      0.77125  0.88229  0.60448     C
C        0.775  0.33299    0.247     C
C        0.775  0.66701    0.747     C
C      0.77659  0.46013  0.81645     C
C      0.77659  0.53987  0.31645     C
C       0.7833  0.08986  0.20186     C
C       0.7833  0.91014  0.70186     C
C       0.7946  0.10733   0.6915     C
C       0.7946  0.89267   0.1915     C
C      0.79535  0.40154  0.02403     C
C      0.79535  0.59846  0.52403     C
H       0.8054    0.072   0.6784     H
H       0.8054    0.928   0.1784     H
H       0.8082   0.3065   0.6799     H
H       0.8082   0.6935   0.1799     H
H       0.8138   0.3262   0.2174     H
H       0.8138   0.6738   0.7174     H
H       0.8157    0.184   0.0596     H
H       0.8157    0.816   0.5596     H
C       0.8219  0.20125   0.6829     C
C       0.8219  0.79875   0.1829     C
Zn     0.82251  0.44749   0.2284    Zn
Zn     0.82251  0.55251   0.7284    Zn
C       0.8241  0.16546   0.1244     C
C       0.8241  0.83454   0.6244     C
H       0.8294   0.4007   0.6643     H
H       0.8294   0.5993   0.1643     H
C       0.8364  0.14835   0.6654     C
C       0.8364  0.85165   0.1654     C
C      0.84849  0.29701   0.6539     C
C      0.84849  0.70299   0.1539     C
O      0.84877  0.47012  0.91909     O
O      0.84877  0.52988  0.41909     O
C      0.84886  0.10949   0.3174     C
C      0.84886  0.89051   0.8174     C
H       0.8584   0.0911    0.383     H
H       0.8584   0.9089    0.883     H
C      0.86448  0.24514   0.6509     C
C      0.86448  0.75486   0.1509     C
C      0.86784    0.394   0.6342     C
C      0.86784    0.606   0.1342     C
H       0.8746   0.1403   0.6357     H
H       0.8746   0.8597   0.1357     H
O      0.87581  0.37895  0.09242     O
O      0.87581  0.62105  0.59242     O
C      0.88821  0.34131     0.62     C
C      0.88821  0.65869     0.12     C
C       0.8885  0.18572   0.2387     C
C       0.8885  0.81428   0.7387     C
H       0.8903   0.4713   0.6146     H
H       0.8903   0.5287   0.1146     H
C      0.89959   0.1569   0.3328     C
C      0.89959   0.8431   0.8328     C
C      0.90453  0.43637   0.6038     C
C      0.90453  0.56363   0.1038     C
H       0.9059   0.2354   0.6267     H
H       0.9059   0.7646   0.1267     H
H       0.9232   0.2177   0.2517     H
H       0.9232   0.7823   0.7517     H
C      0.94626  0.33419   0.5739     C
C      0.94626  0.66581   0.0739     C
O      0.95881  0.46139  0.34512     O
O      0.95881  0.53861  0.84512     O
N      0.95984  0.42953  0.55932     N
N      0.95984  0.57047  0.05932     N
H       0.9622   0.2997   0.5628     H
H       0.9622   0.7003   0.0628     H
N       0.9673  0.17845   0.4549     N
N       0.9673  0.82155   0.9549     N
O         0.97  0.15628   0.5361     O
O         0.97  0.84372   0.0361     O
C      0.97972  0.37888  0.54483     C
C      0.97972  0.62112  0.04483     C
H       0.9822   0.3735   0.9862     H
H       0.9822   0.6265   0.4862     H
O        0.984  0.21801   0.0309     O
O        0.984  0.78199   0.5309     O
H       0.9975   0.4384   0.3448     H
H       0.9975   0.5616   0.8448     H
