data_I
_chemical_name_common  '/home/zhangsd/repos/MofS-CGCNN/ML/data/SSD/clean_cifs/GIRYOX_clean'
_cell_length_a 13.44200
_cell_length_b 13.59060
_cell_length_c 14.81290
_cell_angle_alpha 107.21500
_cell_angle_beta  106.80600
_cell_angle_gamma 111.02500
_space_group_name_H-M_alt      'P 1'


loop_
_space_group_symop_operation_xyz
  'x, y, z' 

loop_
_atom_site_label
_atom_site_fract_x
_atom_site_fract_y
_atom_site_fract_z
_atom_site_type_symbol
Zn         0.0      0.5      0.0    Zn
C      0.00682   0.7065  0.82316     C
C      0.01647  0.69917   0.9245     C
O       0.0173  0.24089   0.0211     O
Zn     0.03268  0.25972  0.89756    Zn
C      0.03518  0.30228   0.3762     C
C        0.036   0.6547  0.66594     C
H        0.051   0.3063    0.443     H
O      0.05328  0.63352  0.94546     O
H        0.058   0.0051    0.627     H
C      0.05891  0.65968  0.76576     C
C      0.06177  0.24711  0.21766     C
H        0.069   0.6219    0.627     H
O      0.07479  0.41783   0.9267     O
H       0.0774   0.8564   0.3382     H
C      0.08196  0.25346  0.31642     C
H       0.0908   0.4335   0.8806     H
H       0.0935   0.2122   0.1788     H
O      0.10629  0.50759  0.76532     O
H        0.108   0.8633    0.557     H
H       0.1125   0.5999   0.2458     H
O      0.12911   0.1822  0.87514     O
C      0.12994  0.01124  0.66594     C
N      0.13017  0.86394  0.22884     N
C      0.14137  0.61409  0.80616     C
C      0.14354  0.89314  0.32808     C
N      0.15746  0.20686  0.36012     N
C      0.15898  0.92608   0.6238     C
O      0.15903  0.25773  0.76532     O
C      0.16479  0.19207  0.80616     C
N      0.16933  0.60968  0.13954     N
O      0.17636  0.21416  0.44712     O
C      0.18011  0.63594  0.23738     C
O      0.19713  0.16296  0.30652     O
C      0.20685  0.10608  0.76576     C
H       0.2192   0.9008   0.1492     H
C      0.22645  0.91845  0.21724     C
O      0.22924  0.76704  0.55288     O
H       0.2392   0.5182   0.6618     H
O      0.24603  0.69294  0.87514     O
C      0.24937  0.97397  0.41494     C
H       0.2535   0.9919    0.482     H
H       0.2608   0.4248   0.2034     H
H       0.2619   0.6462   0.0618     H
C      0.26554  0.93704  0.68358     C
C       0.2676   0.6634  0.12932     C
H       0.2715   0.5099    0.518     H
C      0.28619  0.71366  0.32664     C
H       0.2892   0.7282    0.393     H
H       0.2898   0.4471   0.8806     H
N      0.29734  0.84674  0.63988     N
H       0.2999   0.4156   0.0618     H
C      0.31546  0.56506  0.67192     C
C      0.31634  0.11666  0.82316     C
H       0.3225   0.5018    0.391     H
C      0.33443  0.55903  0.58506     C
C      0.33642  0.99982  0.30094     C
C      0.33747  0.47127  0.21428     C
C      0.34411  0.02945  0.78234     C
C      0.35068   0.0294  0.40328     C
O      0.35191  0.50887   0.9267     O
C      0.36172  0.46592  0.12932     C
Zn     0.36488  0.63784  0.89756    Zn
H       0.3667   0.3541   0.7542     H
C      0.37681  0.74301  0.21428     C
H       0.3875   0.2537   0.2886     H
C        0.389   0.7703  0.31642     C
O      0.39061  0.85644  0.69348     O
O      0.39218  0.31194  0.94546     O
H       0.3962   0.3352    0.607     H
C      0.40009  0.55189  0.40638     C
H       0.4011   0.0349   0.2886     H
N      0.40133   0.6351  0.77116     N
C      0.40803  0.22533   0.9245     C
H       0.4147   0.0334   0.8212     H
C      0.42742  0.54612  0.31642     C
H         0.43   0.2484   0.1492     H
H       0.4315   0.1108    0.609     H
H       0.4426   0.7786   0.2034     H
C      0.44273  0.39856  0.76262     C
H       0.4468   0.3278    0.477     H
C       0.4474  0.62612  0.59672     C
C      0.45955  0.38702  0.67336     C
C      0.46452  0.30112  0.30094     C
C      0.46818  0.11426   0.4926     C
H       0.4698   0.8508    0.523     H
N      0.47021  0.52986  0.13954     N
C      0.47558  0.62166   0.5074     C
C      0.49079  0.29879  0.21724     C
C      0.49371  0.14551  0.59362     C
O       0.4962  0.21979   0.9789     O
Zn         0.5      0.5      0.0    Zn
O       0.5038  0.78021   0.0211     O
C      0.50629  0.85449  0.40638     C
C      0.50921  0.70121  0.78276     C
C      0.52442  0.37834   0.4926     C
N      0.52979  0.47014  0.86046     N
H       0.5302   0.1492    0.477     H
C      0.53182  0.88574   0.5074     C
C      0.53548  0.69888  0.69906     C
C      0.54045  0.61298  0.32664     C
C       0.5526  0.37388  0.40328     C
H       0.5532   0.6722    0.523     H
C      0.55727  0.60144  0.23738     C
H       0.5574   0.2214   0.7966     H
H       0.5685   0.8892    0.391     H
H         0.57   0.7516   0.8508     H
C      0.57258  0.45388  0.68358     C
H       0.5853   0.9666   0.1788     H
C      0.59197  0.77467   0.0755     C
N      0.59867   0.3649  0.22884     N
H       0.5989   0.9651   0.7114     H
C      0.59991  0.44811  0.59362     C
H       0.6038   0.6648    0.393     H
O      0.60782  0.68806  0.05454     O
O      0.60939  0.14356  0.30652     O
C        0.611   0.2297  0.68358     C
H       0.6125   0.7463   0.7114     H
C      0.62319  0.25699  0.78572     C
H       0.6333   0.6459   0.2458     H
Zn     0.63512  0.36216  0.10244    Zn
C      0.63828  0.53408  0.87068     C
O      0.64809  0.49113   0.0733     O
C      0.64932   0.9706  0.59672     C
C      0.65589  0.97055  0.21766     C
C      0.66253  0.52873  0.78572     C
C      0.66358  0.00018  0.69906     C
C      0.66557  0.44097  0.41494     C
H       0.6775   0.4982    0.609     H
C      0.68366  0.88334  0.17684     C
C      0.68454  0.43494  0.32808     C
H       0.7001   0.5844   0.9382     H
N      0.70266  0.15326  0.36012     N
H       0.7102   0.5529   0.1194     H
H       0.7108   0.2718    0.607     H
C      0.71381  0.28634  0.67336     C
H       0.7285   0.4901    0.482     H
C       0.7324   0.3366  0.87068     C
C      0.73446  0.06296  0.31642     C
H       0.7381   0.3538   0.9382     H
H       0.7392   0.5752   0.7966     H
H       0.7465   0.0081    0.518     H
C      0.75063  0.02603  0.58506     C
O      0.75397  0.30706  0.12486     O
H       0.7608   0.4818   0.3382     H
O      0.77076  0.23296  0.44712     O
C      0.77355  0.08155  0.78276     C
H       0.7808   0.0992   0.8508     H
C      0.79315  0.89392  0.23424     C
O      0.80287  0.83704  0.69348     O
C      0.81989  0.36406  0.76262     C
O      0.82364  0.78584  0.55288     O
N      0.83067  0.39032  0.86046     N
C      0.83521  0.80793  0.19384     C
O      0.84097  0.74227  0.23468     O
C      0.84102  0.07392   0.3762     C
N      0.84254  0.79314  0.63988     N
C      0.85646  0.10686  0.67192     C
C      0.85863  0.38591  0.19384     C
N      0.86983  0.13606  0.77116     N
C      0.87006  0.98876  0.33406     C
O      0.87089   0.8178  0.12486     O
H       0.8875   0.4001   0.7542     H
H        0.892   0.1367    0.443     H
O      0.89371  0.49241  0.23468     O
H       0.9065   0.7878   0.8212     H
H       0.9092   0.5665   0.1194     H
C      0.91804  0.74654  0.68358     C
H       0.9226   0.1436   0.6618     H
O      0.92521  0.58217   0.0733     O
H        0.931   0.3781    0.373     H
C      0.93823  0.75289  0.78234     C
C      0.94109  0.34032  0.23424     C
H        0.942   0.9949    0.373     H
O      0.94672  0.36648  0.05454     O
H        0.949   0.6937    0.557     H
C        0.964   0.3453  0.33406     C
C      0.96482  0.69772   0.6238     C
Zn     0.96732  0.74028  0.10244    Zn
O       0.9827  0.75911   0.9789     O
C      0.98353  0.30083   0.0755     C
C      0.99318   0.2935  0.17684     C
