data_I
_chemical_name_common  '/home/zhangsd/repos/MofS-CGCNN/ML/data/SSD/clean_cifs/GIRZAK_clean'
_cell_length_a 13.83800
_cell_length_b 13.84400
_cell_length_c 14.42000
_cell_angle_alpha 108.31000
_cell_angle_beta  110.43000
_cell_angle_gamma 107.04600
_space_group_name_H-M_alt      'P 1'


loop_
_space_group_symop_operation_xyz
  'x, y, z' 

loop_
_atom_site_label
_atom_site_fract_x
_atom_site_fract_y
_atom_site_fract_z
_atom_site_type_symbol
Zn         0.0      0.5      0.5    Zn
C       0.0058    0.585   0.0475     C
C        0.006    0.084    0.079     C
C        0.014    0.285    0.703     C
C        0.021    0.698    0.217     C
O       0.0221   0.2377    0.463     O
N       0.0254   0.4615    0.351     N
H       0.0371   0.7749   0.3687     H
C        0.039    0.932    0.039     C
C       0.0414    0.597   0.8455     C
C        0.052    0.387   0.8866     C
C       0.0545     0.48   0.1631     C
C       0.0552    0.603   0.7521     C
H       0.0625   0.6543   0.0569     H
C       0.0644    0.507   0.0759     C
H       0.0691   0.9562   0.6946     H
H       0.0755    0.223   0.2955     H
C        0.076    0.759   0.5834     C
O        0.094   0.6752    0.556     O
H       0.0954    0.745   0.2356     H
O        0.101     0.13    0.831     O
H       0.1022     0.65    0.917     H
C        0.106    0.202    0.166     C
C        0.125    0.533   0.3651     C
H       0.1254   0.6563   0.7668     H
N       0.1258   0.3558    0.729     N
C        0.132    0.251    0.277     C
H       0.1417   0.9956   0.2403     H
C        0.143    0.962    0.728     C
C       0.1459    0.544    0.278     C
H       0.1462   0.5436   0.0965     H
O       0.1499   0.4962   0.5828     O
Zn      0.1559   0.3693   0.6002    Zn
C        0.167    0.992    0.114     C
C        0.168    0.445    0.916     C
C       0.1693    0.868   0.6822     C
H       0.1854   0.2453   0.0829     H
H       0.1857   0.5786    0.438     H
C        0.195    0.265    0.155     C
C        0.197    0.023     0.22     C
C        0.201    0.432   0.8385     C
H       0.2018   0.5647   0.6268     H
N        0.202    0.153    0.866     N
H       0.2194   0.5923   0.2956     H
H       0.2225   0.4933   0.9909     H
H        0.228   0.9966   0.0087     H
C         0.23    0.058    0.822     C
C         0.24    0.341    0.363     C
C        0.249    0.027    0.084     C
H       0.2518   0.3639   0.4353     H
O       0.2639     0.81    0.162     O
O       0.2717   0.3151   0.6137     O
H       0.2773   0.4754   0.8599     H
C        0.285    0.886    0.738     C
O        0.286    0.244    0.943     O
C       0.3018    0.358    0.246     C
C         0.31    0.094    0.302     C
N        0.326    0.791    0.123     N
C        0.327    0.803    0.692     C
N       0.3275    0.398   0.3501     N
H        0.331   0.1115   0.3757     H
O       0.3353   0.7427   0.7417     O
O        0.337    0.814   0.0501     O
C        0.345    0.075   0.8787     C
O       0.3463   0.7979    0.613     O
H       0.3574    0.393   0.2297     H
C        0.364    0.106    0.164     C
C        0.371    0.389    0.693     C
C        0.371    0.985    0.836     C
H       0.3763   0.7716   0.3022     H
N       0.3964    0.142    0.276     N
H       0.4012    0.143   0.9424     H
C       0.4025    0.744    0.171     C
O       0.4048    0.492   0.7431     O
C       0.4124    0.741    0.266     C
H       0.4178   0.1338   0.1427     H
H       0.4232   0.5557    0.625     H
O       0.4308   0.5796   0.5793     O
H       0.4424   0.7057   0.0464     H
O        0.445   0.7281   0.4626     O
H       0.4452   0.9925   0.8721     H
H       0.4454   0.3838    0.883     H
Zn       0.447    0.726   0.5998    Zn
C        0.453    0.702   0.1122     C
C       0.4587    0.342   0.7439     C
O       0.4677   0.3829   0.5618     O
C       0.4768    0.349    0.844     C
C       0.4797    0.691   0.3089     C
C       0.4889    0.677   0.4114     C
Zn         0.5      0.5      0.5    Zn
C       0.5111    0.323   0.5886     C
C       0.5203    0.309   0.6911     C
C       0.5232    0.651    0.156     C
O       0.5323   0.6171   0.4382     O
C       0.5413    0.658   0.2561     C
C        0.547    0.298   0.8878     C
Zn       0.553    0.274   0.4002    Zn
H       0.5546   0.6162    0.117     H
H       0.5548   0.0075   0.1279     H
O        0.555   0.2719   0.5374     O
H       0.5576   0.2943   0.9536     H
O       0.5692   0.4204   0.4207     O
H       0.5768   0.4443    0.375     H
H       0.5822   0.8662   0.8573     H
C       0.5876    0.259    0.734     C
O       0.5952    0.508   0.2569     O
C       0.5975    0.256    0.829     C
H       0.5988    0.857   0.0576     H
N       0.6036    0.858    0.724     N
H       0.6237   0.2284   0.6978     H
C        0.629    0.015    0.164     C
C        0.629    0.611    0.307     C
C        0.636    0.894    0.836     C
H       0.6426    0.607   0.7703     H
O       0.6537   0.2021    0.387     O
C        0.655    0.925   0.1213     C
O        0.663    0.186   0.9499     O
O       0.6647   0.2573   0.2583     O
H        0.669   0.8885   0.6243     H
N       0.6725    0.602   0.6499     N
C        0.673    0.197    0.308     C
N        0.674    0.209    0.877     N
C         0.69    0.906    0.698     C
C       0.6982    0.642    0.754     C
O        0.714    0.756    0.057     O
C        0.715    0.114    0.262     C
H       0.7227   0.5246   0.1401     H
O       0.7283   0.6849   0.3863     O
O       0.7361     0.19    0.838     O
H       0.7482   0.6361   0.5647     H
C        0.751    0.973    0.916     C
C         0.76    0.659    0.637     C
C         0.77    0.942    0.178     C
H        0.772   0.0034   0.9913     H
H       0.7775   0.5067   0.0091     H
H       0.7806   0.4077   0.7044     H
N        0.798    0.847    0.134     N
H       0.7982   0.4353   0.3732     H
C        0.799    0.568   0.1615     C
C        0.803    0.977     0.78     C
C        0.805    0.735    0.845     C
H       0.8143   0.4214    0.562     H
H       0.8146   0.7547   0.9171     H
C       0.8307    0.132   0.3178     C
C        0.832    0.555    0.084     C
C        0.833    0.008    0.886     C
Zn      0.8441   0.6307   0.3998    Zn
O       0.8501   0.5038   0.4172     O
H       0.8538   0.4564   0.9035     H
C       0.8541    0.456    0.722     C
C        0.857    0.038    0.272     C
H       0.8583   0.0044   0.7597     H
C        0.868    0.749    0.723     C
N       0.8742   0.6442    0.271     N
H       0.8746   0.3437   0.2332     H
C        0.875    0.467   0.6349     C
C        0.894    0.798    0.834     C
H       0.8978     0.35    0.083     H
O        0.899     0.87    0.169     O
H       0.9046    0.255   0.7644     H
O        0.906   0.3248    0.444     O
C        0.924    0.241   0.4166     C
H       0.9245    0.777   0.7045     H
H       0.9309   0.0438   0.3054     H
C       0.9356    0.493   0.9241     C
H       0.9375   0.3457   0.9431     H
C       0.9448    0.397   0.2479     C
C       0.9455     0.52   0.8369     C
C        0.948    0.613   0.1134     C
C       0.9586    0.403   0.1545     C
C        0.961    0.068    0.961     C
H       0.9629   0.2251   0.6313     H
N       0.9746   0.5385    0.649     N
O       0.9779   0.7623    0.537     O
C        0.979    0.302    0.783     C
C        0.986    0.715    0.297     C
C        0.994    0.916    0.921     C
C       0.9942    0.415   0.9525     C
