data_I
_chemical_name_common  '/home/zhangsd/repos/MofS-CGCNN/ML/data/SSD/clean_cifs/GITTOT_manual'
_cell_length_a 14.68680
_cell_length_b 14.68680
_cell_length_c 14.68680
_cell_angle_alpha 109.47100
_cell_angle_beta  109.47100
_cell_angle_gamma 109.47100
_space_group_name_H-M_alt      'P 1'


loop_
_space_group_symop_operation_xyz
  'x, y, z' 

loop_
_atom_site_label
_atom_site_fract_x
_atom_site_fract_y
_atom_site_fract_z
_atom_site_type_symbol
C          0.0   0.3214     0.51     C
C          0.0     0.37   0.6168     C
C          0.0     0.51   0.3214     C
C          0.0   0.6168     0.37     C
H      0.02356  0.50415  0.25396     H
H      0.03687  0.26431  0.51028     H
H      0.05231  0.39141  0.50087     H
C       0.0548   0.4693   0.7895     C
C       0.0548   0.7895   0.4693     C
H      0.06311  0.50728  0.38975     H
N       0.0931   0.4412   0.7147     N
N       0.0931   0.7147   0.4412     N
H      0.10233  0.52836  0.88344     H
H      0.10233  0.88344  0.52836     H
H      0.11656  0.21889  0.64492     H
H      0.11656  0.64492  0.21889     H
H       0.1288  0.61477  0.68855     H
H      0.13978  0.70174  0.62079     H
C       0.1886   0.6786   0.6786     C
C       0.2105   0.2653   0.6798     C
C       0.2105   0.6798   0.2653     C
H      0.21889  0.11656  0.64492     H
H      0.21889  0.64492  0.11656     H
H      0.24002  0.00053  0.49299     H
C       0.2468     0.63     0.63     C
Co        0.25      0.5     0.75    Co
Co        0.25     0.75      0.5    Co
H      0.25272  0.75644  0.76362     H
H      0.26427  0.43796  0.91037     H
C       0.2653   0.2105   0.6798     C
C       0.2653   0.6798   0.2105     C
H      0.27136  0.51376  0.04473     H
N       0.2735   0.5588   0.6519     N
N       0.2735   0.6519   0.5588     N
N       0.2853   0.3784   0.7265     N
N       0.2853   0.7265   0.3784     N
H      0.30435  0.92212  0.43892     H
C       0.3202   0.5307   0.5855     C
C       0.3202   0.5855   0.5307     C
C       0.3214      0.0     0.51     C
C       0.3214     0.51     -0.0     C
N       0.3481   0.6216   0.9069     N
N       0.3481   0.9069   0.6216     N
H      0.35508  0.47164  0.57397     H
H      0.35508  0.57397  0.47164     H
C         0.37     -0.0   0.6168     C
C         0.37   0.6168      0.0     C
N       0.3784   0.2853   0.7265     N
N       0.3784   0.7265   0.2853     N
H      0.38268  0.07735  0.51644     H
C       0.3832   0.3832   0.7532     C
C       0.3832   0.7532   0.3832     C
H      0.39141  0.49663   0.0449     H
C       0.4145   0.7347   0.9452     C
C       0.4145   0.9452   0.7347     C
H      0.42603  0.78111  0.89767     H
H      0.42603  0.89767  0.78111     H
H      0.43702  0.91427  0.28637     H
H      0.44092   0.3145  0.92815     H
N       0.4412   0.0931   0.7147     N
N       0.4412   0.7147   0.0931     N
C       0.4693   0.0548   0.7895     C
C       0.4693   0.7895   0.0548     C
H      0.47164  0.35508  0.57397     H
H      0.47164  0.57397  0.35508     H
H      0.47998  0.85754  0.56231     H
H      0.48741  0.23498  0.98952     H
C         0.49     0.49   0.8114     C
C         0.49   0.8114     0.49     C
H      0.49124  0.55676  0.88028     H
H      0.49743  0.51764  0.74907     H
Co         0.5     0.25     0.75    Co
Co         0.5     0.75     0.25    Co
H      0.50257  0.02021  0.25164     H
H      0.50876  0.06552  0.38904     H
C         0.51     -0.0   0.3214     C
C         0.51   0.3214     -0.0     C
H      0.51259  0.74757  0.50211     H
H      0.52002  0.37756  0.08233     H
H      0.52836  0.10233  0.88344     H
H      0.52836  0.88344  0.10233     H
C       0.5307   0.3202   0.5855     C
C       0.5307   0.5855   0.3202     C
N       0.5588   0.2735   0.6519     N
N       0.5588   0.6519   0.2735     N
H      0.55908  0.87359  0.48724     H
H      0.56298  0.47725  0.84935     H
H      0.57397  0.35508  0.47164     H
H      0.57397  0.47164  0.35508     H
C       0.5855   0.3202   0.5307     C
C       0.5855   0.5307   0.3202     C
H      0.60859  0.10522  0.65348     H
C       0.6168      0.0     0.37     C
C       0.6168     0.37      0.0     C
H      0.61732  0.69468  0.13376     H
N       0.6216   0.3481   0.9069     N
N       0.6216   0.9069   0.3481     N
C         0.63   0.2468     0.63     C
C         0.63     0.63   0.2468     C
H      0.64492  0.11656  0.21889     H
H      0.64492  0.21889  0.11656     H
N       0.6519   0.2735   0.5588     N
N       0.6519   0.5588   0.2735     N
C       0.6786   0.1886   0.6786     C
C       0.6786   0.6786   0.1886     C
C       0.6798   0.2105   0.2653     C
C       0.6798   0.2653   0.2105     C
H      0.69565  0.61777  0.13457     H
N       0.7147   0.0931   0.4412     N
N       0.7147   0.4412   0.0931     N
N       0.7265   0.2853   0.3784     N
N       0.7265   0.3784   0.2853     N
H      0.72864   0.2424  0.77337     H
C       0.7347   0.4145   0.9452     C
C       0.7347   0.9452   0.4145     C
H      0.73573  0.17368   0.6461     H
H      0.74728  0.50372   0.5109     H
Co        0.75     0.25      0.5    Co
Co        0.75      0.5     0.25    Co
C       0.7532   0.3832   0.3832     C
H      0.75998  0.76051  0.25297     H
H      0.78111  0.42603  0.89767     H
H      0.78111  0.89767  0.42603     H
C       0.7895   0.0548   0.4693     C
C       0.7895   0.4693   0.0548     C
C       0.8114     0.49     0.49     C
H      0.86022  0.56196    0.481     H
H       0.8712  0.48597  0.55975     H
H      0.88344  0.10233  0.52836     H
H      0.88344  0.52836  0.10233     H
H      0.89767  0.42603  0.78111     H
H      0.89767  0.78111  0.42603     H
N       0.9069   0.3481   0.6216     N
N       0.9069   0.6216   0.3481     N
H      0.91082  0.27132   0.4372     H
H      0.91333  0.43692  0.28333     H
C       0.9452   0.4145   0.7347     C
C       0.9452   0.7347   0.4145     C
