data_I
_chemical_name_common  '/home/zhangsd/repos/MofS-CGCNN/ML/data/SSD/clean_cifs/GITWIQ_clean'
_cell_length_a 11.12480
_cell_length_b 17.63230
_cell_length_c 17.63230
_cell_angle_alpha 78.64630
_cell_angle_beta  71.61100
_cell_angle_gamma 71.61110
_space_group_name_H-M_alt      'P 1'


loop_
_space_group_symop_operation_xyz
  'x, y, z' 

loop_
_atom_site_label
_atom_site_fract_x
_atom_site_fract_y
_atom_site_fract_z
_atom_site_type_symbol
C       0.0045   0.8705   0.8363     C
H       0.0088    0.845   0.8884     H
H       0.0166   0.7662   0.3334     H
N      0.02151  0.70639  0.07199     N
N      0.03536  0.56896  0.12812     N
C      0.03899  0.89731  0.71091     C
O       0.0427  0.94112  0.57968     O
H       0.0519   0.1198   0.4946     H
N      0.05787  0.03948  0.26078     N
O       0.0635  0.55888  0.92032     O
O      0.07773  0.40763  0.67931     O
O      0.07943  0.75913  0.04701     O
N      0.08028  0.08966  0.60758     N
C       0.0809   0.0572   0.1798     C
N      0.08219  0.84114  0.76608     N
C       0.0877   0.7682   0.2866     C
N      0.08962  0.88754  0.62722     N
C      0.09227  0.62783  0.09763     C
Zn     0.09379  0.92819  0.32287    Zn
O      0.09544  0.28309  0.92443     O
N      0.10438  0.61246  0.87278     N
C        0.105   0.1171   0.5285     C
O      0.10777  0.67448  0.89318     O
O      0.11443  0.04701  0.75913     O
H       0.1162   0.6666   0.2338     H
H       0.1297   0.4523   0.1615     H
C       0.1366   0.5051   0.1401     C
N      0.14187  0.53948  0.76078     N
C       0.1425   0.7134   0.2318     C
H       0.1457   0.0248   0.1408     H
C      0.14721  0.60269  0.78909     C
Zn     0.15515  0.42819  0.82287    Zn
N      0.15685  0.82985  0.26085     N
N       0.1607   0.3481   0.6519     N
O      0.16467  0.32069  0.59237     O
H       0.1663   0.3802   0.0054     H
O      0.17543  0.82552  0.60682     O
C       0.1821   0.5572   0.6798     C
C      0.18227  0.09763  0.62783     C
H       0.1887   0.5248   0.6408     H
N      0.18941  0.65886  0.73392     N
O      0.19704  0.78309  0.42443     O
N      0.20011  0.07199  0.70639     N
C       0.2113   0.6295   0.6637     C
C       0.2182   0.1401   0.5051     C
N      0.22248  0.60758  0.08966     N
N      0.23244  0.93104  0.37188     N
C       0.2413   0.8048   0.1952     C
H       0.2422    0.655   0.6116     H
H       0.2435   0.0477   0.3385     H
N      0.24755  0.73915  0.17015     N
C       0.2494   0.5285   0.1171     C
Zn        0.25     0.75     0.75    Zn
C       0.2506   0.3829   0.9715     C
N      0.25245  0.32985  0.76085     N
H       0.2565   0.1615   0.4523     H
H       0.2578   0.8884    0.845     H
C       0.2587   0.3048   0.6952     C
N      0.26756  0.12812  0.56896     N
N      0.27752  0.41034  0.89242     N
C       0.2818   0.9949   0.3599     C
C       0.2887   0.8363   0.8705     C
N      0.29989  0.79361  0.42801     N
O      0.30296  0.07557  0.71691     O
N      0.31059  0.76608  0.84114     N
H       0.3113   0.8592   0.9752     H
C      0.31773  0.87217  0.40237     C
C       0.3179   0.8202   0.9428     C
O      0.32457  0.89318  0.67448     O
H       0.3337   0.4946   0.1198     H
O      0.33533  0.90763  0.17931     O
N       0.3393   0.8481   0.1519     N
N      0.34315  0.23915  0.67015     N
Zn     0.34485  0.67713  0.07181    Zn
C      0.35279  0.71091  0.89731     C
H       0.3543   0.3592   0.4752     H
C       0.3575   0.2682   0.7866     C
N      0.35813  0.73922  0.96052     N
C       0.3634   0.3599   0.9949     C
H       0.3703   0.3385   0.0477     H
H       0.3838   0.2662   0.8334     H
O      0.38557  0.74087  0.45299     O
O      0.39223  0.60682  0.82552     O
C        0.395   0.9715   0.3829     C
N      0.39562  0.62722  0.88754     N
O      0.40456  0.57557  0.21691     O
Zn     0.40621  0.17713  0.57181    Zn
C      0.40773  0.40237  0.87217     C
N      0.41038  0.87278  0.61246     N
C       0.4123   0.2134   0.7318     C
N      0.41781  0.73392  0.65886     N
C       0.4191   0.3202   0.4428     C
N      0.41972  0.89242  0.41034     N
O      0.42057  0.45299  0.74087     O
O      0.42227  0.82069  0.09237     O
O       0.4365  0.57968  0.94112     O
N      0.44213  0.23922  0.46052     N
H       0.4481   0.0054   0.3802     H
O       0.4573  0.92032  0.55888     O
C      0.46101  0.78909  0.60269     C
N      0.46464  0.37188  0.93104     N
N      0.47849  0.42801  0.79361     N
H       0.4834   0.1666   0.7338     H
H       0.4912   0.6116    0.655     H
C       0.4955   0.6637   0.6295     C
C       0.5045   0.3363   0.3705     C
H       0.5088   0.3884    0.345     H
H       0.5166   0.8334   0.2662     H
N      0.52151  0.57199  0.20639     N
N      0.53536  0.62812  0.06896     N
C      0.53899  0.21091  0.39731     C
O       0.5427  0.07968  0.44112     O
H       0.5519   0.9946   0.6198     H
N      0.55787  0.76078  0.53948     N
O       0.5635  0.42032  0.05888     O
O      0.57773  0.17931  0.90763     O
O      0.57943  0.54701  0.25913     O
N      0.58028  0.10758  0.58966     N
C       0.5809   0.6798   0.5572     C
N      0.58219  0.26608  0.34114     N
C       0.5877   0.7866   0.2682     C
N      0.58962  0.12722  0.38754     N
C      0.59227  0.59763  0.12783     C
Zn     0.59379  0.82287  0.42819    Zn
O      0.59544  0.42443  0.78309     O
N      0.60438  0.37278  0.11246     N
C        0.605   0.0285   0.6171     C
O      0.60777  0.39318  0.17448     O
O      0.61443  0.25913  0.54701     O
H       0.6162   0.7338   0.1666     H
H       0.6297   0.6615   0.9523     H
C       0.6366   0.6401   0.0051     C
N      0.64187  0.26078  0.03948     N
C       0.6425   0.7318   0.2134     C
H       0.6457   0.6408   0.5248     H
C      0.64721  0.28909  0.10269     C
Zn     0.65515  0.32287  0.92819    Zn
N      0.65685  0.76085  0.32985     N
N       0.6607   0.1519   0.8481     N
O      0.66467  0.09237  0.82069     O
H       0.6663   0.5054   0.8802     H
O      0.67543  0.10682  0.32552     O
C       0.6821   0.1798   0.0572     C
C      0.68227  0.12783  0.59763     C
H       0.6887   0.1408   0.0248     H
N      0.68941  0.23392  0.15886     N
O      0.69704  0.92443  0.28309     O
N      0.70011  0.20639  0.57199     N
C       0.7113   0.1637   0.1295     C
C       0.7182   0.0051   0.6401     C
N      0.72248  0.58966  0.10758     N
N      0.73244  0.87188  0.43104     N
C       0.7413   0.6952   0.3048     C
H       0.7422   0.1116    0.155     H
H       0.7435   0.8385   0.5477     H
N      0.74755  0.67015  0.23915     N
C       0.7494   0.6171   0.0285     C
Zn        0.75     0.25     0.25    Zn
C       0.7506   0.4715   0.8829     C
N      0.75245  0.26085  0.82985     N
H       0.7565   0.9523   0.6615     H
H       0.7578    0.345   0.3884     H
C       0.7587   0.1952   0.8048     C
N      0.76756  0.06896  0.62812     N
N      0.77752  0.39242  0.91034     N
C       0.7818   0.8599   0.4949     C
C       0.7887   0.3705   0.3363     C
N      0.79989  0.92801  0.29361     N
O      0.80296  0.21691  0.57557     O
N      0.81059  0.34114  0.26608     N
H       0.8113   0.4752   0.3592     H
C      0.81773  0.90237  0.37217     C
C       0.8179   0.4428   0.3202     C
O      0.82457  0.17448  0.39318     O
H       0.8337   0.6198   0.9946     H
O      0.83533  0.67931  0.40763     O
N       0.8393   0.6519   0.3481     N
N      0.84315  0.17015  0.73915     N
Zn     0.84485  0.57181  0.17713    Zn
C      0.85279  0.39731  0.21091     C
H       0.8543   0.9752   0.8592     H
C       0.8575   0.2866   0.7682     C
N      0.85813  0.46052  0.23922     N
C       0.8634   0.4949   0.8599     C
H       0.8703   0.5477   0.8385     H
H       0.8838   0.3334   0.7662     H
O      0.88557  0.95299  0.24087     O
O      0.89223  0.32552  0.10682     O
C        0.895   0.8829   0.4715     C
N      0.89562  0.38754  0.12722     N
O      0.90456  0.71691  0.07557     O
Zn     0.90621  0.07181  0.67713    Zn
C      0.90773  0.37217  0.90237     C
N      0.91038  0.11246  0.37278     N
C       0.9123   0.2318   0.7134     C
N      0.91781  0.15886  0.23392     N
C       0.9191   0.9428   0.8202     C
N      0.91972  0.91034  0.39242     N
O      0.92057  0.24087  0.95299     O
O      0.92227  0.59237  0.32069     O
O       0.9365  0.44112  0.07968     O
N      0.94213  0.96052  0.73922     N
H       0.9481   0.8802   0.5054     H
O       0.9573  0.05888  0.42032     O
C      0.96101  0.10269  0.28909     C
N      0.96464  0.43104  0.87188     N
N      0.97849  0.29361  0.92801     N
H       0.9834   0.2338   0.6666     H
H       0.9912    0.155   0.1116     H
C       0.9955   0.1295   0.1637     C
