data_I
_chemical_name_common  '/home/zhangsd/repos/MofS-CGCNN/ML/data/SSD/clean_cifs/GIZVER_clean'
_cell_length_a  8.46530
_cell_length_b  9.93870
_cell_length_c 25.11500
_cell_angle_alpha 90.56000
_cell_angle_beta  90.00000
_cell_angle_gamma 90.00000
_space_group_name_H-M_alt      'P 1'


loop_
_space_group_symop_operation_xyz
  'x, y, z' 

loop_
_atom_site_label
_atom_site_fract_x
_atom_site_fract_y
_atom_site_fract_z
_atom_site_type_symbol
Co         0.0      0.0      0.5    Co
C       0.0007   0.8039    0.689     C
H         0.01   0.9488   0.8137     H
C       0.0105   0.7416  0.81594     C
O       0.0138   0.8194  0.45716     O
C       0.0168   0.5658   0.6994     C
O       0.0183   0.6906  0.35464     O
H       0.0193   0.8908   0.7016     H
H        0.032   0.4529   0.1689     H
C       0.0326   0.1248   0.1688     C
H       0.0351   0.7487   0.4831     H
C       0.0461    0.697  0.71947     C
H       0.0506   0.4913   0.7184     H
C       0.0567   0.3655  0.15821     C
C       0.0623   0.4519  0.34853     C
C       0.0734    0.214   0.3607     C
C       0.1002   0.5909  0.36798     C
C       0.1059    0.341  0.37869     C
C       0.1167   0.0927   0.3926     C
C        0.131   0.7191   0.7712     C
O       0.1326   0.1058  0.44282     O
O       0.1354    0.984  0.36789     O
C       0.1385   0.1063   0.1275     C
O       0.1509   0.8625  0.13924     O
H       0.1572   0.3535   0.4111     H
C        0.163   0.3435  0.11549     C
Co     0.17333  0.24506  0.58763    Co
C       0.1949   0.9649   0.1141     C
H       0.1958   0.6413   0.7791     H
H       0.1997   0.7969   0.7686     H
C       0.2034   0.2148  0.10079     C
Co      0.2041  0.81571  0.40214    Co
O       0.2043   0.4492  0.57606     O
O       0.2075   0.9429  0.54316     O
O       0.2157   0.6075    0.398     O
H       0.2259   0.7002    0.573     H
O        0.243   0.0667  0.61703     O
C       0.2439    0.461   0.0895     C
C       0.2561    0.961   0.5895     C
O        0.257   0.5667  0.11703     O
H       0.2741   0.2002    0.073     H
O       0.2843   0.1075    0.898     O
O       0.2925   0.4429  0.04316     O
O       0.2957   0.9492  0.07606     O
Co      0.2959  0.31571  0.90214    Co
C       0.2966   0.7148  0.60079     C
H       0.3003   0.2969   0.2686     H
H       0.3042   0.1413   0.2791     H
C       0.3051   0.4649   0.6141     C
Co     0.32667  0.74506  0.08763    Co
C        0.337   0.8435  0.61549     C
H       0.3428   0.8535   0.9111     H
O       0.3491   0.3625  0.63924     O
C       0.3615   0.6063   0.6275     C
O       0.3646    0.484  0.86789     O
O       0.3674   0.6058  0.94282     O
C        0.369   0.2191   0.2712     C
C       0.3833   0.5927   0.8926     C
C       0.3941    0.841  0.87869     C
C       0.3998   0.0909  0.86798     C
C       0.4266    0.714   0.8607     C
C       0.4377   0.9519  0.84853     C
C       0.4433   0.8655  0.65821     C
H       0.4494   0.9913   0.2184     H
C       0.4539    0.197  0.21947     C
H       0.4649   0.2487   0.9831     H
C       0.4674   0.6248   0.6688     C
H        0.468   0.9529   0.6689     H
H       0.4807   0.3908   0.2016     H
O       0.4817   0.1906  0.85464     O
C       0.4832   0.0658   0.1994     C
O       0.4862   0.3194  0.95716     O
C       0.4895   0.2416  0.31594     C
H         0.49   0.4488   0.3137     H
C       0.4993   0.3039    0.189     C
Co         0.5      0.5      1.0    Co
C       0.5007   0.6961    0.811     C
H         0.51   0.5512   0.6863     H
C       0.5105   0.7584  0.68406     C
O       0.5138   0.6806  0.04284     O
C       0.5168   0.9342   0.8006     C
O       0.5183   0.8094  0.14536     O
H       0.5193   0.6092   0.7984     H
H        0.532   0.0471   0.3311     H
C       0.5326   0.3752   0.3312     C
H       0.5351   0.7513   0.0169     H
C       0.5461    0.803  0.78053     C
H       0.5506   0.0087   0.7816     H
C       0.5567   0.1345  0.34179     C
C       0.5623   0.0481  0.15147     C
C       0.5734    0.286   0.1393     C
C       0.6002   0.9091  0.13202     C
C       0.6059    0.159  0.12131     C
C       0.6167   0.4073   0.1074     C
C        0.631   0.7809   0.7288     C
O       0.6326   0.3942  0.05718     O
O       0.6354    0.516  0.13211     O
C       0.6385   0.3937   0.3725     C
O       0.6509   0.6375  0.36076     O
H       0.6572   0.1465   0.0889     H
C        0.663   0.1565  0.38451     C
Co     0.67333  0.25494  0.91237    Co
C       0.6949   0.5351   0.3859     C
H       0.6958   0.8587   0.7209     H
H       0.6997   0.7031   0.7314     H
C       0.7034   0.2852  0.39921     C
Co      0.7041  0.68429  0.09786    Co
O       0.7043   0.0508  0.92394     O
O       0.7075   0.5571  0.95684     O
O       0.7157   0.8925    0.102     O
H       0.7259   0.7998    0.927     H
O        0.743   0.4333  0.88297     O
C       0.7439    0.039   0.4105     C
C       0.7561    0.539   0.9105     C
O        0.757   0.9333  0.38297     O
H       0.7741   0.2998    0.427     H
O       0.7843   0.3925    0.602     O
O       0.7925   0.0571  0.45684     O
O       0.7957   0.5508  0.42394     O
Co      0.7959  0.18429  0.59786    Co
C       0.7966   0.7852  0.89921     C
H       0.8003   0.2031   0.2314     H
H       0.8042   0.3587   0.2209     H
C       0.8051   0.0351   0.8859     C
Co     0.82667  0.75494  0.41237    Co
C        0.837   0.6565  0.88451     C
H       0.8428   0.6465   0.5889     H
O       0.8491   0.1375  0.86076     O
C       0.8615   0.8937   0.8725     C
O       0.8646    0.016  0.63211     O
O       0.8674   0.8942  0.55718     O
C        0.869   0.2809   0.2288     C
C       0.8833   0.9073   0.6074     C
C       0.8941    0.659  0.62131     C
C       0.8998   0.4091  0.63202     C
C       0.9266    0.786   0.6393     C
C       0.9377   0.5481  0.65147     C
C       0.9433   0.6345  0.84179     C
H       0.9494   0.5087   0.2816     H
C       0.9539    0.303  0.28053     C
H       0.9649   0.2513   0.5169     H
C       0.9674   0.8752   0.8312     C
H        0.968   0.5471   0.8311     H
H       0.9807   0.1092   0.2984     H
O       0.9817   0.3094  0.64536     O
C       0.9832   0.4342   0.3006     C
O       0.9862   0.1806  0.54284     O
C       0.9895   0.2584  0.18406     C
H         0.99   0.0512   0.1863     H
C       0.9993   0.1961    0.311     C
