data_I
_chemical_name_common  '/home/zhangsd/repos/MofS-CGCNN/ML/data/SSD/clean_cifs/GUNFAW01_neutral'
_cell_length_a 15.49010
_cell_length_b 15.49010
_cell_length_c 15.49010
_cell_angle_alpha 90.00000
_cell_angle_beta  90.00000
_cell_angle_gamma 90.00000
_space_group_name_H-M_alt      'P 1'


loop_
_space_group_symop_operation_xyz
  'x, y, z' 

loop_
_atom_site_label
_atom_site_fract_x
_atom_site_fract_y
_atom_site_fract_z
_atom_site_type_symbol
C        0.007    0.263    0.122     C
O       0.0203   0.8421   0.3658     O
O       0.0474    0.618   0.3896     O
C        0.066    0.695    0.375     C
O       0.0802     0.24   0.1127     O
Cr      0.0973   0.0973   0.0973    Cr
O       0.1104   0.9526    0.118     O
O       0.1127   0.0802     0.24     O
O        0.118   0.1104   0.9526     O
C        0.122    0.007    0.263     C
C        0.125    0.934    0.195     C
O       0.1342   0.9797   0.3421     O
O       0.1407   0.8567    0.226     O
O       0.1433    0.726   0.3593     O
Mn      0.1465   0.8535   0.3535    Mn
O       0.1579   0.8658   0.4797     O
C        0.195    0.125    0.934     C
O        0.226   0.1407   0.8567     O
C        0.237    0.878    0.507     C
O         0.24   0.1127   0.0802     O
O         0.26   0.8873   0.5802     O
C        0.263    0.122    0.007     C
O        0.274   0.8593   0.3567     O
C        0.305    0.875    0.434     C
O       0.3421   0.1342   0.9797     O
Mn      0.3535   0.1465   0.8535    Mn
O       0.3567    0.274   0.8593     O
O       0.3593   0.1433    0.726     O
O       0.3658   0.0203   0.8421     O
C        0.375    0.066    0.695     C
C        0.378    0.993    0.763     C
O        0.382   0.8896   0.4526     O
O       0.3873   0.9198     0.74     O
O       0.3896   0.0474    0.618     O
Cr      0.4027   0.9027   0.5973    Cr
O       0.4198     0.76   0.6127     O
C        0.434    0.305    0.875     C
O       0.4526    0.382   0.8896     O
O       0.4797   0.1579   0.8658     O
C        0.493    0.737    0.622     C
C        0.507    0.237    0.878     C
O       0.5203   0.6579   0.6342     O
O       0.5474    0.882   0.6104     O
C        0.566    0.805    0.625     C
O       0.5802     0.26   0.8873     O
Cr      0.5973   0.4027   0.9027    Cr
O       0.6104   0.5474    0.882     O
O       0.6127   0.4198     0.76     O
O        0.618   0.3896   0.0474     O
C        0.622    0.493    0.737     C
C        0.625    0.566    0.805     C
O       0.6342   0.5203   0.6579     O
O       0.6407   0.6433    0.774     O
O       0.6433    0.774   0.6407     O
Mn      0.6465   0.6465   0.6465    Mn
O       0.6579   0.6342   0.5203     O
C        0.695    0.375    0.066     C
O        0.726   0.3593   0.1433     O
C        0.737    0.622    0.493     C
O         0.74   0.3873   0.9198     O
O         0.76   0.6127   0.4198     O
C        0.763    0.378    0.993     C
O        0.774   0.6407   0.6433     O
C        0.805    0.625    0.566     C
O       0.8421   0.3658   0.0203     O
Mn      0.8535   0.3535   0.1465    Mn
O       0.8567    0.226   0.1407     O
O       0.8593   0.3567    0.274     O
O       0.8658   0.4797   0.1579     O
C        0.875    0.434    0.305     C
C        0.878    0.507    0.237     C
O        0.882   0.6104   0.5474     O
O       0.8873   0.5802     0.26     O
O       0.8896   0.4526    0.382     O
Cr      0.9027   0.5973   0.4027    Cr
O       0.9198     0.74   0.3873     O
C        0.934    0.195    0.125     C
O       0.9526    0.118   0.1104     O
O       0.9797   0.3421   0.1342     O
C        0.993    0.763    0.378     C
