data_I
_chemical_name_common  '/home/zhangsd/repos/MofS-CGCNN/ML/data/SSD/clean_cifs/GUVCOP_clean'
_cell_length_a 24.04200
_cell_length_b 12.49000
_cell_length_c 31.15000
_cell_angle_alpha 90.00000
_cell_angle_beta  107.80000
_cell_angle_gamma 90.00000
_space_group_name_H-M_alt      'P 1'


loop_
_space_group_symop_operation_xyz
  'x, y, z' 

loop_
_atom_site_label
_atom_site_fract_x
_atom_site_fract_y
_atom_site_fract_z
_atom_site_type_symbol
Pt         0.0  0.23117     0.75    Pt
Cu         0.0      0.5      0.0    Cu
Cu         0.0      0.5      0.5    Cu
Pt         0.0  0.76883     0.25    Pt
C       0.0016   0.4471   0.5997     C
C       0.0016   0.5529   0.0997     C
C       0.0065   0.3579   0.8315     C
C       0.0065   0.6421   0.3315     C
H       0.0087    0.111   0.8151     H
H       0.0087    0.889   0.3151     H
H       0.0135   0.0481   0.2877     H
H       0.0135   0.9519   0.7877     H
C        0.021   0.0086   0.7689     C
C        0.021   0.9914   0.2689     C
O       0.0224   0.4976   0.4328     O
O       0.0224   0.5024   0.9328     O
H       0.0243   0.3138   0.6676     H
H       0.0243   0.6862   0.1676     H
C       0.0263   0.4338   0.8637     C
C       0.0263   0.5662   0.3637     C
N       0.0292   0.1124   0.7953     N
N       0.0292   0.8876   0.2953     N
N       0.0308   0.3457   0.7984     N
N       0.0308   0.6543   0.2984     N
O       0.0345    0.358   0.5152     O
O       0.0345    0.642   0.0152     O
Cu     0.03736  0.30281  0.45702    Cu
Cu     0.03736  0.69719  0.95702    Cu
O        0.048   0.3944   0.6063     O
O        0.048   0.6056   0.1063     O
O       0.0486   0.2882   0.0619     O
O       0.0486   0.7118   0.5619     O
H       0.0571   0.0084   0.2629     H
H       0.0571   0.9916   0.7629     H
H       0.0672   0.1222   0.8105     H
H       0.0672   0.8778   0.3105     H
C       0.0747   0.4958   0.8636     C
C       0.0747   0.5042   0.3636     C
C       0.0764    0.405    0.798     C
C       0.0764    0.595    0.298     C
O       0.0773   0.4352   0.0326     O
O       0.0773   0.5648   0.5326     O
C       0.0858   0.3451   0.0516     C
C       0.0858   0.6549   0.5516     C
H       0.0904   0.4547   0.3864     H
H       0.0904   0.5453   0.8864     H
H       0.0942    0.395   0.7756     H
H       0.0942    0.605   0.2756     H
C       0.0976    0.483   0.8303     C
C       0.0976    0.517   0.3303     C
Cu      0.0998  0.37048  0.57071    Cu
Cu      0.0998  0.62952  0.07071    Cu
O       0.1201   0.3355   0.4669     O
O       0.1201   0.6645   0.9669     O
H       0.1258   0.1616   0.0869     H
H       0.1258   0.8384   0.5869     H
H       0.1284   0.4741   0.3289     H
H       0.1284   0.5259   0.8289     H
H       0.1454   0.0222   0.5181     H
H       0.1454   0.9778   0.0181     H
C       0.1462   0.2979   0.0615     C
C       0.1462   0.7021   0.5615     C
H       0.1471   0.0659   0.4473     H
H       0.1471   0.9341   0.9473     H
C       0.1559   0.1957   0.0792     C
C       0.1559   0.8043   0.5792     C
O         0.16   0.3493   0.5421     O
O         0.16   0.6507   0.0421     O
C       0.1606   0.3529   0.5011     C
C       0.1606   0.6471   0.0011     C
H       0.1703   0.0488   0.1666     H
H       0.1703   0.9512   0.6666     H
H       0.1779   0.1779   0.6776     H
H       0.1779   0.8221   0.1776     H
C       0.1801   0.0478   0.5146     C
C       0.1801   0.9522   0.0146     C
C       0.1808   0.0735   0.4716     C
C       0.1808   0.9265   0.9716     C
H       0.1842   0.4199   0.0397     H
H       0.1842   0.5801   0.5397     H
C       0.1899   0.3515   0.0522     C
C       0.1899   0.6485   0.5522     C
H       0.1931   0.3965     0.43     H
H       0.1931   0.6035     0.93     H
H       0.2003    0.202   0.6172     H
H       0.2003    0.798   0.1172     H
N       0.2054   0.1446   0.0857     N
N       0.2054   0.8554   0.5857     N
N        0.208   0.0344   0.1697     N
N        0.208   0.9656   0.6697     N
H         0.21   0.0571   0.7244     H
H         0.21   0.9429   0.2244     H
H       0.2138    0.335   0.9185     H
H       0.2138    0.665   0.4185     H
Pt     0.21783  0.00752  0.60971    Pt
Pt     0.21783  0.99248  0.10971    Pt
C       0.2179    0.157   0.6807     C
C       0.2179    0.843   0.1807     C
C       0.2198   0.3813   0.4979     C
C       0.2198   0.6187   0.9979     C
N       0.2243   0.0571   0.5499     N
N       0.2243   0.9429   0.0499     N
H       0.2252    0.162   0.9421     H
H       0.2252    0.838   0.4421     H
C       0.2253   0.4059   0.4554     C
C       0.2253   0.5941   0.9554     C
N       0.2267   0.1584   0.6357     N
N       0.2267   0.8416   0.1357     N
C       0.2287     0.06   0.7008     C
C       0.2287     0.94   0.2008     C
H       0.2294   0.0928   0.1808     H
H       0.2294   0.9072   0.6808     H
H       0.2296   0.4468   0.2848     H
H       0.2296   0.5532   0.7848     H
C       0.2314   0.1103    0.465     C
C       0.2314   0.8897    0.965     C
H       0.2326   0.1289   0.4364     H
H       0.2326   0.8711   0.9364     H
H       0.2374   0.3165   0.3619     H
H       0.2374   0.6835   0.8619     H
C       0.2431   0.3011   0.0618     C
C       0.2431   0.6989   0.5618     C
H       0.2435   0.2099   0.6998     H
H       0.2435   0.7901   0.1998     H
C       0.2497   0.3012    0.923     C
C       0.2497   0.6988    0.423     C
C       0.2503   0.1988    0.077     C
C       0.2503   0.8012    0.577     C
H       0.2565   0.2901   0.3002     H
H       0.2565   0.7099   0.8002     H
C       0.2569   0.1989   0.9382     C
C       0.2569   0.8011   0.4382     C
H       0.2626   0.1835   0.6381     H
H       0.2626   0.8165   0.1381     H
H       0.2674   0.3711   0.5636     H
H       0.2674   0.6289   0.0636     H
C       0.2686   0.3897    0.535     C
C       0.2686   0.6103    0.035     C
H       0.2704   0.0532   0.7152     H
H       0.2704   0.9468   0.2152     H
H       0.2706   0.4072   0.8192     H
H       0.2706   0.5928   0.3192     H
C       0.2713     0.44   0.2992     C
C       0.2713     0.56   0.7992     C
N       0.2733   0.3416   0.3643     N
N       0.2733   0.6584   0.8643     N
C       0.2747   0.0941   0.5446     C
C       0.2747   0.9059   0.0446     C
H       0.2748    0.338   0.0579     H
H       0.2748    0.662   0.5579     H
N       0.2757   0.4429   0.4501     N
N       0.2757   0.5571   0.9501     N
C       0.2802   0.1187   0.5021     C
C       0.2802   0.8813   0.0021     C
C       0.2821    0.343   0.3193     C
C       0.2821    0.657   0.8193     C
Pt     0.28217  0.49248  0.39029    Pt
Pt     0.28217  0.50752  0.89029    Pt
H       0.2862    0.165   0.0815     H
H       0.2862    0.835   0.5815     H
H         0.29   0.4429   0.2756     H
H         0.29   0.5571   0.7756     H
N        0.292   0.4656   0.8303     N
N        0.292   0.5344   0.3303     N
N       0.2946   0.3554   0.9143     N
N       0.2946   0.6446   0.4143     N
H       0.2997    0.298   0.3828     H
H       0.2997    0.702   0.8828     H
H       0.3069   0.1035     0.57     H
H       0.3069   0.8965     0.07     H
C       0.3101   0.1485   0.9478     C
C       0.3101   0.8515   0.4478     C
H       0.3158   0.0801   0.9603     H
H       0.3158   0.9199   0.4603     H
C       0.3192   0.4265   0.5284     C
C       0.3192   0.5735   0.0284     C
C       0.3199   0.4522   0.4854     C
C       0.3199   0.5478   0.9854     C
H       0.3221   0.3221   0.3224     H
H       0.3221   0.6779   0.8224     H
H       0.3297   0.4512   0.8334     H
H       0.3297   0.5488   0.3334     H
C       0.3394   0.1471   0.4989     C
C       0.3394   0.8529   0.9989     C
O         0.34   0.1507   0.4579     O
O         0.34   0.8493   0.9579     O
C       0.3441   0.3043   0.9208     C
C       0.3441   0.6957   0.4208     C
H       0.3529   0.4341   0.5527     H
H       0.3529   0.5659   0.0527     H
C       0.3538   0.2021   0.9385     C
C       0.3538   0.7979   0.4385     C
H       0.3546   0.4778   0.4819     H
H       0.3546   0.5222   0.9819     H
H       0.3716   0.0259   0.6711     H
H       0.3716   0.9741   0.1711     H
H       0.3742   0.3384   0.9131     H
H       0.3742   0.6616   0.4131     H
O       0.3799   0.1645   0.5331     O
O       0.3799   0.8355   0.0331     O
Cu      0.4002  0.12952  0.42929    Cu
Cu      0.4002  0.87048  0.92929    Cu
C       0.4024    0.017   0.1697     C
C       0.4024    0.983   0.6697     C
H       0.4058    0.105   0.2244     H
H       0.4058    0.895   0.7244     H
H       0.4096   0.0453   0.6136     H
H       0.4096   0.9547   0.1136     H
C       0.4142   0.1549   0.9484     C
C       0.4142   0.8451   0.4484     C
O       0.4227   0.0648   0.9674     O
O       0.4227   0.9352   0.4674     O
C       0.4236    0.095    0.202     C
C       0.4236    0.905    0.702     C
C       0.4253   0.0042   0.1364     C
C       0.4253   0.9958   0.6364     C
H       0.4328   0.3778   0.1895     H
H       0.4328   0.6222   0.6895     H
H       0.4429   0.4916   0.7371     H
H       0.4429   0.5084   0.2371     H
O       0.4514   0.2118   0.9381     O
O       0.4514   0.7882   0.4381     O
O        0.452   0.1056   0.3937     O
O        0.452   0.8944   0.8937     O
Cu     0.46264  0.19719  0.54298    Cu
Cu     0.46264  0.80281  0.04298    Cu
O       0.4655    0.142   0.4848     O
O       0.4655    0.858   0.9848     O
N       0.4692   0.1543   0.2016     N
N       0.4692   0.8457   0.7016     N
N       0.4708   0.3876   0.2047     N
N       0.4708   0.6124   0.7047     N
C       0.4737   0.0662   0.1363     C
C       0.4737   0.9338   0.6363     C
H       0.4757   0.1862   0.3324     H
H       0.4757   0.8138   0.8324     H
O       0.4776   0.0024   0.5672     O
O       0.4776   0.9976   0.0672     O
C        0.479   0.4914   0.2311     C
C        0.479   0.5086   0.7311     C
H       0.4865   0.4519   0.7123     H
H       0.4865   0.5481   0.2123     H
H       0.4913    0.389   0.1849     H
H       0.4913    0.611   0.6849     H
C       0.4935   0.1421   0.1685     C
C       0.4935   0.8579   0.6685     C
C       0.4984   0.0529   0.4003     C
C       0.4984   0.9471   0.9003     C
Cu         0.5      0.0      0.0    Cu
Cu         0.5      0.0      0.5    Cu
Pt         0.5  0.26883     0.25    Pt
Pt         0.5  0.73117     0.75    Pt
C       0.5016   0.0529   0.0997     C
C       0.5016   0.9471   0.5997     C
C       0.5065   0.1421   0.3315     C
C       0.5065   0.8579   0.8315     C
H       0.5087    0.389   0.3151     H
H       0.5087    0.611   0.8151     H
H       0.5135   0.4519   0.7877     H
H       0.5135   0.5481   0.2877     H
C        0.521   0.4914   0.2689     C
C        0.521   0.5086   0.7689     C
O       0.5224   0.0024   0.9328     O
O       0.5224   0.9976   0.4328     O
H       0.5243   0.1862   0.1676     H
H       0.5243   0.8138   0.6676     H
C       0.5263   0.0662   0.3637     C
C       0.5263   0.9338   0.8637     C
N       0.5292   0.3876   0.2953     N
N       0.5292   0.6124   0.7953     N
N       0.5308   0.1543   0.2984     N
N       0.5308   0.8457   0.7984     N
O       0.5345    0.142   0.0152     O
O       0.5345    0.858   0.5152     O
Cu     0.53736  0.19719  0.95702    Cu
Cu     0.53736  0.80281  0.45702    Cu
O        0.548   0.1056   0.1063     O
O        0.548   0.8944   0.6063     O
O       0.5486   0.2118   0.5619     O
O       0.5486   0.7882   0.0619     O
H       0.5571   0.4916   0.7629     H
H       0.5571   0.5084   0.2629     H
H       0.5672   0.3778   0.3105     H
H       0.5672   0.6222   0.8105     H
C       0.5747   0.0042   0.3636     C
C       0.5747   0.9958   0.8636     C
C       0.5764    0.095    0.298     C
C       0.5764    0.905    0.798     C
O       0.5773   0.0648   0.5326     O
O       0.5773   0.9352   0.0326     O
C       0.5858   0.1549   0.5516     C
C       0.5858   0.8451   0.0516     C
H       0.5904   0.0453   0.8864     H
H       0.5904   0.9547   0.3864     H
H       0.5942    0.105   0.2756     H
H       0.5942    0.895   0.7756     H
C       0.5976    0.017   0.3303     C
C       0.5976    0.983   0.8303     C
Cu      0.5998  0.12952  0.07071    Cu
Cu      0.5998  0.87048  0.57071    Cu
O       0.6201   0.1645   0.9669     O
O       0.6201   0.8355   0.4669     O
H       0.6258   0.3384   0.5869     H
H       0.6258   0.6616   0.0869     H
H       0.6284   0.0259   0.8289     H
H       0.6284   0.9741   0.3289     H
H       0.6454   0.4778   0.0181     H
H       0.6454   0.5222   0.5181     H
C       0.6462   0.2021   0.5615     C
C       0.6462   0.7979   0.0615     C
H       0.6471   0.4341   0.9473     H
H       0.6471   0.5659   0.4473     H
C       0.6559   0.3043   0.5792     C
C       0.6559   0.6957   0.0792     C
O         0.66   0.1507   0.0421     O
O         0.66   0.8493   0.5421     O
C       0.6606   0.1471   0.0011     C
C       0.6606   0.8529   0.5011     C
H       0.6703   0.4512   0.6666     H
H       0.6703   0.5488   0.1666     H
H       0.6779   0.3221   0.1776     H
H       0.6779   0.6779   0.6776     H
C       0.6801   0.4522   0.0146     C
C       0.6801   0.5478   0.5146     C
C       0.6808   0.4265   0.9716     C
C       0.6808   0.5735   0.4716     C
H       0.6842   0.0801   0.5397     H
H       0.6842   0.9199   0.0397     H
C       0.6899   0.1485   0.5522     C
C       0.6899   0.8515   0.0522     C
H       0.6931   0.1035     0.93     H
H       0.6931   0.8965     0.43     H
H       0.7003    0.298   0.1172     H
H       0.7003    0.702   0.6172     H
N       0.7054   0.3554   0.5857     N
N       0.7054   0.6446   0.0857     N
N        0.708   0.4656   0.6697     N
N        0.708   0.5344   0.1697     N
H         0.71   0.4429   0.2244     H
H         0.71   0.5571   0.7244     H
H       0.7138    0.165   0.4185     H
H       0.7138    0.835   0.9185     H
Pt     0.71783  0.49248  0.10971    Pt
Pt     0.71783  0.50752  0.60971    Pt
C       0.7179    0.343   0.1807     C
C       0.7179    0.657   0.6807     C
C       0.7198   0.1187   0.9979     C
C       0.7198   0.8813   0.4979     C
N       0.7243   0.4429   0.0499     N
N       0.7243   0.5571   0.5499     N
H       0.7252    0.338   0.4421     H
H       0.7252    0.662   0.9421     H
C       0.7253   0.0941   0.9554     C
C       0.7253   0.9059   0.4554     C
N       0.7267   0.3416   0.1357     N
N       0.7267   0.6584   0.6357     N
C       0.7287     0.44   0.2008     C
C       0.7287     0.56   0.7008     C
H       0.7294   0.4072   0.6808     H
H       0.7294   0.5928   0.1808     H
H       0.7296   0.0532   0.7848     H
H       0.7296   0.9468   0.2848     H
C       0.7314   0.3897    0.965     C
C       0.7314   0.6103    0.465     C
H       0.7326   0.3711   0.9364     H
H       0.7326   0.6289   0.4364     H
H       0.7374   0.1835   0.8619     H
H       0.7374   0.8165   0.3619     H
C       0.7431   0.1989   0.5618     C
C       0.7431   0.8011   0.0618     C
H       0.7435   0.2901   0.1998     H
H       0.7435   0.7099   0.6998     H
C       0.7497   0.1988    0.423     C
C       0.7497   0.8012    0.923     C
C       0.7503   0.3012    0.577     C
C       0.7503   0.6988    0.077     C
H       0.7565   0.2099   0.8002     H
H       0.7565   0.7901   0.3002     H
C       0.7569   0.3011   0.4382     C
C       0.7569   0.6989   0.9382     C
H       0.7626   0.3165   0.1381     H
H       0.7626   0.6835   0.6381     H
H       0.7674   0.1289   0.0636     H
H       0.7674   0.8711   0.5636     H
C       0.7686   0.1103    0.035     C
C       0.7686   0.8897    0.535     C
H       0.7704   0.4468   0.2152     H
H       0.7704   0.5532   0.7152     H
H       0.7706   0.0928   0.3192     H
H       0.7706   0.9072   0.8192     H
C       0.7713     0.06   0.7992     C
C       0.7713     0.94   0.2992     C
N       0.7733   0.1584   0.8643     N
N       0.7733   0.8416   0.3643     N
C       0.7747   0.4059   0.0446     C
C       0.7747   0.5941   0.5446     C
H       0.7748    0.162   0.5579     H
H       0.7748    0.838   0.0579     H
N       0.7757   0.0571   0.9501     N
N       0.7757   0.9429   0.4501     N
C       0.7802   0.3813   0.0021     C
C       0.7802   0.6187   0.5021     C
C       0.7821    0.157   0.8193     C
C       0.7821    0.843   0.3193     C
Pt     0.78217  0.00752  0.89029    Pt
Pt     0.78217  0.99248  0.39029    Pt
H       0.7862    0.335   0.5815     H
H       0.7862    0.665   0.0815     H
H         0.79   0.0571   0.7756     H
H         0.79   0.9429   0.2756     H
N        0.792   0.0344   0.3303     N
N        0.792   0.9656   0.8303     N
N       0.7946   0.1446   0.4143     N
N       0.7946   0.8554   0.9143     N
H       0.7997    0.202   0.8828     H
H       0.7997    0.798   0.3828     H
H       0.8069   0.3965     0.07     H
H       0.8069   0.6035     0.57     H
C       0.8101   0.3515   0.4478     C
C       0.8101   0.6485   0.9478     C
H       0.8158   0.4199   0.4603     H
H       0.8158   0.5801   0.9603     H
C       0.8192   0.0735   0.0284     C
C       0.8192   0.9265   0.5284     C
C       0.8199   0.0478   0.9854     C
C       0.8199   0.9522   0.4854     C
H       0.8221   0.1779   0.8224     H
H       0.8221   0.8221   0.3224     H
H       0.8297   0.0488   0.3334     H
H       0.8297   0.9512   0.8334     H
C       0.8394   0.3529   0.9989     C
C       0.8394   0.6471   0.4989     C
O         0.84   0.3493   0.9579     O
O         0.84   0.6507   0.4579     O
C       0.8441   0.1957   0.4208     C
C       0.8441   0.8043   0.9208     C
H       0.8529   0.0659   0.0527     H
H       0.8529   0.9341   0.5527     H
C       0.8538   0.2979   0.4385     C
C       0.8538   0.7021   0.9385     C
H       0.8546   0.0222   0.9819     H
H       0.8546   0.9778   0.4819     H
H       0.8716   0.4741   0.1711     H
H       0.8716   0.5259   0.6711     H
H       0.8742   0.1616   0.4131     H
H       0.8742   0.8384   0.9131     H
O       0.8799   0.3355   0.0331     O
O       0.8799   0.6645   0.5331     O
Cu      0.9002  0.37048  0.92929    Cu
Cu      0.9002  0.62952  0.42929    Cu
C       0.9024    0.483   0.6697     C
C       0.9024    0.517   0.1697     C
H       0.9058    0.395   0.7244     H
H       0.9058    0.605   0.2244     H
H       0.9096   0.4547   0.1136     H
H       0.9096   0.5453   0.6136     H
C       0.9142   0.3451   0.4484     C
C       0.9142   0.6549   0.9484     C
O       0.9227   0.4352   0.4674     O
O       0.9227   0.5648   0.9674     O
C       0.9236    0.405    0.702     C
C       0.9236    0.595    0.202     C
C       0.9253   0.4958   0.6364     C
C       0.9253   0.5042   0.1364     C
H       0.9328   0.1222   0.6895     H
H       0.9328   0.8778   0.1895     H
H       0.9429   0.0084   0.2371     H
H       0.9429   0.9916   0.7371     H
O       0.9514   0.2882   0.4381     O
O       0.9514   0.7118   0.9381     O
O        0.952   0.3944   0.8937     O
O        0.952   0.6056   0.3937     O
Cu     0.96264  0.30281  0.04298    Cu
Cu     0.96264  0.69719  0.54298    Cu
O       0.9655    0.358   0.9848     O
O       0.9655    0.642   0.4848     O
N       0.9692   0.3457   0.7016     N
N       0.9692   0.6543   0.2016     N
N       0.9708   0.1124   0.7047     N
N       0.9708   0.8876   0.2047     N
C       0.9737   0.4338   0.6363     C
C       0.9737   0.5662   0.1363     C
H       0.9757   0.3138   0.8324     H
H       0.9757   0.6862   0.3324     H
O       0.9776   0.4976   0.0672     O
O       0.9776   0.5024   0.5672     O
C        0.979   0.0086   0.7311     C
C        0.979   0.9914   0.2311     C
H       0.9865   0.0481   0.2123     H
H       0.9865   0.9519   0.7123     H
H       0.9913    0.111   0.6849     H
H       0.9913    0.889   0.1849     H
C       0.9935   0.3579   0.6685     C
C       0.9935   0.6421   0.1685     C
C       0.9984   0.4471   0.9003     C
C       0.9984   0.5529   0.4003     C
