data_I
_chemical_name_common  '/home/zhangsd/repos/MofS-CGCNN/ML/data/SSD/clean_cifs/HADQUA_clean'
_cell_length_a 23.53030
_cell_length_b 23.53030
_cell_length_c 23.53030
_cell_angle_alpha 109.47100
_cell_angle_beta  109.47100
_cell_angle_gamma 109.47100
_space_group_name_H-M_alt      'P 1'


loop_
_space_group_symop_operation_xyz
  'x, y, z' 

loop_
_atom_site_label
_atom_site_fract_x
_atom_site_fract_y
_atom_site_fract_z
_atom_site_type_symbol
Zn         0.0      0.5  0.27414    Zn
Zn         0.0      0.5  0.77414    Zn
N      0.00116  0.42075  0.30157     N
C        0.002   0.5991   0.2119     C
H       0.0025   0.6643    0.172     H
C       0.0031   0.1452   0.1271     C
C        0.004   0.1896    0.882     C
H       0.0077   0.8382   0.8357     H
H       0.0131    0.805   0.7321     H
C       0.0162   0.1617   0.1923     C
C       0.0181   0.3729    0.876     C
C       0.0192   0.6628   0.2138     C
N      0.02429   0.1902  0.33649     N
H       0.0243   0.2071    0.427     H
N      0.02657  0.59335  0.26884     N
H       0.0267   0.5943    0.927     H
H       0.0288   0.5865   0.6967     H
C       0.0306   0.3383   0.3545     C
C       0.0324   0.4279   0.8629     C
C       0.0348   0.1863   0.8051     C
C       0.0397   0.1779    0.745     C
H       0.0405   0.1614   0.1187     H
H       0.0408    0.311   0.3738     H
H       0.0427   0.3813   0.9218     H
C       0.0493   0.4047   0.2962     C
C        0.051   0.8564   0.8372     C
C       0.0541   0.8373   0.7762     C
H       0.0577   0.4712   0.6679     H
C       0.0611   0.7238   0.2779     C
H       0.0628    0.189   0.2298     H
C        0.065   0.1695   0.6371     C
N      0.06678  0.47343  0.24227     N
C       0.0671   0.3618   0.3221     C
H       0.0676   0.4733   0.9003     H
C      0.06886  0.65289  0.33197     C
C       0.0721   0.6045    0.935     C
H       0.0729   0.7679    0.281     H
H        0.073   0.0973   0.2801     H
H        0.073   0.1673   0.5997     H
N        0.073   0.2228   0.9194     N
H       0.0782   0.9595   0.6209     H
N      0.07925  0.58041  0.38082     N
N      0.08041  0.57925  0.88082     N
N       0.0806   0.8034   0.6536     N
C      0.08403  0.43114  0.26311     C
C      0.08591  0.71851   0.3384     C
H       0.0865   0.5288   0.1967     H
C       0.0926   0.2213   0.8703     C
N      0.09335  0.52657  0.76884     N
H       0.0943   0.5267    0.427     H
C       0.0953   0.6446   0.3915     C
C       0.0971    0.498   0.2099     C
H       0.0973   0.7801    0.573     H
C       0.0991    0.502   0.7119     C
H       0.0997    0.073   0.6673     H
C       0.1045   0.5721    0.435     C
C       0.1085   0.2038   0.7531     C
H       0.1102   0.9135   0.9423     H
C       0.1128   0.9029   0.9009     C
C        0.118   0.8076    0.622     C
H       0.1187   0.6614   0.0405     H
C       0.1188   0.3485   0.3137     C
N      0.11918  0.19843  0.69959     N
C      0.11989   0.8674  0.78149     C
H       0.1209   0.0782   0.4595     H
C        0.122    0.118   0.3076     C
C        0.124   0.9969   0.6421     C
Zn       0.125     0.25    0.375    Zn
H       0.1262    0.167   0.4372     H
C       0.1271   0.6452   0.0031     C
C       0.1287   0.7777   0.4074     C
C       0.1297    0.851   0.7223     C
C       0.1326  0.41409  0.25249     C
C       0.1371    0.065   0.6695     C
C       0.1382   0.7053   0.4603     C
C       0.1421    0.124   0.4969     C
C       0.1436   0.4808   0.1946     C
C       0.1446   0.5953   0.8915     C
C       0.1452   0.6271   0.5031     C
C       0.1455   0.1761   0.4838     C
N      0.14629   0.3098  0.33409     N
C        0.149   0.3713   0.2787     C
N       0.1498   0.8464    0.427     N
C       0.1515   0.7703   0.4652     C
C      0.15289  0.56886  0.83197     C
N       0.1536   0.0806   0.3034     N
H       0.1614   0.6187   0.5405     H
C       0.1616  0.24751  0.88011     C
C       0.1617   0.6923   0.5162     C
H       0.1618   0.4975   0.1695     H
C       0.1627   0.4389   0.2168     C
C       0.1628   0.5192   0.7138     C
N      0.16351   0.1878  0.35371     N
H       0.1643   0.5025    0.672     H
N      0.16591   0.3122  0.47571     N
H        0.167   0.9372   0.6262     H
H       0.1673   0.0997    0.573     H
H       0.1679   0.0577   0.9712     H
C      0.16803  0.23689  0.82092     C
C       0.1695   0.1371    0.565     C
H       0.1695   0.9975   0.1618     H
H        0.172   0.1643   0.0025     H
N      0.17549  0.93322  0.90665     N
C       0.1761   0.9838   0.6455     C
C       0.1779    0.245   0.5397     C
C      0.17908  0.91597  0.84711     C
H       0.1828   0.4027   0.4757     H
C       0.1856    0.878    0.496     C
C       0.1863   0.3051   0.5348     C
N       0.1878  0.85371  0.66351     N
H        0.189   0.7298   0.5628     H
C       0.1896    0.382    0.504     C
N       0.1902  0.83649  0.52429     N
C       0.1923   0.6617   0.0162     C
C       0.1924   0.3144   0.3104     C
C       0.1946   0.9808   0.1436     C
C       0.1949   0.8812   0.7297     C
H        0.195   0.4271   0.2081     H
N       0.1966   0.3502   0.2772     N
H       0.1967   0.0288   0.0865     H
N      0.19843  0.19959  0.61918     N
N      0.19959  0.11918  0.69843     N
C       0.2038   0.2531   0.6085     C
C       0.2053   0.6382   0.9603     C
H       0.2071    0.927   0.5243     H
H       0.2081   0.9271    0.195     H
C       0.2099    0.998   0.0971     C
C       0.2119   0.0991    0.002     C
C       0.2138   0.1628   0.0192     C
C       0.2168   0.9389   0.1627     C
C      0.21851  0.58591   0.8384     C
H        0.219   0.2919   0.9869     H
H       0.2199   0.2929   0.3172     H
C       0.2213   0.3703   0.5926     C
C       0.2221   0.2832   0.9459     C
C       0.2223   0.1297    0.351     C
N       0.2228   0.4194    0.573     N
C       0.2238   0.5611   0.7779     C
Zn     0.22586  0.22586  0.72586    Zn
C       0.2297   0.1949   0.3812     C
H       0.2298    0.689   0.0628     H
N      0.23116  0.25773  0.82451     N
H       0.2321   0.0131    0.305     H
C      0.23689  0.32092  0.66803     C
N      0.24227  0.97343  0.06678     N
C        0.245   0.0397   0.6779     C
C       0.2469   0.9507   0.8554     C
C      0.24751  0.38011   0.6616     C
Zn        0.25    0.875    0.625    Zn
C      0.25249  0.91409   0.1326     C
C       0.2531   0.1085   0.7038     C
C        0.255   0.9329   0.7947     C
N      0.25773  0.32451  0.73116     N
C      0.26311  0.93114  0.08403     C
H       0.2679   0.5729    0.781     H
N      0.26884  0.09335  0.02657     N
H       0.2702    0.333   0.4592     H
C       0.2703   0.6515   0.9652     C
Zn     0.27414     -0.0     -0.0    Zn
C       0.2762   0.0541   0.3373     C
N       0.2772   0.8502   0.1966     N
C       0.2777   0.6287   0.9074     C
C       0.2779   0.2238   0.0611     C
C       0.2787   0.8713    0.149     C
H       0.2801   0.5973    0.073     H
H        0.281   0.2679   0.0729     H
C      0.28149  0.11989   0.3674     C
C       0.2832   0.4459   0.7221     C
C       0.2862   0.3054    0.949     C
C       0.2881   0.2901   0.8872     C
C       0.2901   0.3872   0.7881     C
H       0.2919   0.4869    0.719     H
H       0.2929   0.8172   0.7199     H
C       0.2947    0.255   0.4329     C
C       0.2962   0.9047   0.0493     C
N      0.30041  0.99884  0.91959     N
N      0.30157  0.92075  0.00116     N
H       0.3033   0.3898   0.8321     H
N       0.3034   0.5806   0.1536     N
H        0.305   0.5131   0.2321     H
C       0.3051   0.0348   0.6863     C
C       0.3054    0.449   0.7862     C
C       0.3076    0.618    0.122     C
C       0.3077   0.3239   0.4694     C
N       0.3098  0.83409  0.64629     N
C       0.3104   0.8144   0.1924     C
H        0.311   0.8738   0.5408     H
N       0.3122  0.97571  0.66591     N
C       0.3137   0.8485   0.1188     C
C       0.3144   0.8104   0.6924     C
H       0.3172   0.7929   0.2199     H
C      0.32092  0.16803  0.73689     C
C       0.3221   0.8618   0.0671     C
C       0.3239   0.9694   0.8077     C
N      0.32451  0.23116  0.75773     N
H        0.328   0.3305   0.9923     H
H       0.3305   0.4923    0.828     H
C       0.3305   0.8955   0.9676     C
C      0.33197  0.15289  0.06886     C
H       0.3321   0.3033   0.8898     H
H       0.3327   0.9057   0.9324     H
H        0.333   0.9592   0.7702     H
N      0.33409   0.8098  0.14629     N
H       0.3357   0.0077   0.3382     H
N      0.33649   0.6902  0.02429     N
C       0.3372    0.051   0.3564     C
C       0.3373   0.5541   0.2762     C
H       0.3382   0.5077   0.3357     H
C       0.3383   0.8545   0.5306     C
C       0.3384  0.21851  0.08591     C
H       0.3386   0.8791   0.4573     H
N       0.3464   0.6498    0.927     N
C      0.34711  0.17908  0.41597     C
C       0.3485   0.8137   0.6188     C
N       0.3502   0.7772   0.6966     N
C        0.351   0.6297   0.2223     C
N      0.35371   0.6878  0.16351     N
C       0.3545   0.8383   0.0306     C
C       0.3548   0.8579   0.4819     C
C       0.3554   0.2469   0.4507     C
C       0.3564    0.551   0.3372     C
C       0.3579   0.8548   0.9819     C
C       0.3618   0.8221   0.5671     C
C       0.3629   0.0324   0.9279     C
C       0.3674  0.61989  0.28149     C
C       0.3703   0.0926   0.7213     C
C       0.3713   0.7787    0.649     C
C       0.3729    0.376   0.5181     C
H       0.3738    0.811   0.0408     H
Zn       0.375     0.75    0.125    Zn
C        0.376   0.0181   0.8729     C
C        0.378   0.6856    0.996     C
H       0.3791   0.8386   0.9573     H
C      0.38011   0.1616  0.74751     C
N      0.38082  0.08041  0.07925     N
C       0.3812   0.6949   0.2297     C
H       0.3813   0.4218   0.5427     H
C        0.382    0.004   0.6896     C
C       0.3872   0.2881   0.7901     C
H       0.3898   0.3321   0.8033     H
C       0.3915   0.1446   0.0953     C
C       0.3955   0.8305   0.4676     C
H       0.4003   0.0676   0.9733     H
C       0.4009   0.1128   0.4029     C
H       0.4027   0.9757   0.6828     H
C       0.4029   0.6128   0.4009     C
C       0.4047   0.7962   0.5493     C
H       0.4057   0.8327   0.4324     H
N      0.40665  0.17549  0.43322     N
C       0.4074   0.2777   0.1287     C
H       0.4135   0.6102   0.4423     H
C      0.41409  0.75249   0.6326     C
C      0.41597  0.67908  0.34711     C
N       0.4194    0.073   0.7228     N
N      0.41959  0.30041  0.49884     N
N      0.42075  0.80157  0.50116     N
H       0.4218   0.0427   0.8813     H
H        0.427   0.0267   0.0943     H
N        0.427   0.3464   0.1498     N
H        0.427   0.7071   0.0243     H
H       0.4271   0.7081    0.695     H
C       0.4279   0.3629   0.5324     C
C      0.43114  0.76311  0.58403     C
H       0.4324   0.3327   0.4057     H
C       0.4329    0.755   0.2947     C
N      0.43322  0.67549  0.40665     N
C        0.435   0.0721   0.1045     C
H       0.4372    0.667   0.1262     H
C       0.4389   0.7168   0.6627     C
H       0.4423   0.1102   0.4135     H
C       0.4459   0.2221   0.7832     C
C        0.449   0.2862   0.8054     C
C       0.4507   0.7469   0.3554     C
H       0.4573   0.3791   0.3386     H
H       0.4592    0.833   0.2702     H
H       0.4595   0.5782   0.1209     H
C       0.4603   0.2053   0.1382     C
C       0.4652   0.2703   0.1515     C
C       0.4676   0.3305   0.3955     C
C       0.4694   0.8239   0.3077     C
H       0.4712   0.1679   0.5577     H
H       0.4733   0.4003   0.5676     H
N      0.47343  0.74227  0.56678     N
H       0.4757   0.9027   0.1828     H
N      0.47571   0.8122  0.16591     N
C       0.4808   0.6946   0.6436     C
C       0.4819   0.3579   0.3548     C
C       0.4838   0.6761   0.1455     C
H       0.4869    0.219   0.7919     H
H       0.4923    0.328   0.8305     H
C        0.496    0.378   0.1856     C
C       0.4969    0.624   0.1421     C
H       0.4975   0.6695   0.6618     H
C        0.498   0.7099   0.5971     C
N      0.49884  0.80041  0.41959     N
Zn         0.5  0.27414      0.5    Zn
Zn         0.5  0.77414      0.5    Zn
N      0.50116  0.30157  0.42075     N
C        0.502   0.2119   0.5991     C
H       0.5025    0.172   0.6643     H
C       0.5031   0.1271   0.1452     C
C        0.504    0.882   0.1896     C
H       0.5077   0.8357   0.8382     H
H       0.5131   0.7321    0.805     H
C       0.5162   0.1923   0.1617     C
C       0.5181    0.876   0.3729     C
C       0.5192   0.2138   0.6628     C
N      0.52429  0.33649   0.1902     N
H       0.5243    0.427   0.2071     H
N      0.52657  0.26884  0.59335     N
H       0.5267    0.927   0.5943     H
H       0.5288   0.6967   0.5865     H
C       0.5306   0.3545   0.3383     C
C       0.5324   0.8629   0.4279     C
C       0.5348   0.8051   0.1863     C
C       0.5397    0.745   0.1779     C
H       0.5405   0.1187   0.1614     H
H       0.5408   0.3738    0.311     H
H       0.5427   0.9218   0.3813     H
C       0.5493   0.2962   0.4047     C
C        0.551   0.8372   0.8564     C
C       0.5541   0.7762   0.8373     C
H       0.5577   0.6679   0.4712     H
C       0.5611   0.2779   0.7238     C
H       0.5628   0.2298    0.189     H
C        0.565   0.6371   0.1695     C
N      0.56678  0.24227  0.47343     N
C       0.5671   0.3221   0.3618     C
H       0.5676   0.9003   0.4733     H
C      0.56886  0.33197  0.65289     C
C       0.5721    0.935   0.6045     C
H       0.5729    0.281   0.7679     H
H        0.573   0.2801   0.0973     H
H        0.573   0.5997   0.1673     H
N        0.573   0.9194   0.2228     N
H       0.5782   0.6209   0.9595     H
N      0.57925  0.38082  0.58041     N
N      0.58041  0.88082  0.57925     N
N       0.5806   0.6536   0.8034     N
C      0.58403  0.26311  0.43114     C
C      0.58591   0.3384  0.71851     C
H       0.5865   0.1967   0.5288     H
C       0.5926   0.8703   0.2213     C
N      0.59335  0.76884  0.52657     N
H       0.5943    0.427   0.5267     H
C       0.5953   0.3915   0.6446     C
C       0.5971   0.2099    0.498     C
H       0.5973    0.573   0.7801     H
C       0.5991   0.7119    0.502     C
H       0.5997   0.6673    0.073     H
C       0.6045    0.435   0.5721     C
C       0.6085   0.7531   0.2038     C
H       0.6102   0.9423   0.9135     H
C       0.6128   0.9009   0.9029     C
C        0.618    0.622   0.8076     C
H       0.6187   0.0405   0.6614     H
C       0.6188   0.3137   0.3485     C
N      0.61918  0.69959  0.19843     N
C      0.61989  0.78149   0.8674     C
H       0.6209   0.4595   0.0782     H
C        0.622   0.3076    0.118     C
C        0.624   0.6421   0.9969     C
Zn       0.625    0.375     0.25    Zn
H       0.6262   0.4372    0.167     H
C       0.6271   0.0031   0.6452     C
C       0.6287   0.4074   0.7777     C
C       0.6297   0.7223    0.851     C
C       0.6326  0.25249  0.41409     C
C       0.6371   0.6695    0.065     C
C       0.6382   0.4603   0.7053     C
C       0.6421   0.4969    0.124     C
C       0.6436   0.1946   0.4808     C
C       0.6446   0.8915   0.5953     C
C       0.6452   0.5031   0.6271     C
C       0.6455   0.4838   0.1761     C
N      0.64629  0.33409   0.3098     N
C        0.649   0.2787   0.3713     C
N       0.6498    0.427   0.8464     N
C       0.6515   0.4652   0.7703     C
C      0.65289  0.83197  0.56886     C
N       0.6536   0.3034   0.0806     N
H       0.6614   0.5405   0.6187     H
C       0.6616  0.88011  0.24751     C
C       0.6617   0.5162   0.6923     C
H       0.6618   0.1695   0.4975     H
C       0.6627   0.2168   0.4389     C
C       0.6628   0.7138   0.5192     C
N      0.66351  0.35371   0.1878     N
H       0.6643    0.672   0.5025     H
N      0.66591  0.47571   0.3122     N
H        0.667   0.6262   0.9372     H
H       0.6673    0.573   0.0997     H
H       0.6679   0.9712   0.0577     H
C      0.66803  0.82092  0.23689     C
H       0.6695   0.1618   0.9975     H
C       0.6695    0.565   0.1371     C
H        0.672   0.0025   0.1643     H
N      0.67549  0.90665  0.93322     N
C       0.6761   0.6455   0.9838     C
C       0.6779   0.5397    0.245     C
C      0.67908  0.84711  0.91597     C
H       0.6828   0.4757   0.4027     H
C       0.6856    0.496    0.878     C
C       0.6863   0.5348   0.3051     C
N       0.6878  0.66351  0.85371     N
H        0.689   0.5628   0.7298     H
C       0.6896    0.504    0.382     C
N       0.6902  0.52429  0.83649     N
C       0.6923   0.0162   0.6617     C
C       0.6924   0.3104   0.3144     C
C       0.6946   0.1436   0.9808     C
C       0.6949   0.7297   0.8812     C
H        0.695   0.2081   0.4271     H
N       0.6966   0.2772   0.3502     N
H       0.6967   0.0865   0.0288     H
N      0.69843  0.61918  0.19959     N
N      0.69959  0.69843  0.11918     N
C       0.7038   0.6085   0.2531     C
C       0.7053   0.9603   0.6382     C
H       0.7071   0.5243    0.927     H
H       0.7081    0.195   0.9271     H
C       0.7099   0.0971    0.998     C
C       0.7119    0.002   0.0991     C
C       0.7138   0.0192   0.1628     C
C       0.7168   0.1627   0.9389     C
C      0.71851   0.8384  0.58591     C
H        0.719   0.9869   0.2919     H
H       0.7199   0.3172   0.2929     H
C       0.7213   0.5926   0.3703     C
C       0.7221   0.9459   0.2832     C
C       0.7223    0.351   0.1297     C
N       0.7228    0.573   0.4194     N
C       0.7238   0.7779   0.5611     C
Zn     0.72586  0.72586  0.22586    Zn
C       0.7297   0.3812   0.1949     C
H       0.7298   0.0628    0.689     H
N      0.73116  0.82451  0.25773     N
H       0.7321    0.305   0.0131     H
C      0.73689  0.66803  0.32092     C
N      0.74227  0.06678  0.97343     N
C        0.745   0.6779   0.0397     C
C       0.7469   0.8554   0.9507     C
C      0.74751   0.6616  0.38011     C
Zn        0.75    0.625    0.875    Zn
C      0.75249   0.1326  0.91409     C
C       0.7531   0.7038   0.1085     C
C        0.755   0.7947   0.9329     C
N      0.75773  0.73116  0.32451     N
C      0.76311  0.08403  0.93114     C
H       0.7679    0.781   0.5729     H
N      0.76884  0.02657  0.09335     N
H       0.7702   0.4592    0.333     H
C       0.7703   0.9652   0.6515     C
Zn     0.77414     -0.0      1.0    Zn
C       0.7762   0.3373   0.0541     C
N       0.7772   0.1966   0.8502     N
C       0.7777   0.9074   0.6287     C
C       0.7779   0.0611   0.2238     C
C       0.7787    0.149   0.8713     C
H       0.7801    0.073   0.5973     H
H        0.781   0.0729   0.2679     H
C      0.78149   0.3674  0.11989     C
C       0.7832   0.7221   0.4459     C
C       0.7862    0.949   0.3054     C
C       0.7881   0.8872   0.2901     C
C       0.7901   0.7881   0.3872     C
H       0.7919    0.719   0.4869     H
H       0.7929   0.7199   0.8172     H
C       0.7947   0.4329    0.255     C
C       0.7962   0.0493   0.9047     C
N      0.80041  0.91959  0.99884     N
N      0.80157  0.00116  0.92075     N
H       0.8033   0.8321   0.3898     H
N       0.8034   0.1536   0.5806     N
H        0.805   0.2321   0.5131     H
C       0.8051   0.6863   0.0348     C
C       0.8054   0.7862    0.449     C
C       0.8076    0.122    0.618     C
C       0.8077   0.4694   0.3239     C
N       0.8098  0.64629  0.83409     N
C       0.8104   0.1924   0.8144     C
H        0.811   0.5408   0.8738     H
N       0.8122  0.66591  0.97571     N
C       0.8137   0.1188   0.8485     C
C       0.8144   0.6924   0.8104     C
H       0.8172   0.2199   0.7929     H
C      0.82092  0.73689  0.16803     C
C       0.8221   0.0671   0.8618     C
C       0.8239   0.8077   0.9694     C
N      0.82451  0.75773  0.23116     N
H        0.828   0.9923   0.3305     H
H       0.8305    0.828   0.4923     H
C       0.8305   0.9676   0.8955     C
C      0.83197  0.06886  0.15289     C
H       0.8321   0.8898   0.3033     H
H       0.8327   0.9324   0.9057     H
H        0.833   0.7702   0.9592     H
N      0.83409  0.14629   0.8098     N
H       0.8357   0.3382   0.0077     H
N      0.83649  0.02429   0.6902     N
C       0.8372   0.3564    0.051     C
C       0.8373   0.2762   0.5541     C
H       0.8382   0.3357   0.5077     H
C       0.8383   0.5306   0.8545     C
C       0.8384  0.08591  0.21851     C
H       0.8386   0.4573   0.8791     H
N       0.8464    0.927   0.6498     N
C      0.84711  0.41597  0.17908     C
C       0.8485   0.6188   0.8137     C
N       0.8502   0.6966   0.7772     N
C        0.851   0.2223   0.6297     C
N      0.85371  0.16351   0.6878     N
C       0.8545   0.0306   0.8383     C
C       0.8548   0.4819   0.8579     C
C       0.8554   0.4507   0.2469     C
C       0.8564   0.3372    0.551     C
C       0.8579   0.9819   0.8548     C
C       0.8618   0.5671   0.8221     C
C       0.8629   0.9279   0.0324     C
C       0.8674  0.28149  0.61989     C
C       0.8703   0.7213   0.0926     C
C       0.8713    0.649   0.7787     C
C       0.8729   0.5181    0.376     C
H       0.8738   0.0408    0.811     H
Zn       0.875    0.125     0.75    Zn
C        0.876   0.8729   0.0181     C
C        0.878    0.996   0.6856     C
H       0.8791   0.9573   0.8386     H
C      0.88011  0.74751   0.1616     C
N      0.88082  0.07925  0.08041     N
C       0.8812   0.2297   0.6949     C
H       0.8813   0.5427   0.4218     H
C        0.882   0.6896    0.004     C
C       0.8872   0.7901   0.2881     C
H       0.8898   0.8033   0.3321     H
C       0.8915   0.0953   0.1446     C
C       0.8955   0.4676   0.8305     C
H       0.9003   0.9733   0.0676     H
C       0.9009   0.4029   0.1128     C
H       0.9027   0.6828   0.9757     H
C       0.9029   0.4009   0.6128     C
C       0.9047   0.5493   0.7962     C
H       0.9057   0.4324   0.8327     H
N      0.90665  0.43322  0.17549     N
C       0.9074   0.1287   0.2777     C
H       0.9135   0.4423   0.6102     H
C      0.91409   0.6326  0.75249     C
C      0.91597  0.34711  0.67908     C
N       0.9194   0.7228    0.073     N
N      0.91959  0.49884  0.30041     N
N      0.92075  0.50116  0.80157     N
H       0.9218   0.8813   0.0427     H
H        0.927   0.0243   0.7071     H
H        0.927   0.0943   0.0267     H
N        0.927   0.1498   0.3464     N
H       0.9271    0.695   0.7081     H
C       0.9279   0.5324   0.3629     C
C      0.93114  0.58403  0.76311     C
H       0.9324   0.4057   0.3327     H
C       0.9329   0.2947    0.755     C
N      0.93322  0.40665  0.67549     N
C        0.935   0.1045   0.0721     C
H       0.9372   0.1262    0.667     H
C       0.9389   0.6627   0.7168     C
H       0.9423   0.4135   0.1102     H
C       0.9459   0.7832   0.2221     C
C        0.949   0.8054   0.2862     C
C       0.9507   0.3554   0.7469     C
H       0.9573   0.3386   0.3791     H
H       0.9592   0.2702    0.833     H
H       0.9595   0.1209   0.5782     H
C       0.9603   0.1382   0.2053     C
C       0.9652   0.1515   0.2703     C
C       0.9676   0.3955   0.3305     C
C       0.9694   0.3077   0.8239     C
H       0.9712   0.5577   0.1679     H
H       0.9733   0.5676   0.4003     H
N      0.97343  0.56678  0.74227     N
H       0.9757   0.1828   0.9027     H
N      0.97571  0.16591   0.8122     N
C       0.9808   0.6436   0.6946     C
C       0.9819   0.3548   0.3579     C
C       0.9838   0.1455   0.6761     C
H       0.9869   0.7919    0.219     H
H       0.9923   0.8305    0.328     H
C        0.996   0.1856    0.378     C
C       0.9969   0.1421    0.624     C
H       0.9975   0.6618   0.6695     H
C        0.998   0.5971   0.7099     C
N      0.99884  0.41959  0.80041     N
