data_I
_chemical_name_common  '/home/zhangsd/repos/MofS-CGCNN/ML/data/SSD/clean_cifs/HADYAP_clean'
_cell_length_a  8.29650
_cell_length_b  8.58330
_cell_length_c  9.87600
_cell_angle_alpha 96.56400
_cell_angle_beta  102.93800
_cell_angle_gamma 94.19900
_space_group_name_H-M_alt      'P 1'


loop_
_space_group_symop_operation_xyz
  'x, y, z' 

loop_
_atom_site_label
_atom_site_fract_x
_atom_site_fract_y
_atom_site_fract_z
_atom_site_type_symbol
Co         0.0      0.0      0.0    Co
Co         0.0      0.5      0.5    Co
O       0.1733   0.0016   0.1917     O
O       0.1772   0.6954   0.5177     O
C       0.2757   0.9065   0.2266     C
O       0.2828   0.7782   0.1536     O
C       0.2887   0.7028   0.4514     C
O       0.3132   0.5912   0.3681     O
C       0.3959   0.9503    0.368     C
C       0.3994    0.856   0.4745     C
U      0.42066  0.54345  0.16583     U
O       0.4314    0.621   0.9525     O
O       0.4721   0.3322   0.2996     O
O       0.4856   0.8758   0.8375     O
C       0.4958   0.1898   0.2739     C
C       0.4973   0.0923   0.3925     C
C       0.5027   0.9077   0.6075     C
C       0.5042   0.8102   0.7261     C
O       0.5144   0.1242   0.1625     O
O       0.5279   0.6678   0.7004     O
O       0.5686    0.379   0.0475     O
U      0.57934  0.45655  0.83417     U
C       0.6006    0.144   0.5255     C
C       0.6041   0.0497    0.632     C
O       0.6868   0.4088   0.6319     O
C       0.7113   0.2972   0.5486     C
O       0.7172   0.2218   0.8464     O
C       0.7243   0.0935   0.7734     C
O       0.8228   0.3046   0.4823     O
O       0.8267   0.9984   0.8083     O
