data_I
_chemical_name_common  '/home/zhangsd/repos/MofS-CGCNN/ML/data/SSD/clean_cifs/HAHPOW_clean'
_cell_length_a 21.59900
_cell_length_b 21.59900
_cell_length_c 12.19600
_cell_angle_alpha 90.00000
_cell_angle_beta  90.00000
_cell_angle_gamma 120.00000
_space_group_name_H-M_alt      'P 1'


loop_
_space_group_symop_operation_xyz
  'x, y, z' 

loop_
_atom_site_label
_atom_site_fract_x
_atom_site_fract_y
_atom_site_fract_z
_atom_site_type_symbol
Ag         0.0  0.49879      0.0    Ag
Ag         0.0  0.50121      0.5    Ag
C       0.0013   0.4027   0.7092     C
C       0.0013   0.5986   0.7908     C
H       0.0155   0.4503   0.2873     H
H       0.0155   0.5652   0.2127     H
C       0.0189   0.3064   0.2641     C
C       0.0189   0.7125   0.2359     C
C        0.041   0.3753   0.2548     C
C        0.041   0.6657   0.2452     C
C       0.0474   0.3046   0.7042     C
C       0.0474   0.7428   0.7958     C
H       0.0511   0.2911   0.2478     H
H       0.0511     0.76   0.2522     H
H       0.0636   0.2721   0.7083     H
H       0.0636   0.7915   0.7917     H
H       0.0692   0.4156   0.9181     H
H       0.0692   0.6536   0.5819     H
C       0.0703   0.4255   0.6667     C
C       0.0703   0.6448   0.8333     C
H       0.0806   0.3203   0.9804     H
H       0.0806   0.7603   0.5196     H
H       0.0853    0.406   0.2238     H
H       0.0853   0.6793   0.2762     H
C       0.0919   0.3761   0.6636     C
C       0.0919   0.7158   0.8364     C
N       0.0972   0.5434   0.5829     N
N       0.0972   0.5538   0.9171     N
C       0.1087   0.4239   0.9596     C
C       0.1087   0.6848   0.5404     C
C       0.1147   0.3671   0.9978     C
C       0.1147   0.7476   0.5022     C
C       0.1176   0.4992   0.6344     C
C       0.1176   0.6184   0.8656     C
H       0.1365    0.389   0.6345     H
H       0.1365   0.7475   0.8655     H
C        0.158   0.5553   0.9321     C
C        0.158   0.6027   0.5679     C
C       0.1627   0.4953   0.9835     C
C       0.1627   0.6674   0.5165     C
H       0.1632   0.3457   0.4039     H
H       0.1632   0.8175   0.0961     H
C       0.1774   0.3829   0.0679     C
C       0.1774   0.7945   0.4321     C
H       0.1825   0.3457   0.0961     H
H       0.1825   0.8368   0.4039     H
N       0.1878   0.5341   0.6501     N
N       0.1878   0.6537   0.8499     N
H       0.1947    0.459   0.3658     H
H       0.1947   0.7357   0.1342     H
C       0.2055   0.3829   0.4321     C
C       0.2055   0.8226   0.0679     C
H       0.2085   0.2721   0.7917     H
H       0.2085   0.9364   0.7083     H
N        0.214   0.6027   0.6073     N
N        0.214   0.6113   0.8927     N
C       0.2204   0.5071   0.0483     C
C       0.2204   0.7133   0.4517     C
C       0.2242   0.4498   0.4103     C
C       0.2242   0.7744   0.0897     C
C       0.2256   0.4498   0.0897     C
C       0.2256   0.7758   0.4103     C
H       0.2397   0.3203   0.5196     H
H       0.2397   0.9194   0.9804     H
H         0.24   0.2911   0.2522     H
H         0.24   0.9489   0.2478     H
C       0.2524   0.3671   0.5022     C
C       0.2524   0.8853   0.9978     C
H       0.2525    0.389   0.8655     H
H       0.2525   0.8635   0.6345     H
H       0.2559   0.5537   0.0642     H
H       0.2559   0.7022   0.4358     H
C       0.2572   0.3046   0.7958     C
C       0.2572   0.9526   0.7042     C
Ag     0.25981  0.51962     0.75    Ag
Ag     0.25981  0.74019     0.75    Ag
H       0.2643    0.459   0.1342     H
H       0.2643   0.8053   0.3658     H
H       0.2721   0.0636   0.2917     H
H       0.2721   0.2085   0.2083     H
C       0.2842   0.3761   0.8364     C
C       0.2842   0.9081   0.6636     C
C       0.2867   0.5071   0.4517     C
C       0.2867   0.7796   0.0483     C
C       0.2875   0.3064   0.2359     C
C       0.2875   0.9811   0.2641     C
H       0.2911   0.0511   0.7522     H
H       0.2911     0.24   0.7478     H
H       0.2978   0.5537   0.4358     H
H       0.2978   0.7441   0.0642     H
C       0.3046   0.0474   0.2958     C
C       0.3046   0.2572   0.2042     C
C       0.3064   0.0189   0.7359     C
C       0.3064   0.2875   0.7641     C
C       0.3152   0.4239   0.5404     C
C       0.3152   0.8913   0.9596     C
H       0.3203   0.0806   0.0196     H
H       0.3203   0.2397   0.4804     H
H       0.3207    0.406   0.2762     H
H       0.3207   0.9147   0.2238     H
C       0.3326   0.4953   0.5165     C
C       0.3326   0.8373   0.9835     C
Ag     0.33333  0.66667   0.6013    Ag
Ag     0.33333  0.66667   0.8987    Ag
C       0.3343   0.3753   0.2452     C
C       0.3343    0.959   0.2548     C
H       0.3457   0.1632   0.5961     H
H       0.3457   0.1825   0.9039     H
N       0.3463   0.5341   0.8499     N
N       0.3463   0.8122   0.6501     N
H       0.3464   0.4156   0.5819     H
H       0.3464   0.9308   0.9181     H
C       0.3552   0.4255   0.8333     C
C       0.3552   0.9297   0.6667     C
C       0.3671   0.1147   0.0022     C
C       0.3671   0.2524   0.4978     C
C       0.3753    0.041   0.7452     C
C       0.3753   0.3343   0.7548     C
C       0.3761   0.0919   0.3364     C
C       0.3761   0.2842   0.1636     C
C       0.3816   0.4992   0.8656     C
C       0.3816   0.8824   0.6344     C
C       0.3829   0.1774   0.9321     C
C       0.3829   0.2055   0.5679     C
N       0.3887   0.6027   0.8927     N
N       0.3887    0.786   0.6073     N
H        0.389   0.1365   0.3655     H
H        0.389   0.2525   0.1345     H
C       0.3973   0.5553   0.5679     C
N       0.3973   0.6113   0.6073     N
N       0.3973    0.786   0.8927     N
C       0.3973    0.842   0.9321     C
C       0.4014   0.4027   0.7908     C
C       0.4014   0.9987   0.7092     C
C       0.4027   0.0013   0.2908     C
C       0.4027   0.4014   0.2092     C
H        0.406   0.0853   0.7762     H
H        0.406   0.3207   0.7238     H
H       0.4156   0.0692   0.0819     H
H       0.4156   0.3464   0.4181     H
C       0.4239   0.1087   0.0404     C
C       0.4239   0.3152   0.4596     C
C       0.4255   0.0703   0.3333     C
C       0.4255   0.3552   0.1667     C
H       0.4348   0.4503   0.2127     H
H       0.4348   0.9845   0.2873     H
C       0.4447   0.6027   0.9321     C
C       0.4447    0.842   0.5679     C
N       0.4462   0.5434   0.9171     N
N       0.4462   0.9028   0.5829     N
H       0.4463   0.7022   0.0642     H
H       0.4463   0.7441   0.4358     H
C       0.4498   0.2242   0.5897     C
C       0.4498   0.2256   0.9103     C
H       0.4503   0.0155   0.7127     H
H       0.4503   0.4348   0.7873     H
N       0.4566   0.5538   0.5829     N
N       0.4566   0.9028   0.9171     N
H        0.459   0.1947   0.6342     H
H        0.459   0.2643   0.8658     H
N       0.4659   0.6537   0.6501     N
N       0.4659   0.8122   0.8499     N
Ag     0.48038  0.74019     0.75    Ag
C       0.4929   0.7133   0.0483     C
C       0.4929   0.7796   0.4517     C
C       0.4953   0.1627   0.0165     C
C       0.4953   0.3326   0.4835     C
Ag     0.49879      0.0      0.0    Ag
Ag     0.49879  0.49879      0.5    Ag
C       0.4992   0.1176   0.3656     C
C       0.4992   0.3816   0.1344     C
C       0.5008   0.6184   0.6344     C
C       0.5008   0.8824   0.8656     C
Ag     0.50121      0.0      0.5    Ag
Ag     0.50121  0.50121      0.0    Ag
C       0.5047   0.6674   0.9835     C
C       0.5047   0.8373   0.5165     C
C       0.5071   0.2204   0.9517     C
C       0.5071   0.2867   0.5483     C
Ag     0.51962  0.25981     0.25    Ag
N       0.5341   0.1878   0.3499     N
N       0.5341   0.3463   0.1501     N
H        0.541   0.7357   0.3658     H
H        0.541   0.8053   0.1342     H
N       0.5434   0.0972   0.4171     N
N       0.5434   0.4462   0.0829     N
H       0.5497   0.5652   0.2873     H
H       0.5497   0.9845   0.2127     H
C       0.5502   0.7744   0.4103     C
C       0.5502   0.7758   0.0897     C
H       0.5537   0.2559   0.9358     H
H       0.5537   0.2978   0.5642     H
N       0.5538   0.0972   0.0829     N
N       0.5538   0.4566   0.4171     N
C       0.5553    0.158   0.0679     C
C       0.5553   0.3973   0.4321     C
H       0.5652   0.0155   0.7873     H
H       0.5652   0.5497   0.7127     H
C       0.5745   0.6448   0.6667     C
C       0.5745   0.9297   0.8333     C
C       0.5761   0.6848   0.9596     C
C       0.5761   0.8913   0.5404     C
H       0.5844   0.6536   0.9181     H
H       0.5844   0.9308   0.5819     H
H        0.594   0.6793   0.2238     H
H        0.594   0.9147   0.2762     H
C       0.5973   0.5986   0.7092     C
C       0.5973   0.9987   0.7908     C
C       0.5986   0.0013   0.2092     C
C       0.5986   0.5973   0.2908     C
C       0.6027    0.158   0.4321     C
N       0.6027    0.214   0.3927     N
N       0.6027   0.3887   0.1073     N
C       0.6027   0.4447   0.0679     C
H        0.611   0.7475   0.6345     H
H        0.611   0.8635   0.8655     H
N       0.6113    0.214   0.1073     N
N       0.6113   0.3973   0.3927     N
C       0.6171   0.7945   0.0679     C
C       0.6171   0.8226   0.4321     C
C       0.6184   0.1176   0.1344     C
C       0.6184   0.5008   0.3656     C
C       0.6239   0.7158   0.6636     C
C       0.6239   0.9081   0.8364     C
C       0.6247   0.6657   0.2548     C
C       0.6247    0.959   0.2452     C
C       0.6329   0.7476   0.9978     C
C       0.6329   0.8853   0.5022     C
C       0.6448   0.0703   0.1667     C
C       0.6448   0.5745   0.3333     C
H       0.6536   0.0692   0.4181     H
H       0.6536   0.5844   0.0819     H
N       0.6537   0.1878   0.1501     N
N       0.6537   0.4659   0.3499     N
H       0.6543   0.8175   0.4039     H
H       0.6543   0.8368   0.0961     H
C       0.6657    0.041   0.7548     C
C       0.6657   0.6247   0.7452     C
Ag     0.66667  0.33333   0.1013    Ag
Ag     0.66667  0.33333   0.3987    Ag
C       0.6674   0.1627   0.4835     C
C       0.6674   0.5047   0.0165     C
H       0.6793   0.0853   0.7238     H
H       0.6793    0.594   0.7762     H
H       0.6797   0.7603   0.9804     H
H       0.6797   0.9194   0.5196     H
C       0.6848   0.1087   0.4596     C
C       0.6848   0.5761   0.0404     C
C       0.6936   0.7125   0.2641     C
C       0.6936   0.9811   0.2359     C
C       0.6954   0.7428   0.7042     C
C       0.6954   0.9526   0.7958     C
H       0.7022   0.2559   0.5642     H
H       0.7022   0.4463   0.9358     H
H       0.7089     0.76   0.2478     H
H       0.7089   0.9489   0.2522     H
C       0.7125   0.0189   0.7641     C
C       0.7125   0.6936   0.7359     C
C       0.7133   0.2204   0.5483     C
C       0.7133   0.4929   0.9517     C
C       0.7158   0.0919   0.1636     C
C       0.7158   0.6239   0.3364     C
H       0.7279   0.7915   0.7083     H
H       0.7279   0.9364   0.7917     H
H       0.7357   0.1947   0.8658     H
H       0.7357    0.541   0.6342     H
Ag     0.74019  0.25981     0.25    Ag
Ag     0.74019  0.48038     0.25    Ag
C       0.7428   0.0474   0.2042     C
C       0.7428   0.6954   0.2958     C
H       0.7441   0.2978   0.9358     H
H       0.7441   0.4463   0.5642     H
H       0.7475   0.1365   0.1345     H
H       0.7475    0.611   0.3655     H
C       0.7476   0.1147   0.4978     C
C       0.7476   0.6329   0.0022     C
H         0.76   0.0511   0.7478     H
H         0.76   0.7089   0.7522     H
H       0.7603   0.0806   0.4804     H
H       0.7603   0.6797   0.0196     H
C       0.7744   0.2242   0.9103     C
C       0.7744   0.5502   0.5897     C
C       0.7758   0.2256   0.5897     C
C       0.7758   0.5502   0.9103     C
C       0.7796   0.2867   0.9517     C
C       0.7796   0.4929   0.5483     C
N        0.786   0.3887   0.3927     N
N        0.786   0.3973   0.1073     N
H       0.7915   0.0636   0.2083     H
H       0.7915   0.7279   0.2917     H
C       0.7945   0.1774   0.5679     C
C       0.7945   0.6171   0.9321     C
H       0.8053   0.2643   0.6342     H
H       0.8053    0.541   0.8658     H
N       0.8122   0.3463   0.3499     N
N       0.8122   0.4659   0.1501     N
H       0.8175   0.1632   0.9039     H
H       0.8175   0.6543   0.5961     H
C       0.8226   0.2055   0.9321     C
C       0.8226   0.6171   0.5679     C
H       0.8368   0.1825   0.5961     H
H       0.8368   0.6543   0.9039     H
C       0.8373   0.3326   0.0165     C
C       0.8373   0.5047   0.4835     C
C        0.842   0.3973   0.0679     C
C        0.842   0.4447   0.4321     C
H       0.8635   0.2525   0.3655     H
H       0.8635    0.611   0.1345     H
C       0.8824   0.3816   0.3656     C
C       0.8824   0.5008   0.1344     C
C       0.8853   0.2524   0.0022     C
C       0.8853   0.6329   0.4978     C
C       0.8913   0.3152   0.0404     C
C       0.8913   0.5761   0.4596     C
N       0.9028   0.4462   0.4171     N
N       0.9028   0.4566   0.0829     N
C       0.9081   0.2842   0.3364     C
C       0.9081   0.6239   0.1636     C
H       0.9147   0.3207   0.7762     H
H       0.9147    0.594   0.7238     H
H       0.9194   0.2397   0.0196     H
H       0.9194   0.6797   0.4804     H
C       0.9297   0.3552   0.3333     C
C       0.9297   0.5745   0.1667     C
H       0.9308   0.3464   0.0819     H
H       0.9308   0.5844   0.4181     H
H       0.9364   0.2085   0.2917     H
H       0.9364   0.7279   0.2083     H
H       0.9489     0.24   0.7522     H
H       0.9489   0.7089   0.7478     H
C       0.9526   0.2572   0.2958     C
C       0.9526   0.6954   0.2042     C
C        0.959   0.3343   0.7452     C
C        0.959   0.6247   0.7548     C
C       0.9811   0.2875   0.7359     C
C       0.9811   0.6936   0.7641     C
H       0.9845   0.4348   0.7127     H
H       0.9845   0.5497   0.7873     H
C       0.9987   0.4014   0.2908     C
C       0.9987   0.5973   0.2092     C
