data_I
_chemical_name_common  '/home/zhangsd/repos/MofS-CGCNN/ML/data/SSD/clean_cifs/HAJLIO_clean'
_cell_length_a 10.94630
_cell_length_b 15.04630
_cell_length_c 15.04630
_cell_angle_alpha 65.68270
_cell_angle_beta  75.96580
_cell_angle_gamma 104.03400
_space_group_name_H-M_alt      'P 1'


loop_
_space_group_symop_operation_xyz
  'x, y, z' 

loop_
_atom_site_label
_atom_site_fract_x
_atom_site_fract_y
_atom_site_fract_z
_atom_site_type_symbol
Fe         0.0      0.0      0.5    Fe
Fe         0.0      0.5      0.0    Fe
H       0.0084   0.3684   0.8661     H
N      0.00841  0.35187  0.04465     N
C      0.01332  0.73831  0.91305     C
H       0.0191   0.6323   0.3494     H
H       0.0268   0.7152    0.237     H
H        0.031   0.2375   0.5324     H
N        0.032   0.5905    0.163     N
C      0.03371  0.29389  0.46786     C
H       0.0417   0.2725   0.4141     H
S      0.04705  0.86505  0.85457     S
N      0.04883  0.51429  0.14076     N
H       0.0502    0.693   0.5166     H
N      0.05306  0.04465  0.60348     N
C      0.07236  0.67203  0.27285     C
C      0.07363  0.08695  0.65136     C
C      0.08337   0.5969  0.23399     C
S      0.09838  0.14543  0.71962     S
H       0.1116   0.8775   0.6589     H
C      0.11615  0.47259  0.19974     C
H       0.1187   0.3249   0.2658     H
H       0.1255   0.1339   0.2345     H
H       0.1286   0.3692   0.1466     H
C      0.13992  0.52154  0.26018     C
C       0.1528  0.39172  0.42802     C
H       0.1533   0.5821   0.5876     H
N      0.15442  0.92428  0.50672     N
N      0.15762  0.87435  0.60433     N
C      0.15934  0.38747  0.19505     C
H        0.164   0.7182   0.2577     H
S        0.182  0.28038  0.86505     S
N      0.18959  0.14076  0.34495     N
N        0.195    0.163   0.2465     N
C      0.19975   0.4915  0.34075     C
H       0.2062   0.5907   0.6751     H
H       0.2065   0.7699   0.7625     H
H       0.2131   0.9836   0.3111     H
C      0.22813  0.58252  0.61253     C
H       0.2295   0.3411   0.5364     H
H       0.2295   0.7053   0.9836     H
N      0.23014    0.569  0.92428     N
H       0.2308   0.6866   0.7275     H
H       0.2341   0.4636   0.8775     H
H       0.2352    0.879   0.3217     H
C      0.23687  0.89905  0.44774     C
N      0.23805  0.39567  0.47868     N
C      0.23892  0.81974  0.60828     C
H       0.2406   0.5158   0.6308     H
H       0.2591   0.4124   0.1697     H
C      0.26018  0.76175  0.70611     C
H       0.2638    0.237   0.0478     H
C      0.26421  0.93898  0.33305     C
C      0.27501  0.34864  0.73831     C
H       0.2752   0.1466   0.4842     H
N      0.28327  0.52132  0.87435     N
C      0.29175  0.83225   0.5085     C
H       0.3116   0.0478   0.7152     H
C      0.31539  0.55226  0.34679     C
C      0.31589  0.19974  0.32767     C
C      0.31736  0.23399  0.16911     C
C      0.32523  0.72797  0.93898     C
C      0.33782  0.65321  0.89905     C
N      0.33886  0.49328    0.431     N
N      0.34346  0.39652  0.64813     N
C      0.34521  0.27285  0.05512     C
H       0.3469    0.709   0.2716     H
C      0.35439  0.19505  0.41748     C
H       0.3562   0.7993    0.879     H
C      0.35644  0.67233  0.52741     C
H       0.3572   0.7904    0.693     H
H         0.36   0.2345   0.6316     H
H       0.3621   0.9806    0.291     H
H       0.3685   0.3494   0.0183     H
H       0.3815   0.7284   0.9806     H
C      0.38162  0.78172  0.47846     C
H       0.3845   0.2658   0.4093     H
H       0.3868   0.0183   0.6323     H
C       0.4001  0.26018  0.21828     C
C      0.40033  0.05512  0.67203     C
C      0.40274  0.66695  0.27203     C
C      0.41918  0.57198  0.81974     C
H       0.4217   0.2577   0.0241     H
H       0.4288   0.1697   0.4179     H
H       0.4332   0.4834   0.2096     H
H       0.4366   0.4676   0.7699     H
N       0.4415   0.2465   0.5905     N
H       0.4431   0.6783   0.2007     H
H       0.4458   0.0241   0.7182     H
H       0.4558   0.4141   0.3134     H
C       0.4595  0.65925  0.83225     C
N      0.46546  0.65505  0.48571     N
H       0.4758   0.6889   0.2947     H
C      0.48647  0.16911   0.5969     C
C      0.49843  0.53214  0.76175     C
Fe         0.5      0.5      0.5    Fe
C      0.50157  0.46786  0.23825     C
C      0.51353  0.83089   0.4031     C
H       0.5242   0.3111   0.7053     H
N      0.53454  0.34495  0.51429     N
C       0.5405  0.34075  0.16775     C
H       0.5442   0.5859   0.6866     H
H       0.5542   0.9759   0.2818     H
H       0.5569   0.3217   0.7993     H
N       0.5585   0.7535   0.4095     N
H       0.5634   0.5324   0.2301     H
H       0.5668   0.5166   0.7904     H
H       0.5712   0.8303   0.5821     H
H       0.5783   0.7423   0.9759     H
C      0.58082  0.42802  0.18026     C
C      0.59726  0.33305  0.72797     C
C      0.59967  0.94488  0.32797     C
C       0.5999  0.73982  0.78172     C
H       0.6132   0.9817   0.3677     H
H       0.6155   0.7342   0.5907     H
C      0.61838  0.21828  0.52154     C
H       0.6185   0.2716   0.0194     H
H       0.6315   0.6506   0.9817     H
H       0.6379   0.0194    0.709     H
H         0.64   0.7655   0.3684     H
H       0.6428   0.2096    0.307     H
C      0.64356  0.32767  0.47259     C
H       0.6438   0.2007    0.121     H
C      0.64561  0.80495  0.58252     C
H       0.6531    0.291   0.7284     H
C      0.65479  0.72715  0.94488     C
N      0.65654  0.60348  0.35187     N
N      0.66114  0.50672    0.569     N
C      0.66218  0.34679  0.10095     C
C      0.67477  0.27203  0.06102     C
C      0.68264  0.76601  0.83089     C
C      0.68411  0.80026  0.67233     C
C      0.68461  0.44774  0.65321     C
H       0.6884   0.9522   0.2848     H
C      0.70825  0.16775   0.4915     C
N      0.71673  0.47868  0.12565     N
H       0.7248   0.8534   0.5158     H
C      0.72499  0.65136  0.26169     C
C      0.73579  0.06102  0.66695     C
H       0.7362    0.763   0.9522     H
C      0.73982  0.23825  0.29389     C
H       0.7409   0.5876   0.8303     H
H       0.7594   0.4842   0.3692     H
C      0.76108  0.18026  0.39172     C
N      0.76195  0.60433  0.52132     N
C      0.76313  0.10095  0.55226     C
H       0.7648    0.121   0.6783     H
H       0.7659   0.5364   0.1225     H
H       0.7692   0.3134   0.2725     H
N      0.76986    0.431  0.07572     N
H       0.7705   0.2947   0.0164     H
H       0.7705   0.6589   0.4636     H
C      0.77187  0.41748  0.38747     C
H       0.7869   0.0164   0.6889     H
H       0.7935   0.2301   0.2375     H
H       0.7938   0.4093   0.3249     H
C      0.80025   0.5085  0.65925     C
N        0.805    0.837   0.7535     N
N      0.81041  0.85924  0.65505     N
S        0.818  0.71962  0.13495     S
H        0.836   0.2818   0.7423     H
C      0.84066  0.61253  0.80495     C
N      0.84238  0.12565  0.39567     N
N      0.84558  0.07572  0.49328     N
H       0.8467   0.4179   0.4124     H
C       0.8472  0.60828  0.57198     C
C      0.86008  0.47846  0.73982     C
H       0.8714   0.6308   0.8534     H
H       0.8745   0.8661   0.7655     H
H       0.8813   0.6751   0.7342     H
C      0.88385  0.52741  0.80026     C
H       0.8884   0.1225   0.3411     H
S      0.90162  0.85457  0.28038     S
C      0.91663   0.4031  0.76601     C
C      0.92637  0.91305  0.34864     C
C      0.92764  0.32797  0.72715     C
N      0.94694  0.95535  0.39652     N
H       0.9498    0.307   0.4834     H
N      0.95117  0.48571  0.85924     N
S      0.95295  0.13495  0.14543     S
H       0.9583   0.7275   0.5859     H
C      0.96629  0.70611  0.53214     C
N        0.968   0.4095    0.837     N
H        0.969   0.7625   0.4676     H
H       0.9732   0.2848    0.763     H
H       0.9809   0.3677   0.6506     H
C      0.98668  0.26169  0.08695     C
N      0.99159  0.64813  0.95535     N
H       0.9916   0.6316   0.1339     H
