data_I
_chemical_name_common  '/home/zhangsd/repos/MofS-CGCNN/ML/data/SSD/clean_cifs/HAJMEL_clean'
_cell_length_a 11.02150
_cell_length_b 15.14860
_cell_length_c 15.14860
_cell_angle_alpha 65.68350
_cell_angle_beta  75.96470
_cell_angle_gamma 104.03500
_space_group_name_H-M_alt      'P 1'


loop_
_space_group_symop_operation_xyz
  'x, y, z' 

loop_
_atom_site_label
_atom_site_fract_x
_atom_site_fract_y
_atom_site_fract_z
_atom_site_type_symbol
Fe         0.0      0.0      0.5    Fe
Fe         0.0      0.5      0.0    Fe
H       0.0091   0.3719   0.8606     H
N      0.01016  0.35341  0.04283     N
C      0.01205  0.73596  0.91481     C
H       0.0186   0.6295   0.3505     H
H       0.0266   0.7112   0.2417     H
N      0.03197  0.58917  0.16626     N
H       0.0345   0.2416   0.5287     H
C       0.0372   0.2966   0.4658     C
H       0.0444   0.6906    0.519     H
H       0.0449   0.2758   0.4135     H
S      0.04515  0.86063  0.85657     S
N      0.05055  0.51523  0.14218     N
N      0.05299  0.04283  0.60376     N
C        0.071    0.669   0.2763     C
C      0.07314  0.08519  0.65077     C
C       0.0836   0.5956   0.2359     C
S      0.09828  0.14343   0.7172     S
C       0.1194  0.47509  0.19969     C
H       0.1279   0.3313   0.2605     H
H       0.1303   0.1394   0.2325     H
H       0.1354   0.3754    0.145     H
C      0.14155  0.52265   0.2603     C
N      0.15234  0.92216  0.50604     N
C      0.15574  0.39388  0.42616     C
H       0.1563   0.5854    0.581     H
N      0.15673  0.87412  0.60203     N
H       0.1597   0.7139   0.2624     H
C       0.1654   0.3929   0.1922     C
S      0.18452   0.2828  0.86063     S
N      0.19273  0.14218  0.34259     N
N      0.19823  0.16626  0.24457     N
C      0.20202  0.49232  0.33986     C
H       0.2034   0.5918   0.6687     H
H       0.2071   0.7703   0.7584     H
H       0.2102    0.979   0.3128     H
C       0.2275   0.5851   0.6071     C
N      0.23018   0.5718  0.92216     N
H       0.2309   0.6893   0.7242     H
H       0.2309   0.8767   0.3239     H
H       0.2312   0.7082    0.979     H
C      0.23411  0.89724  0.44731     C
C      0.23814  0.82004  0.60612     C
H         0.24   0.5204   0.6246     H
N      0.24124  0.39797  0.47615     N
C       0.2594   0.7624   0.7034     C
C       0.2599   0.9356   0.3342     C
H       0.2627    0.419   0.1664     H
H       0.2683   0.2417   0.0471     H
C      0.27609  0.34923  0.73596     C
H       0.2804    0.145   0.4796     H
N      0.28261  0.52385  0.87412     N
C       0.2903  0.83218  0.50768     C
H       0.3154   0.0471   0.7112     H
C      0.31858  0.55269  0.34455     C
C      0.31909  0.19969  0.32522     C
C       0.3195   0.2359   0.1685     C
C       0.3243   0.7302   0.9356     C
C      0.33687  0.65545  0.89724     C
N      0.34162  0.49396   0.4282     N
N      0.34325  0.39624  0.64659     N
C       0.3473   0.2763   0.0547     C
H       0.3521   0.7072   0.2686     H
H       0.3538   0.7904   0.6906     H
H       0.3542   0.7994   0.8767     H
H       0.3551   0.9758   0.2928     H
C      0.35569  0.67478  0.52491     C
C       0.3576   0.1922   0.4149     C
H       0.3628   0.2325   0.6281     H
H       0.3691   0.3505     0.02     H
H       0.3793   0.7314   0.9758     H
C       0.3811  0.78295  0.47735     C
H       0.3884   0.2605   0.4082     H
H       0.3891     0.02   0.6295     H
C      0.40185   0.2603  0.21705     C
C        0.402   0.0547    0.669     C
C       0.4059   0.6658   0.2698     C
C       0.4181  0.57384  0.82004     C
H       0.4221   0.2624   0.0237     H
H       0.4291   0.1664   0.4146     H
H       0.4366    0.481   0.2096     H
H       0.4368   0.4713   0.7703     H
N       0.4428  0.24457  0.58917     N
H       0.4452   0.6761   0.2006     H
H       0.4458   0.0237   0.7139     H
C      0.45812  0.66014  0.83218     C
H       0.4584   0.4135   0.3107     H
N      0.46468  0.65741  0.48477     N
H        0.477   0.6872   0.2918     H
C        0.488   0.1685   0.5956     C
C        0.497   0.5342   0.7624     C
Fe         0.5      0.5      0.5    Fe
C        0.503   0.4658   0.2376     C
C        0.512   0.8315   0.4044     C
H        0.523   0.3128   0.7082     H
N      0.53532  0.34259  0.51523     N
H       0.5416   0.5865   0.6893     H
C      0.54188  0.33986  0.16782     C
H       0.5542   0.9763   0.2861     H
H       0.5548   0.3239   0.7994     H
N       0.5572  0.75543  0.41083     N
H       0.5632   0.5287   0.2297     H
H       0.5634    0.519   0.7904     H
H       0.5709   0.8336   0.5854     H
H       0.5779   0.7376   0.9763     H
C       0.5819  0.42616  0.17996     C
C       0.5941   0.3342   0.7302     C
C        0.598   0.9453    0.331     C
C      0.59815   0.7397  0.78295     C
H       0.6109     0.98   0.3705     H
H       0.6116   0.7395   0.5918     H
C       0.6189  0.21705  0.52265     C
H       0.6207   0.2686   0.0242     H
H       0.6309   0.6495     0.98     H
H       0.6372   0.7675   0.3719     H
C       0.6424   0.8078   0.5851     C
C      0.64431  0.32522  0.47509     C
H       0.6449   0.0242   0.7072     H
H       0.6458   0.2006   0.1233     H
H       0.6462   0.2096   0.3094     H
H       0.6479   0.2928   0.7314     H
C       0.6527   0.7237   0.9453     C
N      0.65675  0.60376  0.35341     N
N      0.65838  0.50604   0.5718     N
C      0.66313  0.34455  0.10276     C
C       0.6757   0.2698   0.0644     C
C       0.6805   0.7641   0.8315     C
C      0.68091  0.80031  0.67478     C
C      0.68142  0.44731  0.65545     C
H       0.6846   0.9529   0.2888     H
C       0.7097  0.16782  0.49232     C
N      0.71739  0.47615  0.12588     N
H       0.7196    0.855   0.5204     H
C      0.72391  0.65077  0.26404     C
H       0.7317   0.7583   0.9529     H
H       0.7373    0.581   0.8336     H
C       0.7401   0.0644   0.6658     C
C       0.7406   0.2376   0.2966     C
N      0.75876  0.60203  0.52385     N
H         0.76   0.4796   0.3754     H
C      0.76186  0.17996  0.39388     C
C      0.76589  0.10276  0.55269     C
H       0.7688   0.2918    0.021     H
H       0.7691   0.1233   0.6761     H
H       0.7691   0.3107   0.2758     H
N      0.76982   0.4282  0.07784     N
C       0.7725   0.4149   0.3929     C
H       0.7898    0.021   0.6872     H
H       0.7929   0.2297   0.2416     H
H       0.7966   0.4082   0.3313     H
C      0.79798  0.50768  0.66014     C
N      0.80177  0.83374  0.75543     N
N      0.80727  0.85782  0.65741     N
S      0.81548   0.7172  0.13937     S
C       0.8346   0.6071   0.8078     C
H       0.8403   0.2861   0.7376     H
N      0.84327  0.12588  0.39797     N
H       0.8437   0.4146    0.419     H
C      0.84426  0.60612  0.57384     C
N      0.84766  0.07784  0.49396     N
C      0.85845  0.47735   0.7397     C
H       0.8646   0.6246    0.855     H
H       0.8697   0.8606   0.7675     H
H       0.8721   0.6687   0.7395     H
C       0.8806  0.52491  0.80031     C
S      0.90172  0.85657   0.2828     S
C       0.9164   0.4044   0.7641     C
C      0.92686  0.91481  0.34923     C
C        0.929    0.331   0.7237     C
N      0.94701  0.95717  0.39624     N
N      0.94945  0.48477  0.85782     N
S      0.95485  0.13937  0.14343     S
H       0.9551   0.7242   0.5865     H
H       0.9556   0.3094    0.481     H
C       0.9628   0.7034   0.5342     C
H       0.9655   0.7584   0.4713     H
N      0.96803  0.41083  0.83374     N
H       0.9734   0.2888   0.7583     H
H       0.9814   0.3705   0.6495     H
C      0.98795  0.26404  0.08519     C
N      0.98984  0.64659  0.95717     N
H       0.9909   0.6281   0.1394     H
