data_I
_chemical_name_common  '/home/zhangsd/repos/MofS-CGCNN/ML/data/SSD/clean_cifs/HAJYEZ_clean'
_cell_length_a 10.28200
_cell_length_b 11.26100
_cell_length_c 12.17100
_cell_angle_alpha 92.57500
_cell_angle_beta  109.11400
_cell_angle_gamma 109.75200
_space_group_name_H-M_alt      'P 1'


loop_
_space_group_symop_operation_xyz
  'x, y, z' 

loop_
_atom_site_label
_atom_site_fract_x
_atom_site_fract_y
_atom_site_fract_z
_atom_site_type_symbol
Ni         0.0      0.5      0.0    Ni
O       0.0068   0.5855   0.7067     O
C       0.0371   0.6303    0.622     C
H       0.0435   0.0522   0.3206     H
O       0.0592   0.3825   0.4801     O
C       0.0682    0.888   0.2787     C
O       0.0735   0.6601   0.1184     O
H       0.0764   0.3512   0.0635     H
C        0.084    0.198    0.733     C
H        0.086   0.1173   0.5825     H
C       0.1121   0.0203   0.3104     C
O       0.1322   0.4187   0.1145     O
C       0.1421   0.1833   0.6472     C
H       0.1426   0.3055   0.8927     H
H       0.1465   0.8101   0.5117     H
C       0.1498   0.7054   0.2248     C
C       0.1761   0.8434   0.2641     C
C       0.1767   0.2952   0.8323     C
O       0.1916   0.2888   0.3019     O
C       0.1942   0.7076   0.6392     C
Ni     0.20819  0.47363   0.2971    Ni
O       0.2152   0.6532   0.2997     O
H       0.2196   0.4381   0.1145     H
C       0.2244   0.7991   0.5702     C
C       0.2538   0.1066   0.3276     C
H       0.2621   0.4722   0.5233     H
H       0.2764   0.5807   0.4735     H
C       0.2813   0.2648    0.656     C
C       0.2883   0.2476   0.3575     C
H       0.2932   0.6249   0.7694     H
O        0.303   0.5168   0.4807     O
C       0.3118   0.6876   0.7234     C
C       0.3146   0.3742   0.8418     C
H       0.3163   0.2543   0.5962     H
C       0.3175   0.9291   0.2848     C
C         0.36   0.0604   0.3147     C
C       0.3688   0.8746   0.5868     C
C       0.3689   0.3614   0.7518     C
H       0.3735   0.4372   0.9084     H
H       0.3873   0.9386   0.5419     H
H       0.3878   0.8973   0.2784     H
O       0.3938   0.4981    0.128     O
O       0.4104   0.3124   0.4378     O
O       0.4345   0.5377   0.3179     O
C       0.4573   0.7627   0.7376     C
H       0.4645   0.2505   0.2064     H
C       0.4778   0.5512   0.2312     C
C       0.4873    0.856   0.6703     C
Ni         0.5      0.5      0.5    Ni
C       0.5127    0.144   0.3297     C
C       0.5222   0.4488   0.7688     C
H       0.5355   0.7495   0.7936     H
C       0.5427   0.2373   0.2624     C
O       0.5655   0.4623   0.6821     O
O       0.5896   0.6876   0.5622     O
O       0.6062   0.5019    0.872     O
H       0.6122   0.1027   0.7216     H
H       0.6127   0.0614   0.4581     H
H       0.6265   0.5628   0.0916     H
C       0.6311   0.6386   0.2482     C
C       0.6312   0.1254   0.4132     C
C         0.64   0.9396   0.6853     C
C       0.6825   0.0709   0.7152     C
H       0.6837   0.7457   0.4038     H
C       0.6854   0.6258   0.1582     C
C       0.6882   0.3124   0.2766     C
O        0.697   0.4832   0.5193     O
H       0.7068   0.3751   0.2306     H
C       0.7117   0.7524   0.6425     C
C       0.7187   0.7352    0.344     C
H       0.7236   0.4193   0.5265     H
H       0.7379   0.5278   0.4767     H
C       0.7462   0.8934   0.6724     C
C       0.7756   0.2009   0.4298     C
H       0.7804   0.5619   0.8855     H
O       0.7848   0.3468   0.7003     O
Ni     0.79181  0.52637   0.7029    Ni
C       0.8058   0.2924   0.3608     C
O       0.8084   0.7112   0.6981     O
C       0.8233   0.7048   0.1677     C
C       0.8239   0.1566   0.7359     C
C       0.8502   0.2946   0.7752     C
H       0.8535   0.1899   0.4883     H
H       0.8574   0.6945   0.1073     H
C       0.8579   0.8167   0.3528     C
O       0.8678   0.5813   0.8855     O
C       0.8879   0.9797   0.6896     C
H        0.914   0.8827   0.4175     H
C        0.916    0.802    0.267     C
H       0.9236   0.6488   0.9365     H
O       0.9265   0.3399   0.8816     O
C       0.9318    0.112   0.7213     C
O       0.9408   0.6175   0.5199     O
H       0.9565   0.9478   0.6794     H
C       0.9629   0.3697    0.378     C
O       0.9932   0.4145   0.2933     O
