data_I
_chemical_name_common  '/home/zhangsd/repos/MofS-CGCNN/ML/data/SSD/clean_cifs/HAKSIY_clean'
_cell_length_a 13.85700
_cell_length_b 13.85700
_cell_length_c 17.92500
_cell_angle_alpha 90.00000
_cell_angle_beta  90.00000
_cell_angle_gamma 120.00000
_space_group_name_H-M_alt      'P 1'


loop_
_space_group_symop_operation_xyz
  'x, y, z' 

loop_
_atom_site_label
_atom_site_fract_x
_atom_site_fract_y
_atom_site_fract_z
_atom_site_type_symbol
Mg         0.0      0.0   0.1448    Mg
Mg         0.0      0.0   0.3552    Mg
Mg         0.0      0.0   0.6448    Mg
Mg         0.0      0.0   0.8552    Mg
C       0.0289   0.4302    0.534     C
C       0.0289   0.4302    0.966     C
C       0.0289   0.5987    0.534     C
C       0.0289   0.5987    0.966     C
H       0.0473   0.3812   0.5567     H
H       0.0473   0.3812   0.9433     H
H       0.0473   0.6661   0.5567     H
H       0.0473   0.6661   0.9433     H
C       0.0578   0.5289   0.5669     C
C       0.0578   0.5289   0.9331     C
N       0.0727   0.1454    0.709     N
N       0.0727   0.1454    0.791     N
N       0.0727   0.9273    0.709     N
N       0.0727   0.9273    0.791     N
C       0.1232   0.5616   0.6409     C
C       0.1232   0.5616   0.8591     C
C       0.1294   0.2588   0.6939     C
C       0.1294   0.2588   0.8061     C
C       0.1294   0.8706   0.6939     C
C       0.1294   0.8706   0.8061     C
H      0.14265   0.2853   0.6451     H
H      0.14265   0.2853   0.8549     H
H      0.14265  0.85735   0.6451     H
H      0.14265  0.85735   0.8549     H
O       0.1438   0.4941   0.6676     O
O       0.1438   0.4941   0.8324     O
O       0.1438   0.6497   0.6676     O
O       0.1438   0.6497   0.8324     O
N       0.1454   0.0727    0.209     N
N       0.1454   0.0727    0.291     N
N      0.16295   0.3259     0.75     N
N      0.16295  0.83705     0.75     N
Fe      0.2533   0.5066     0.75    Fe
Fe      0.2533   0.7467     0.75    Fe
C       0.2588   0.1294   0.1939     C
C       0.2588   0.1294   0.3061     C
H       0.2853  0.14265   0.1451     H
H       0.2853  0.14265   0.3549     H
N       0.3259  0.16295     0.25     N
O      0.33333  0.66667     0.75     O
H       0.3339   0.3812   0.5567     H
H       0.3339   0.3812   0.9433     H
H       0.3339   0.9527   0.5567     H
H       0.3339   0.9527   0.9433     H
O       0.3503   0.4941   0.6676     O
O       0.3503   0.4941   0.8324     O
O       0.3503   0.8562   0.6676     O
O       0.3503   0.8562   0.8324     O
H       0.3812   0.0473   0.0567     H
H       0.3812   0.0473   0.4433     H
H       0.3812   0.3339   0.0567     H
H       0.3812   0.3339   0.4433     H
C       0.4013   0.4302    0.534     C
C       0.4013   0.4302    0.966     C
C       0.4013   0.9711    0.534     C
C       0.4013   0.9711    0.966     C
C       0.4302   0.0289    0.034     C
C       0.4302   0.0289    0.466     C
C       0.4302   0.4013    0.034     C
C       0.4302   0.4013    0.466     C
C       0.4384   0.5616   0.6409     C
C       0.4384   0.5616   0.8591     C
C       0.4384   0.8768   0.6409     C
C       0.4384   0.8768   0.8591     C
C       0.4711   0.5289   0.5669     C
C       0.4711   0.5289   0.9331     C
C       0.4711   0.9422   0.5669     C
C       0.4711   0.9422   0.9331     C
Fe      0.4934   0.7467     0.75    Fe
O       0.4941   0.1438   0.1676     O
O       0.4941   0.1438   0.3324     O
O       0.4941   0.3503   0.1676     O
O       0.4941   0.3503   0.3324     O
O       0.5059   0.6497   0.6676     O
O       0.5059   0.6497   0.8324     O
O       0.5059   0.8562   0.6676     O
O       0.5059   0.8562   0.8324     O
Fe      0.5066   0.2533     0.25    Fe
C       0.5289   0.0578   0.0669     C
C       0.5289   0.0578   0.4331     C
C       0.5289   0.4711   0.0669     C
C       0.5289   0.4711   0.4331     C
C       0.5616   0.1232   0.1409     C
C       0.5616   0.1232   0.3591     C
C       0.5616   0.4384   0.1409     C
C       0.5616   0.4384   0.3591     C
C       0.5698   0.5987    0.534     C
C       0.5698   0.5987    0.966     C
C       0.5698   0.9711    0.534     C
C       0.5698   0.9711    0.966     C
C       0.5987   0.0289    0.034     C
C       0.5987   0.0289    0.466     C
C       0.5987   0.5698    0.034     C
C       0.5987   0.5698    0.466     C
H       0.6188   0.6661   0.5567     H
H       0.6188   0.6661   0.9433     H
H       0.6188   0.9527   0.5567     H
H       0.6188   0.9527   0.9433     H
O       0.6497   0.1438   0.1676     O
O       0.6497   0.1438   0.3324     O
O       0.6497   0.5059   0.1676     O
O       0.6497   0.5059   0.3324     O
H       0.6661   0.0473   0.0567     H
H       0.6661   0.0473   0.4433     H
H       0.6661   0.6188   0.0567     H
H       0.6661   0.6188   0.4433     H
O      0.66667  0.33333     0.25     O
N       0.6741  0.83705     0.75     N
H       0.7147  0.85735   0.6451     H
H       0.7147  0.85735   0.8549     H
C       0.7412   0.8706   0.6939     C
C       0.7412   0.8706   0.8061     C
Fe      0.7467   0.2533     0.25    Fe
Fe      0.7467   0.4934     0.25    Fe
N      0.83705  0.16295     0.25     N
N      0.83705   0.6741     0.25     N
N       0.8546   0.9273    0.709     N
N       0.8546   0.9273    0.791     N
O       0.8562   0.3503   0.1676     O
O       0.8562   0.3503   0.3324     O
O       0.8562   0.5059   0.1676     O
O       0.8562   0.5059   0.3324     O
H      0.85735  0.14265   0.1451     H
H      0.85735  0.14265   0.3549     H
H      0.85735   0.7147   0.1451     H
H      0.85735   0.7147   0.3549     H
C       0.8706   0.1294   0.1939     C
C       0.8706   0.1294   0.3061     C
C       0.8706   0.7412   0.1939     C
C       0.8706   0.7412   0.3061     C
C       0.8768   0.4384   0.1409     C
C       0.8768   0.4384   0.3591     C
N       0.9273   0.0727    0.209     N
N       0.9273   0.0727    0.291     N
N       0.9273   0.8546    0.209     N
N       0.9273   0.8546    0.291     N
C       0.9422   0.4711   0.0669     C
C       0.9422   0.4711   0.4331     C
H       0.9527   0.3339   0.0567     H
H       0.9527   0.3339   0.4433     H
H       0.9527   0.6188   0.0567     H
H       0.9527   0.6188   0.4433     H
C       0.9711   0.4013    0.034     C
C       0.9711   0.4013    0.466     C
C       0.9711   0.5698    0.034     C
C       0.9711   0.5698    0.466     C
