data_I
_chemical_name_common  '/home/zhangsd/repos/MofS-CGCNN/ML/data/SSD/clean_cifs/HAKSEU_clean'
_cell_length_a 13.86180
_cell_length_b 13.86180
_cell_length_c 18.50790
_cell_angle_alpha 90.00000
_cell_angle_beta  90.00000
_cell_angle_gamma 120.00000
_space_group_name_H-M_alt      'P 1'


loop_
_space_group_symop_operation_xyz
  'x, y, z' 

loop_
_atom_site_label
_atom_site_fract_x
_atom_site_fract_y
_atom_site_fract_z
_atom_site_type_symbol
Ni         0.0      0.0  0.13949    Ni
Ni         0.0      0.0  0.36051    Ni
Ni         0.0      0.0  0.63949    Ni
Ni         0.0      0.0  0.86051    Ni
C       0.0266   0.4278   0.5333     C
C       0.0266   0.4278   0.9667     C
C       0.0266   0.5988   0.5333     C
C       0.0266   0.5988   0.9667     C
H       0.0446   0.3784    0.555     H
H       0.0446   0.3784    0.945     H
H       0.0446   0.6662    0.555     H
H       0.0446   0.6662    0.945     H
C       0.0534   0.5267   0.5678     C
C       0.0534   0.5267   0.9322     C
N       0.0721   0.1442   0.7107     N
N       0.0721   0.1442   0.7893     N
N       0.0721   0.9279   0.7107     N
N       0.0721   0.9279   0.7893     N
C       0.1134   0.5567   0.6378     C
C       0.1134   0.5567   0.8622     C
C       0.1252   0.2504    0.693     C
C       0.1252   0.2504    0.807     C
C       0.1252   0.8748    0.693     C
C       0.1252   0.8748    0.807     C
O       0.1355   0.4872   0.6645     O
O       0.1355   0.4872   0.8355     O
O       0.1355   0.6483   0.6645     O
O       0.1355   0.6483   0.8355     O
H       0.1379   0.2758   0.6455     H
H       0.1379   0.2758   0.8545     H
H       0.1379   0.8621   0.6455     H
H       0.1379   0.8621   0.8545     H
N       0.1442   0.0721   0.2107     N
N       0.1442   0.0721   0.2893     N
N       0.1588   0.3176     0.75     N
N       0.1588   0.8412     0.75     N
In     0.24864  0.49728     0.75    In
In     0.24864  0.75136     0.75    In
C       0.2504   0.1252    0.193     C
C       0.2504   0.1252    0.307     C
H       0.2758   0.1379   0.1455     H
H       0.2758   0.1379   0.3545     H
N       0.3176   0.1588     0.25     N
O      0.33333  0.66667     0.75     O
H       0.3338   0.3784    0.555     H
H       0.3338   0.3784    0.945     H
H       0.3338   0.9554    0.555     H
H       0.3338   0.9554    0.945     H
O       0.3517   0.4872   0.6645     O
O       0.3517   0.4872   0.8355     O
O       0.3517   0.8645   0.6645     O
O       0.3517   0.8645   0.8355     O
H       0.3784   0.0446    0.055     H
H       0.3784   0.0446    0.445     H
H       0.3784   0.3338    0.055     H
H       0.3784   0.3338    0.445     H
C       0.4012   0.4278   0.5333     C
C       0.4012   0.4278   0.9667     C
C       0.4012   0.9734   0.5333     C
C       0.4012   0.9734   0.9667     C
C       0.4278   0.0266   0.0333     C
C       0.4278   0.0266   0.4667     C
C       0.4278   0.4012   0.0333     C
C       0.4278   0.4012   0.4667     C
C       0.4433   0.5567   0.6378     C
C       0.4433   0.5567   0.8622     C
C       0.4433   0.8866   0.6378     C
C       0.4433   0.8866   0.8622     C
C       0.4733   0.5267   0.5678     C
C       0.4733   0.5267   0.9322     C
C       0.4733   0.9466   0.5678     C
C       0.4733   0.9466   0.9322     C
O       0.4872   0.1355   0.1645     O
O       0.4872   0.1355   0.3355     O
O       0.4872   0.3517   0.1645     O
O       0.4872   0.3517   0.3355     O
In     0.49728  0.24864     0.25    In
In     0.50272  0.75136     0.75    In
O       0.5128   0.6483   0.6645     O
O       0.5128   0.6483   0.8355     O
O       0.5128   0.8645   0.6645     O
O       0.5128   0.8645   0.8355     O
C       0.5267   0.0534   0.0678     C
C       0.5267   0.0534   0.4322     C
C       0.5267   0.4733   0.0678     C
C       0.5267   0.4733   0.4322     C
C       0.5567   0.1134   0.1378     C
C       0.5567   0.1134   0.3622     C
C       0.5567   0.4433   0.1378     C
C       0.5567   0.4433   0.3622     C
C       0.5722   0.5988   0.5333     C
C       0.5722   0.5988   0.9667     C
C       0.5722   0.9734   0.5333     C
C       0.5722   0.9734   0.9667     C
C       0.5988   0.0266   0.0333     C
C       0.5988   0.0266   0.4667     C
C       0.5988   0.5722   0.0333     C
C       0.5988   0.5722   0.4667     C
H       0.6216   0.6662    0.555     H
H       0.6216   0.6662    0.945     H
H       0.6216   0.9554    0.555     H
H       0.6216   0.9554    0.945     H
O       0.6483   0.1355   0.1645     O
O       0.6483   0.1355   0.3355     O
O       0.6483   0.5128   0.1645     O
O       0.6483   0.5128   0.3355     O
H       0.6662   0.0446    0.055     H
H       0.6662   0.0446    0.445     H
H       0.6662   0.6216    0.055     H
H       0.6662   0.6216    0.445     H
O      0.66667  0.33333     0.25     O
N       0.6824   0.8412     0.75     N
H       0.7242   0.8621   0.6455     H
H       0.7242   0.8621   0.8545     H
C       0.7496   0.8748    0.693     C
C       0.7496   0.8748    0.807     C
In     0.75136  0.24864     0.25    In
In     0.75136  0.50272     0.25    In
N       0.8412   0.1588     0.25     N
N       0.8412   0.6824     0.25     N
N       0.8558   0.9279   0.7107     N
N       0.8558   0.9279   0.7893     N
H       0.8621   0.1379   0.1455     H
H       0.8621   0.1379   0.3545     H
H       0.8621   0.7242   0.1455     H
H       0.8621   0.7242   0.3545     H
O       0.8645   0.3517   0.1645     O
O       0.8645   0.3517   0.3355     O
O       0.8645   0.5128   0.1645     O
O       0.8645   0.5128   0.3355     O
C       0.8748   0.1252    0.193     C
C       0.8748   0.1252    0.307     C
C       0.8748   0.7496    0.193     C
C       0.8748   0.7496    0.307     C
C       0.8866   0.4433   0.1378     C
C       0.8866   0.4433   0.3622     C
N       0.9279   0.0721   0.2107     N
N       0.9279   0.0721   0.2893     N
N       0.9279   0.8558   0.2107     N
N       0.9279   0.8558   0.2893     N
C       0.9466   0.4733   0.0678     C
C       0.9466   0.4733   0.4322     C
H       0.9554   0.3338    0.055     H
H       0.9554   0.3338    0.445     H
H       0.9554   0.6216    0.055     H
H       0.9554   0.6216    0.445     H
C       0.9734   0.4012   0.0333     C
C       0.9734   0.4012   0.4667     C
C       0.9734   0.5722   0.0333     C
C       0.9734   0.5722   0.4667     C
