data_I
_chemical_name_common  '/home/zhangsd/repos/MofS-CGCNN/ML/data/SSD/clean_cifs/HAKTOF_clean'
_cell_length_a 13.89300
_cell_length_b 13.89300
_cell_length_c 18.36800
_cell_angle_alpha 90.00000
_cell_angle_beta  90.00000
_cell_angle_gamma 120.00000
_space_group_name_H-M_alt      'P 1'


loop_
_space_group_symop_operation_xyz
  'x, y, z' 

loop_
_atom_site_label
_atom_site_fract_x
_atom_site_fract_y
_atom_site_fract_z
_atom_site_type_symbol
Co         0.0      0.0  0.14677    Co
Co         0.0      0.0  0.35323    Co
Co         0.0      0.0  0.64677    Co
Co         0.0      0.0  0.85323    Co
C       0.0284   0.4287   0.5341     C
C       0.0284   0.4287   0.9659     C
C       0.0284   0.5997   0.5341     C
C       0.0284   0.5997   0.9659     C
C       0.0551  0.52755   0.5676     C
C       0.0551  0.52755   0.9324     C
O        0.056    0.359   0.5578     O
O        0.056    0.359   0.9422     O
O        0.056    0.697   0.5578     O
O        0.056    0.697   0.9422     O
N       0.0724   0.1448   0.7116     N
N       0.0724   0.1448   0.7884     N
N       0.0724   0.9276   0.7116     N
N       0.0724   0.9276   0.7884     N
C       0.1146   0.5573   0.6384     C
C       0.1146   0.5573   0.8616     C
C       0.1263   0.2526   0.6967     C
C       0.1263   0.2526   0.8033     C
C       0.1263   0.8737   0.6967     C
C       0.1263   0.8737   0.8033     C
O        0.139   0.4889   0.6653     O
O        0.139   0.4889   0.8347     O
O        0.139   0.6501   0.6653     O
O        0.139   0.6501   0.8347     O
H       0.1393   0.2786   0.6491     H
H       0.1393   0.2786   0.8509     H
H       0.1393   0.8607   0.6491     H
H       0.1393   0.8607   0.8509     H
N       0.1448   0.0724   0.2116     N
N       0.1448   0.0724   0.2884     N
N        0.159    0.318     0.75     N
N        0.159    0.841     0.75     N
In     0.24848  0.49696     0.75    In
In     0.24848  0.75152     0.75    In
C       0.2526   0.1263   0.1967     C
C       0.2526   0.1263   0.3033     C
H       0.2786   0.1393   0.1491     H
H       0.2786   0.1393   0.3509     H
O        0.303    0.359   0.5578     O
O        0.303    0.359   0.9422     O
O        0.303    0.944   0.5578     O
O        0.303    0.944   0.9422     O
N        0.318    0.159     0.25     N
O      0.33333  0.66667     0.75     O
O       0.3499   0.4889   0.6653     O
O       0.3499   0.4889   0.8347     O
O       0.3499    0.861   0.6653     O
O       0.3499    0.861   0.8347     O
O        0.359    0.056   0.0578     O
O        0.359    0.056   0.4422     O
O        0.359    0.303   0.0578     O
O        0.359    0.303   0.4422     O
C       0.4003   0.4287   0.5341     C
C       0.4003   0.4287   0.9659     C
C       0.4003   0.9716   0.5341     C
C       0.4003   0.9716   0.9659     C
C       0.4287   0.0284   0.0341     C
C       0.4287   0.0284   0.4659     C
C       0.4287   0.4003   0.0341     C
C       0.4287   0.4003   0.4659     C
C       0.4427   0.5573   0.6384     C
C       0.4427   0.5573   0.8616     C
C       0.4427   0.8854   0.6384     C
C       0.4427   0.8854   0.8616     C
C      0.47245  0.52755   0.5676     C
C      0.47245  0.52755   0.9324     C
C      0.47245   0.9449   0.5676     C
C      0.47245   0.9449   0.9324     C
O       0.4889    0.139   0.1653     O
O       0.4889    0.139   0.3347     O
O       0.4889   0.3499   0.1653     O
O       0.4889   0.3499   0.3347     O
In     0.49696  0.24848     0.25    In
In     0.50304  0.75152     0.75    In
O       0.5111   0.6501   0.6653     O
O       0.5111   0.6501   0.8347     O
O       0.5111    0.861   0.6653     O
O       0.5111    0.861   0.8347     O
C      0.52755   0.0551   0.0676     C
C      0.52755   0.0551   0.4324     C
C      0.52755  0.47245   0.0676     C
C      0.52755  0.47245   0.4324     C
C       0.5573   0.1146   0.1384     C
C       0.5573   0.1146   0.3616     C
C       0.5573   0.4427   0.1384     C
C       0.5573   0.4427   0.3616     C
C       0.5713   0.5997   0.5341     C
C       0.5713   0.5997   0.9659     C
C       0.5713   0.9716   0.5341     C
C       0.5713   0.9716   0.9659     C
C       0.5997   0.0284   0.0341     C
C       0.5997   0.0284   0.4659     C
C       0.5997   0.5713   0.0341     C
C       0.5997   0.5713   0.4659     C
O        0.641    0.697   0.5578     O
O        0.641    0.697   0.9422     O
O        0.641    0.944   0.5578     O
O        0.641    0.944   0.9422     O
O       0.6501    0.139   0.1653     O
O       0.6501    0.139   0.3347     O
O       0.6501   0.5111   0.1653     O
O       0.6501   0.5111   0.3347     O
O      0.66667  0.33333     0.25     O
N        0.682    0.841     0.75     N
O        0.697    0.056   0.0578     O
O        0.697    0.056   0.4422     O
O        0.697    0.641   0.0578     O
O        0.697    0.641   0.4422     O
H       0.7214   0.8607   0.6491     H
H       0.7214   0.8607   0.8509     H
C       0.7474   0.8737   0.6967     C
C       0.7474   0.8737   0.8033     C
In     0.75152  0.24848     0.25    In
In     0.75152  0.50304     0.25    In
N        0.841    0.159     0.25     N
N        0.841    0.682     0.25     N
N       0.8552   0.9276   0.7116     N
N       0.8552   0.9276   0.7884     N
H       0.8607   0.1393   0.1491     H
H       0.8607   0.1393   0.3509     H
H       0.8607   0.7214   0.1491     H
H       0.8607   0.7214   0.3509     H
O        0.861   0.3499   0.1653     O
O        0.861   0.3499   0.3347     O
O        0.861   0.5111   0.1653     O
O        0.861   0.5111   0.3347     O
C       0.8737   0.1263   0.1967     C
C       0.8737   0.1263   0.3033     C
C       0.8737   0.7474   0.1967     C
C       0.8737   0.7474   0.3033     C
C       0.8854   0.4427   0.1384     C
C       0.8854   0.4427   0.3616     C
N       0.9276   0.0724   0.2116     N
N       0.9276   0.0724   0.2884     N
N       0.9276   0.8552   0.2116     N
N       0.9276   0.8552   0.2884     N
O        0.944    0.303   0.0578     O
O        0.944    0.303   0.4422     O
O        0.944    0.641   0.0578     O
O        0.944    0.641   0.4422     O
C       0.9449  0.47245   0.0676     C
C       0.9449  0.47245   0.4324     C
C       0.9716   0.4003   0.0341     C
C       0.9716   0.4003   0.4659     C
C       0.9716   0.5713   0.0341     C
C       0.9716   0.5713   0.4659     C
