data_I
_chemical_name_common  '/home/zhangsd/repos/MofS-CGCNN/ML/data/SSD/clean_cifs/HAKTAR_clean'
_cell_length_a 13.90500
_cell_length_b 13.90500
_cell_length_c 18.46630
_cell_angle_alpha 90.00000
_cell_angle_beta  90.00000
_cell_angle_gamma 120.00000
_space_group_name_H-M_alt      'P 1'


loop_
_space_group_symop_operation_xyz
  'x, y, z' 

loop_
_atom_site_label
_atom_site_fract_x
_atom_site_fract_y
_atom_site_fract_z
_atom_site_type_symbol
Co         0.0      0.0  0.14262    Co
Co         0.0      0.0  0.35738    Co
Co         0.0      0.0  0.64262    Co
Co         0.0      0.0  0.85738    Co
C       0.0271   0.4287   0.5332     C
C       0.0271   0.4287   0.9668     C
C       0.0271   0.5984   0.5332     C
C       0.0271   0.5984   0.9668     C
H       0.0451   0.3796   0.5552     H
H       0.0451   0.3796   0.9448     H
H       0.0451   0.6655   0.5552     H
H       0.0451   0.6655   0.9448     H
C       0.0542   0.5271   0.5666     C
C       0.0542   0.5271   0.9334     C
N      0.07249  0.14498   0.7126     N
N      0.07249  0.14498   0.7874     N
N      0.07249  0.92751   0.7126     N
N      0.07249  0.92751   0.7874     N
C       0.1139  0.55695   0.6378     C
C       0.1139  0.55695   0.8622     C
C       0.1251   0.2502   0.6932     C
C       0.1251   0.2502   0.8068     C
C       0.1251   0.8749   0.6932     C
C       0.1251   0.8749   0.8068     C
O       0.1368   0.4883  0.66453     O
O       0.1368   0.4883  0.83547     O
O       0.1368   0.6485  0.66453     O
O       0.1368   0.6485  0.83547     O
H        0.137    0.274   0.6453     H
H        0.137    0.274   0.8547     H
H        0.137    0.863   0.6453     H
H        0.137    0.863   0.8547     H
N      0.14498  0.07249   0.2126     N
N      0.14498  0.07249   0.2874     N
N       0.1593   0.3186     0.75     N
N       0.1593   0.8407     0.75     N
In     0.24905   0.4981     0.75    In
In     0.24905  0.75095     0.75    In
C       0.2502   0.1251   0.1932     C
C       0.2502   0.1251   0.3068     C
H        0.274    0.137   0.1453     H
H        0.274    0.137   0.3547     H
N       0.3186   0.1593     0.25     N
O      0.33333  0.66667     0.75     O
H       0.3345   0.3796   0.5552     H
H       0.3345   0.3796   0.9448     H
H       0.3345   0.9549   0.5552     H
H       0.3345   0.9549   0.9448     H
O       0.3515   0.4883  0.66453     O
O       0.3515   0.4883  0.83547     O
O       0.3515   0.8632  0.66453     O
O       0.3515   0.8632  0.83547     O
H       0.3796   0.0451   0.0552     H
H       0.3796   0.0451   0.4448     H
H       0.3796   0.3345   0.0552     H
H       0.3796   0.3345   0.4448     H
C       0.4016   0.4287   0.5332     C
C       0.4016   0.4287   0.9668     C
C       0.4016   0.9729   0.5332     C
C       0.4016   0.9729   0.9668     C
C       0.4287   0.0271   0.0332     C
C       0.4287   0.0271   0.4668     C
C       0.4287   0.4016   0.0332     C
C       0.4287   0.4016   0.4668     C
C      0.44305  0.55695   0.6378     C
C      0.44305  0.55695   0.8622     C
C      0.44305   0.8861   0.6378     C
C      0.44305   0.8861   0.8622     C
C       0.4729   0.5271   0.5666     C
C       0.4729   0.5271   0.9334     C
C       0.4729   0.9458   0.5666     C
C       0.4729   0.9458   0.9334     C
O       0.4883   0.1368  0.16453     O
O       0.4883   0.1368  0.33547     O
O       0.4883   0.3515  0.16453     O
O       0.4883   0.3515  0.33547     O
In      0.4981  0.24905     0.25    In
In      0.5019  0.75095     0.75    In
O       0.5117   0.6485  0.66453     O
O       0.5117   0.6485  0.83547     O
O       0.5117   0.8632  0.66453     O
O       0.5117   0.8632  0.83547     O
C       0.5271   0.0542   0.0666     C
C       0.5271   0.0542   0.4334     C
C       0.5271   0.4729   0.0666     C
C       0.5271   0.4729   0.4334     C
C      0.55695   0.1139   0.1378     C
C      0.55695   0.1139   0.3622     C
C      0.55695  0.44305   0.1378     C
C      0.55695  0.44305   0.3622     C
C       0.5713   0.5984   0.5332     C
C       0.5713   0.5984   0.9668     C
C       0.5713   0.9729   0.5332     C
C       0.5713   0.9729   0.9668     C
C       0.5984   0.0271   0.0332     C
C       0.5984   0.0271   0.4668     C
C       0.5984   0.5713   0.0332     C
C       0.5984   0.5713   0.4668     C
H       0.6204   0.6655   0.5552     H
H       0.6204   0.6655   0.9448     H
H       0.6204   0.9549   0.5552     H
H       0.6204   0.9549   0.9448     H
O       0.6485   0.1368  0.16453     O
O       0.6485   0.1368  0.33547     O
O       0.6485   0.5117  0.16453     O
O       0.6485   0.5117  0.33547     O
H       0.6655   0.0451   0.0552     H
H       0.6655   0.0451   0.4448     H
H       0.6655   0.6204   0.0552     H
H       0.6655   0.6204   0.4448     H
O      0.66667  0.33333     0.25     O
N       0.6814   0.8407     0.75     N
H        0.726    0.863   0.6453     H
H        0.726    0.863   0.8547     H
C       0.7498   0.8749   0.6932     C
C       0.7498   0.8749   0.8068     C
In     0.75095  0.24905     0.25    In
In     0.75095   0.5019     0.25    In
N       0.8407   0.1593     0.25     N
N       0.8407   0.6814     0.25     N
N      0.85502  0.92751   0.7126     N
N      0.85502  0.92751   0.7874     N
H        0.863    0.137   0.1453     H
H        0.863    0.137   0.3547     H
H        0.863    0.726   0.1453     H
H        0.863    0.726   0.3547     H
O       0.8632   0.3515  0.16453     O
O       0.8632   0.3515  0.33547     O
O       0.8632   0.5117  0.16453     O
O       0.8632   0.5117  0.33547     O
C       0.8749   0.1251   0.1932     C
C       0.8749   0.1251   0.3068     C
C       0.8749   0.7498   0.1932     C
C       0.8749   0.7498   0.3068     C
C       0.8861  0.44305   0.1378     C
C       0.8861  0.44305   0.3622     C
N      0.92751  0.07249   0.2126     N
N      0.92751  0.07249   0.2874     N
N      0.92751  0.85502   0.2126     N
N      0.92751  0.85502   0.2874     N
C       0.9458   0.4729   0.0666     C
C       0.9458   0.4729   0.4334     C
H       0.9549   0.3345   0.0552     H
H       0.9549   0.3345   0.4448     H
H       0.9549   0.6204   0.0552     H
H       0.9549   0.6204   0.4448     H
C       0.9729   0.4016   0.0332     C
C       0.9729   0.4016   0.4668     C
C       0.9729   0.5713   0.0332     C
C       0.9729   0.5713   0.4668     C
