data_I
_chemical_name_common  '/home/zhangsd/repos/MofS-CGCNN/ML/data/SSD/clean_cifs/HAKVAT_clean'
_cell_length_a 13.80400
_cell_length_b 13.80400
_cell_length_c 18.43500
_cell_angle_alpha 90.00000
_cell_angle_beta  90.00000
_cell_angle_gamma 120.00000
_space_group_name_H-M_alt      'P 1'


loop_
_space_group_symop_operation_xyz
  'x, y, z' 

loop_
_atom_site_label
_atom_site_fract_x
_atom_site_fract_y
_atom_site_fract_z
_atom_site_type_symbol
Co         0.0      0.0  0.14737    Co
Co         0.0      0.0  0.35263    Co
Co         0.0      0.0  0.64737    Co
Co         0.0      0.0  0.85263    Co
C       0.0264   0.4286   0.5338     C
C       0.0264   0.4286   0.9662     C
C       0.0264   0.5978   0.5338     C
C       0.0264   0.5978   0.9662     C
O       0.0445   0.3497   0.5651     O
O       0.0445   0.3497   0.9349     O
O       0.0445   0.6948   0.5651     O
O       0.0445   0.6948   0.9349     O
C       0.0574   0.5287    0.566     C
C       0.0574   0.5287    0.934     C
N       0.0727   0.1454   0.7126     N
N       0.0727   0.1454   0.7874     N
N       0.0727   0.9273   0.7126     N
N       0.0727   0.9273   0.7874     N
C        0.114    0.557   0.6387     C
C        0.114    0.557   0.8613     C
C      0.12605   0.2521   0.6954     C
C      0.12605   0.2521   0.8046     C
C      0.12605  0.87395   0.6954     C
C      0.12605  0.87395   0.8046     C
O       0.1382   0.4885   0.6654     O
O       0.1382   0.4885   0.8346     O
O       0.1382   0.6497   0.6654     O
O       0.1382   0.6497   0.8346     O
H      0.13875   0.2775   0.6478     H
H      0.13875   0.2775   0.8522     H
H      0.13875  0.86125   0.6478     H
H      0.13875  0.86125   0.8522     H
N       0.1454   0.0727   0.2126     N
N       0.1454   0.0727   0.2874     N
N       0.1588   0.3176     0.75     N
N       0.1588   0.8412     0.75     N
In     0.24883  0.49766     0.75    In
In     0.24883  0.75117     0.75    In
C       0.2521  0.12605   0.1954     C
C       0.2521  0.12605   0.3046     C
H       0.2775  0.13875   0.1478     H
H       0.2775  0.13875   0.3522     H
O       0.3052   0.3497   0.5651     O
O       0.3052   0.3497   0.9349     O
O       0.3052   0.9555   0.5651     O
O       0.3052   0.9555   0.9349     O
N       0.3176   0.1588     0.25     N
O      0.33333  0.66667     0.75     O
O       0.3497   0.0445   0.0651     O
O       0.3497   0.0445   0.4349     O
O       0.3497   0.3052   0.0651     O
O       0.3497   0.3052   0.4349     O
O       0.3503   0.4885   0.6654     O
O       0.3503   0.4885   0.8346     O
O       0.3503   0.8618   0.6654     O
O       0.3503   0.8618   0.8346     O
C       0.4022   0.4286   0.5338     C
C       0.4022   0.4286   0.9662     C
C       0.4022   0.9736   0.5338     C
C       0.4022   0.9736   0.9662     C
C       0.4286   0.0264   0.0338     C
C       0.4286   0.0264   0.4662     C
C       0.4286   0.4022   0.0338     C
C       0.4286   0.4022   0.4662     C
C        0.443    0.557   0.6387     C
C        0.443    0.557   0.8613     C
C        0.443    0.886   0.6387     C
C        0.443    0.886   0.8613     C
C       0.4713   0.5287    0.566     C
C       0.4713   0.5287    0.934     C
C       0.4713   0.9426    0.566     C
C       0.4713   0.9426    0.934     C
O       0.4885   0.1382   0.1654     O
O       0.4885   0.1382   0.3346     O
O       0.4885   0.3503   0.1654     O
O       0.4885   0.3503   0.3346     O
In     0.49766  0.24883     0.25    In
In     0.50234  0.75117     0.75    In
O       0.5115   0.6497   0.6654     O
O       0.5115   0.6497   0.8346     O
O       0.5115   0.8618   0.6654     O
O       0.5115   0.8618   0.8346     O
C       0.5287   0.0574    0.066     C
C       0.5287   0.0574    0.434     C
C       0.5287   0.4713    0.066     C
C       0.5287   0.4713    0.434     C
C        0.557    0.114   0.1387     C
C        0.557    0.114   0.3613     C
C        0.557    0.443   0.1387     C
C        0.557    0.443   0.3613     C
C       0.5714   0.5978   0.5338     C
C       0.5714   0.5978   0.9662     C
C       0.5714   0.9736   0.5338     C
C       0.5714   0.9736   0.9662     C
C       0.5978   0.0264   0.0338     C
C       0.5978   0.0264   0.4662     C
C       0.5978   0.5714   0.0338     C
C       0.5978   0.5714   0.4662     C
O       0.6497   0.1382   0.1654     O
O       0.6497   0.1382   0.3346     O
O       0.6497   0.5115   0.1654     O
O       0.6497   0.5115   0.3346     O
O       0.6503   0.6948   0.5651     O
O       0.6503   0.6948   0.9349     O
O       0.6503   0.9555   0.5651     O
O       0.6503   0.9555   0.9349     O
O      0.66667  0.33333     0.25     O
N       0.6824   0.8412     0.75     N
O       0.6948   0.0445   0.0651     O
O       0.6948   0.0445   0.4349     O
O       0.6948   0.6503   0.0651     O
O       0.6948   0.6503   0.4349     O
H       0.7225  0.86125   0.6478     H
H       0.7225  0.86125   0.8522     H
C       0.7479  0.87395   0.6954     C
C       0.7479  0.87395   0.8046     C
In     0.75117  0.24883     0.25    In
In     0.75117  0.50234     0.25    In
N       0.8412   0.1588     0.25     N
N       0.8412   0.6824     0.25     N
N       0.8546   0.9273   0.7126     N
N       0.8546   0.9273   0.7874     N
H      0.86125  0.13875   0.1478     H
H      0.86125  0.13875   0.3522     H
H      0.86125   0.7225   0.1478     H
H      0.86125   0.7225   0.3522     H
O       0.8618   0.3503   0.1654     O
O       0.8618   0.3503   0.3346     O
O       0.8618   0.5115   0.1654     O
O       0.8618   0.5115   0.3346     O
C      0.87395  0.12605   0.1954     C
C      0.87395  0.12605   0.3046     C
C      0.87395   0.7479   0.1954     C
C      0.87395   0.7479   0.3046     C
C        0.886    0.443   0.1387     C
C        0.886    0.443   0.3613     C
N       0.9273   0.0727   0.2126     N
N       0.9273   0.0727   0.2874     N
N       0.9273   0.8546   0.2126     N
N       0.9273   0.8546   0.2874     N
C       0.9426   0.4713    0.066     C
C       0.9426   0.4713    0.434     C
O       0.9555   0.3052   0.0651     O
O       0.9555   0.3052   0.4349     O
O       0.9555   0.6503   0.0651     O
O       0.9555   0.6503   0.4349     O
C       0.9736   0.4022   0.0338     C
C       0.9736   0.4022   0.4662     C
C       0.9736   0.5714   0.0338     C
C       0.9736   0.5714   0.4662     C
