data_I
_chemical_name_common  '/home/zhangsd/repos/MofS-CGCNN/ML/data/SSD/clean_cifs/HAKVOH_clean'
_cell_length_a 15.76720
_cell_length_b 15.76720
_cell_length_c 16.68140
_cell_angle_alpha 90.00000
_cell_angle_beta  90.00000
_cell_angle_gamma 120.00000
_space_group_name_H-M_alt      'P 1'


loop_
_space_group_symop_operation_xyz
  'x, y, z' 

loop_
_atom_site_label
_atom_site_fract_x
_atom_site_fract_y
_atom_site_fract_z
_atom_site_type_symbol
O          0.0      0.0     0.25     O
O          0.0      0.0     0.75     O
C       0.0304   0.4393   0.0327     C
C       0.0304   0.4393   0.4673     C
C       0.0304   0.5911   0.0327     C
C       0.0304   0.5911   0.4673     C
H       0.0469   0.3226     0.25     H
H       0.0469   0.7243     0.25     H
N       0.0596   0.2055     0.25     N
N       0.0596   0.8541     0.25     N
C       0.0655  0.53275   0.0644     C
C       0.0655  0.53275   0.4356     C
O        0.066   0.3799   0.0604     O
O        0.066   0.3799   0.4396     O
O        0.066   0.6861   0.0604     O
O        0.066   0.6861   0.4396     O
Cu     0.07467  0.14934     0.75    Cu
Cu     0.07467  0.92533     0.75    Cu
C        0.091   0.2998     0.25     C
C        0.091   0.7912     0.25     C
C       0.1367  0.56835   0.1333     C
C       0.1367  0.56835   0.3667     C
N       0.1459   0.2055     0.25     N
N       0.1459   0.9404     0.25     N
Cu     0.14934  0.07467     0.25    Cu
O        0.163   0.5117   0.1596     O
O        0.163   0.5117   0.3404     O
O        0.163   0.6513   0.1596     O
O        0.163   0.6513   0.3404     O
N       0.1783   0.3566     0.25     N
N       0.1783   0.8217     0.25     N
N       0.2055   0.0596     0.75     N
N       0.2055   0.1459     0.75     N
C       0.2088   0.2998     0.25     C
C       0.2088    0.909     0.25     C
Fe     0.25794  0.51589     0.25    Fe
Fe     0.25794  0.74206     0.25    Fe
H       0.2757   0.3226     0.25     H
H       0.2757   0.9531     0.25     H
C       0.2998    0.091     0.75     C
C       0.2998   0.2088     0.75     C
O       0.3139   0.3799   0.0604     O
O       0.3139   0.3799   0.4396     O
O       0.3139    0.934   0.0604     O
O       0.3139    0.934   0.4396     O
H       0.3226   0.0469     0.75     H
H       0.3226   0.2757     0.75     H
O      0.33333  0.66667     0.25     O
O       0.3487   0.5117   0.1596     O
O       0.3487   0.5117   0.3404     O
O       0.3487    0.837   0.1596     O
O       0.3487    0.837   0.3404     O
N       0.3566   0.1783     0.75     N
O       0.3799    0.066   0.5604     O
O       0.3799    0.066   0.9396     O
O       0.3799   0.3139   0.5604     O
O       0.3799   0.3139   0.9396     O
C       0.4089   0.4393   0.0327     C
C       0.4089   0.4393   0.4673     C
C       0.4089   0.9696   0.0327     C
C       0.4089   0.9696   0.4673     C
C      0.43165  0.56835   0.1333     C
C      0.43165  0.56835   0.3667     C
C      0.43165   0.8633   0.1333     C
C      0.43165   0.8633   0.3667     C
C       0.4393   0.0304   0.5327     C
C       0.4393   0.0304   0.9673     C
C       0.4393   0.4089   0.5327     C
C       0.4393   0.4089   0.9673     C
C      0.46725  0.53275   0.0644     C
C      0.46725  0.53275   0.4356     C
C      0.46725   0.9345   0.0644     C
C      0.46725   0.9345   0.4356     C
Fe     0.48411  0.74206     0.25    Fe
O       0.4883   0.6513   0.1596     O
O       0.4883   0.6513   0.3404     O
O       0.4883    0.837   0.1596     O
O       0.4883    0.837   0.3404     O
O       0.5117    0.163   0.6596     O
O       0.5117    0.163   0.8404     O
O       0.5117   0.3487   0.6596     O
O       0.5117   0.3487   0.8404     O
Fe     0.51589  0.25794     0.75    Fe
C      0.53275   0.0655   0.5644     C
C      0.53275   0.0655   0.9356     C
C      0.53275  0.46725   0.5644     C
C      0.53275  0.46725   0.9356     C
C       0.5607   0.5911   0.0327     C
C       0.5607   0.5911   0.4673     C
C       0.5607   0.9696   0.0327     C
C       0.5607   0.9696   0.4673     C
C      0.56835   0.1367   0.6333     C
C      0.56835   0.1367   0.8667     C
C      0.56835  0.43165   0.6333     C
C      0.56835  0.43165   0.8667     C
C       0.5911   0.0304   0.5327     C
C       0.5911   0.0304   0.9673     C
C       0.5911   0.5607   0.5327     C
C       0.5911   0.5607   0.9673     C
O       0.6201   0.6861   0.0604     O
O       0.6201   0.6861   0.4396     O
O       0.6201    0.934   0.0604     O
O       0.6201    0.934   0.4396     O
N       0.6434   0.8217     0.25     N
O       0.6513    0.163   0.6596     O
O       0.6513    0.163   0.8404     O
O       0.6513   0.4883   0.6596     O
O       0.6513   0.4883   0.8404     O
O      0.66667  0.33333     0.75     O
H       0.6774   0.7243     0.25     H
H       0.6774   0.9531     0.25     H
O       0.6861    0.066   0.5604     O
O       0.6861    0.066   0.9396     O
O       0.6861   0.6201   0.5604     O
O       0.6861   0.6201   0.9396     O
C       0.7002   0.7912     0.25     C
C       0.7002    0.909     0.25     C
H       0.7243   0.0469     0.75     H
H       0.7243   0.6774     0.75     H
Fe     0.74206  0.25794     0.75    Fe
Fe     0.74206  0.48411     0.75    Fe
C       0.7912    0.091     0.75     C
C       0.7912   0.7002     0.75     C
N       0.7945   0.8541     0.25     N
N       0.7945   0.9404     0.25     N
N       0.8217   0.1783     0.75     N
N       0.8217   0.6434     0.75     N
O        0.837   0.3487   0.6596     O
O        0.837   0.3487   0.8404     O
O        0.837   0.4883   0.6596     O
O        0.837   0.4883   0.8404     O
Cu     0.85066  0.92533     0.75    Cu
N       0.8541   0.0596     0.75     N
N       0.8541   0.7945     0.75     N
C       0.8633  0.43165   0.6333     C
C       0.8633  0.43165   0.8667     C
C        0.909   0.2088     0.75     C
C        0.909   0.7002     0.75     C
Cu     0.92533  0.07467     0.25    Cu
Cu     0.92533  0.85066     0.25    Cu
O        0.934   0.3139   0.5604     O
O        0.934   0.3139   0.9396     O
O        0.934   0.6201   0.5604     O
O        0.934   0.6201   0.9396     O
C       0.9345  0.46725   0.5644     C
C       0.9345  0.46725   0.9356     C
N       0.9404   0.1459     0.75     N
N       0.9404   0.7945     0.75     N
H       0.9531   0.2757     0.75     H
H       0.9531   0.6774     0.75     H
C       0.9696   0.4089   0.5327     C
C       0.9696   0.4089   0.9673     C
C       0.9696   0.5607   0.5327     C
C       0.9696   0.5607   0.9673     C
