data_I
_chemical_name_common  '/home/zhangsd/repos/MofS-CGCNN/ML/data/SSD/clean_cifs/HAKWAU_clean'
_cell_length_a 13.16960
_cell_length_b 13.16960
_cell_length_c 14.79730
_cell_angle_alpha 90.00000
_cell_angle_beta  90.00000
_cell_angle_gamma 120.00000
_space_group_name_H-M_alt      'P 1'


loop_
_space_group_symop_operation_xyz
  'x, y, z' 

loop_
_atom_site_label
_atom_site_fract_x
_atom_site_fract_y
_atom_site_fract_z
_atom_site_type_symbol
Cu         0.0      0.0      0.0    Cu
Cu         0.0      0.0      0.5    Cu
H          0.0   0.5662      0.0     H
H          0.0   0.5662      0.5     H
C          0.0   0.6368      0.0     C
C          0.0   0.6368      0.5     C
N          0.0    0.849      0.0     N
N          0.0    0.849      0.5     N
C       0.0722   0.7264   0.0587     C
C       0.0722   0.7264   0.4413     C
C       0.0724   0.8315   0.0543     C
C       0.0724   0.8315   0.4457     C
H       0.1069   0.2319   0.0905     H
H       0.1069   0.2319   0.4095     H
O       0.1178   0.6079   0.1478     O
O       0.1178   0.6079   0.3522     O
H        0.125   0.8931   0.0905     H
H        0.125   0.8931   0.4095     H
N        0.151    0.151      0.0     N
N        0.151    0.151      0.5     N
C       0.1515   0.7116    0.126     C
C       0.1515   0.7116    0.374     C
Mg       0.166  0.53065     0.25    Mg
C       0.1685   0.2409   0.0543     C
C       0.1685   0.2409   0.4457     C
O       0.1972   0.4349   0.1527     O
O       0.1972   0.4349   0.3473     O
H       0.2319   0.1069   0.5905     H
H       0.2319   0.1069   0.9095     H
O       0.2377   0.8028   0.1527     O
O       0.2377   0.8028   0.3473     O
C       0.2409   0.1685   0.5543     C
C       0.2409   0.1685   0.9457     C
C       0.2736   0.3458   0.0587     C
C       0.2736   0.3458   0.4413     C
C       0.2884   0.4399    0.126     C
C       0.2884   0.4399    0.374     C
O      0.33333  0.66667     0.25     O
C       0.3458   0.2736   0.5587     C
C       0.3458   0.2736   0.9413     C
C       0.3632   0.3632      0.0     C
C       0.3632   0.3632      0.5     C
Mg     0.36465    0.834     0.25    Mg
O       0.3921   0.5099   0.1478     O
O       0.3921   0.5099   0.3522     O
H       0.4338   0.4338      0.0     H
H       0.4338   0.4338      0.5     H
O       0.4349   0.1972   0.6527     O
O       0.4349   0.1972   0.8473     O
C       0.4399   0.2884    0.626     C
C       0.4399   0.2884    0.874     C
Mg     0.46935  0.63535     0.25    Mg
O       0.4901   0.8822   0.1478     O
O       0.4901   0.8822   0.3522     O
O       0.5099   0.3921   0.6478     O
O       0.5099   0.3921   0.8522     O
Mg     0.53065    0.166     0.75    Mg
C       0.5601   0.8485    0.126     C
C       0.5601   0.8485    0.374     C
O       0.5651   0.7623   0.1527     O
O       0.5651   0.7623   0.3473     O
H       0.5662      0.0      0.0     H
H       0.5662      0.0      0.5     H
O       0.6079   0.1178   0.6478     O
O       0.6079   0.1178   0.8522     O
Mg     0.63535  0.46935     0.75    Mg
C       0.6368      0.0      0.0     C
C       0.6368      0.0      0.5     C
C       0.6542   0.9278   0.0587     C
C       0.6542   0.9278   0.4413     C
O      0.66667  0.33333     0.75     O
C       0.7116   0.1515    0.626     C
C       0.7116   0.1515    0.874     C
C       0.7264   0.0722   0.5587     C
C       0.7264   0.0722   0.9413     C
C       0.7591   0.9276   0.0543     C
C       0.7591   0.9276   0.4457     C
O       0.7623   0.5651   0.6527     O
O       0.7623   0.5651   0.8473     O
H       0.7681    0.875   0.0905     H
H       0.7681    0.875   0.4095     H
O       0.8028   0.2377   0.6527     O
O       0.8028   0.2377   0.8473     O
C       0.8315   0.0724   0.5543     C
C       0.8315   0.0724   0.9457     C
Mg       0.834  0.36465     0.75    Mg
C       0.8485   0.5601    0.626     C
C       0.8485   0.5601    0.874     C
N        0.849      0.0      0.0     N
N        0.849      0.0      0.5     N
H        0.875   0.7681   0.5905     H
H        0.875   0.7681   0.9095     H
O       0.8822   0.4901   0.6478     O
O       0.8822   0.4901   0.8522     O
H       0.8931    0.125   0.5905     H
H       0.8931    0.125   0.9095     H
C       0.9276   0.7591   0.5543     C
C       0.9276   0.7591   0.9457     C
C       0.9278   0.6542   0.5587     C
C       0.9278   0.6542   0.9413     C
