data_I
_chemical_name_common  '/home/zhangsd/repos/MofS-CGCNN/ML/data/SSD/clean_cifs/HALVAU_clean'
_cell_length_a 10.07000
_cell_length_b 13.10700
_cell_length_c 15.21600
_cell_angle_alpha 78.42000
_cell_angle_beta  76.52700
_cell_angle_gamma 68.20400
_space_group_name_H-M_alt      'P 1'


loop_
_space_group_symop_operation_xyz
  'x, y, z' 

loop_
_atom_site_label
_atom_site_fract_x
_atom_site_fract_y
_atom_site_fract_z
_atom_site_type_symbol
H       0.0136   0.7445   0.2597     H
Ni     0.01571  0.57777  0.34037    Ni
O       0.0293  0.45582  0.77014     O
C       0.0497   0.4533  0.91943     C
O      0.06363  0.25703  0.70356     O
H        0.071   0.2245   0.6587     H
C       0.0935   0.3999  0.83387     C
C       0.0951   0.5193  0.04014     C
H       0.1267   0.9457   0.5571     H
O       0.1331  0.11208  0.60231     O
C       0.1476   0.4723  0.95945     C
O       0.1584  0.71055  0.16631     O
H       0.1591   0.5327   0.0679     H
H       0.1718   0.0818   0.7899     H
O       0.1735  0.43017   0.5801     O
O       0.1875  0.30459  0.83494     O
O       0.1888   0.0839  0.84151     O
H       0.2057   0.7703   0.5173     H
O        0.218  0.56941  0.27525     O
C        0.223   0.9008   0.5576     C
C        0.248   0.6292   0.2036     C
C       0.2582   0.0516   0.6166     C
Ni     0.26229  0.19755  0.73966    Ni
H       0.2693   0.0947   0.8327     H
C       0.2703   0.7959   0.5335     C
H       0.2745   0.5095   0.7876     H
H       0.2808   0.5847   0.5865     H
C       0.3029   0.3827   0.5923     C
C        0.303   0.4482  0.91764     C
C       0.3152   0.9403   0.5825     C
O       0.3358  0.07376  0.65742     O
C       0.3449   0.4757   0.8245     C
O       0.3501  0.29707  0.64398     O
C         0.37   0.5503  0.55158     C
H       0.3745   0.6627   0.0329     H
H       0.3842   0.3803    0.032     H
H       0.3951   0.2748    0.446     H
C       0.4048   0.5999   0.1612     C
C       0.4063   0.4406  0.54055     C
C       0.4098   0.3979   0.9695     C
C       0.4144   0.7276  0.53302     C
C       0.4453   0.6271   0.0692     C
C        0.459   0.8741   0.5805     C
C       0.4606   0.6116  0.51291     C
H       0.4767   0.0995   0.4039     H
H       0.4849   0.5251   0.2751     H
C       0.4891   0.4535   0.7866     C
C       0.4923   0.2312   0.4444     C
C       0.5077   0.7688   0.5556     C
C       0.5109   0.5465   0.2134     C
H       0.5151   0.4749   0.7249     H
H       0.5233   0.9005   0.5961     H
C       0.5394   0.3884  0.48709     C
C        0.541   0.1259   0.4195     C
C       0.5547   0.3729   0.9308     C
C       0.5856   0.2724  0.46698     C
C       0.5902   0.6021   0.0305     C
C       0.5937   0.5594  0.45945     C
C       0.5952   0.4001   0.8388     C
H       0.6049   0.7252    0.554     H
H       0.6158   0.6197    0.968     H
H       0.6255   0.3373   0.9671     H
C         0.63   0.4497  0.44842     C
O       0.6499  0.70293  0.35602     O
C       0.6551   0.5243   0.1755     C
O       0.6642  0.92624  0.34258     O
C       0.6848   0.0597   0.4175     C
C        0.697   0.5518  0.08236     C
C       0.6971   0.6173   0.4077     C
H       0.7192   0.4153   0.4135     H
H       0.7255   0.4905   0.2124     H
C       0.7297   0.2041   0.4665     C
H       0.7307   0.9053   0.1673     H
Ni     0.73771  0.80245  0.26034    Ni
C       0.7418   0.9484   0.3834     C
C        0.752   0.3708   0.7964     C
C        0.777   0.0992   0.4424     C
O        0.782  0.43059  0.72475     O
H       0.7943   0.2297   0.4827     H
O       0.8112   0.9161  0.15849     O
O       0.8125  0.69541  0.16506     O
O       0.8265  0.56983   0.4199     O
H       0.8282   0.9182   0.2101     H
H       0.8409   0.4673   0.9321     H
O       0.8416  0.28945  0.83369     O
C       0.8524   0.5277  0.04055     C
O       0.8669  0.88792  0.39769     O
H       0.8733   0.0543   0.4429     H
C       0.9049   0.4807  0.95986     C
C       0.9065   0.6001  0.16613     C
H        0.929   0.7755   0.3413     H
O      0.93637  0.74297  0.29644     O
C       0.9503   0.5467  0.08057     C
O       0.9707  0.54418  0.22986     O
Ni     0.98429  0.42223  0.65963    Ni
H       0.9864   0.2555   0.7403     H
