data_I
_chemical_name_common  '/home/zhangsd/repos/MofS-CGCNN/ML/data/SSD/clean_cifs/HAQRID_clean'
_cell_length_a 12.32150
_cell_length_b 30.71100
_cell_length_c 22.72240
_cell_angle_alpha 90.00000
_cell_angle_beta  94.22900
_cell_angle_gamma 90.00000
_space_group_name_H-M_alt      'P 1'


loop_
_space_group_symop_operation_xyz
  'x, y, z' 

loop_
_atom_site_label
_atom_site_fract_x
_atom_site_fract_y
_atom_site_fract_z
_atom_site_type_symbol
Zn         0.0   0.0516     0.25    Zn
Zn         0.0   0.9484     0.75    Zn
C       0.0093  0.02876  0.57787     C
C       0.0093  0.97124  0.07787     C
H       0.0115   0.3128   0.2992     H
H       0.0115   0.6872   0.7992     H
H       0.0197   0.0906    0.038     H
H       0.0197   0.9094    0.538     H
C       0.0293  0.40173  0.57612     C
C       0.0293  0.59827  0.07612     C
C       0.0332  0.24983  0.27913     C
C       0.0332  0.75017  0.77913     C
C       0.0391  0.07168  0.00861     C
C       0.0391  0.92832  0.50861     C
C       0.0399  0.05755  0.53462     C
C       0.0399  0.94245  0.03462     C
C        0.045  0.28725  0.31278     C
C        0.045  0.71275  0.81278     C
O       0.0523   0.3935  0.52439     O
O       0.0523   0.6065  0.02439     O
O       0.0551  0.03707  0.34459     O
O       0.0551  0.96293  0.84459     O
H       0.0593   0.4075   0.8222     H
H       0.0593   0.5925   0.3222     H
H       0.0611   0.0191   0.6068     H
H       0.0611   0.9809   0.1068     H
O         0.07  0.36162  0.38558     O
O         0.07  0.63838  0.88558     O
H       0.0779    0.187   0.2773     H
H       0.0779    0.813   0.7773     H
C       0.0843  0.21226   0.2998     C
C       0.0843  0.78774   0.7998     C
C       0.0848  0.41089  0.91131     C
C       0.0848  0.58911  0.41131     C
C       0.0965  0.01454  0.92172     C
C       0.0965  0.98546  0.42172     C
O       0.0986  0.40231  0.61863     O
O       0.0986  0.59769  0.11863     O
C       0.1065  0.28722  0.36684     C
C       0.1065  0.71278  0.86684     C
C       0.1122  0.41258  0.85279     C
C       0.1122  0.58742  0.35279     C
C       0.1168  0.32868  0.40322     C
C       0.1168  0.67132  0.90322     C
C       0.1261  0.01995  0.37757     C
C       0.1261  0.98005  0.87757     C
H       0.1333   0.0642   0.1232     H
H       0.1333   0.9358   0.6232     H
C       0.1461  0.21165  0.35464     C
C       0.1461  0.78835  0.85464     C
C       0.1464  0.05767  0.00798     C
C       0.1464  0.94233  0.50798     C
H        0.147   0.4171   0.9952     H
H        0.147   0.5829   0.4952     H
C        0.155  0.07303   0.5331     C
C        0.155  0.92697   0.0331     C
C        0.156  0.24962  0.38684     C
C        0.156  0.75038  0.88684     C
O       0.1583   0.0769  0.23357     O
O       0.1583   0.9231  0.73357     O
C       0.1646  0.41883  0.95614     C
C       0.1646  0.58117  0.45614     C
O        0.172  0.32518  0.45104     O
O        0.172  0.67482  0.95104     O
O       0.1742  0.09824  0.49172     O
O       0.1742  0.90176  0.99172     O
C       0.1746  0.02917   0.9643     C
C       0.1746  0.97083   0.4643     C
O       0.1748  0.41917  0.73754     O
O       0.1748  0.58083  0.23754     O
O       0.1792  0.13656  0.34685     O
O       0.1792  0.86344  0.84685     O
Zn     0.19465  0.36918  0.51208    Zn
Zn     0.19465  0.63082  0.01208    Zn
H       0.1972   0.2497   0.4228     H
H       0.1972   0.7503   0.9228     H
C       0.1973  0.17008  0.37679     C
C       0.1973  0.82992  0.87679     C
C       0.2043  0.07015   0.1143     C
C       0.2043  0.92985   0.6143     C
C       0.2176  0.42171  0.84022     C
C       0.2176  0.57829  0.34022     C
O       0.2234  0.06107  0.57188     O
O       0.2234  0.93893  0.07188     O
O       0.2257     0.03  0.37847     O
O       0.2257     0.97  0.87847     O
C       0.2287  0.07058  0.05605     C
C       0.2287  0.92942  0.55605     C
Zn     0.24016  0.41717  0.66102    Zn
Zn     0.24016  0.58283  0.16102    Zn
O        0.243  0.32754  0.57606     O
O        0.243  0.67246  0.07606     O
H       0.2462   0.0198   0.9635     H
H       0.2462   0.9802   0.4635     H
C       0.2484   0.4223   0.7772     C
C       0.2484   0.5777   0.2772     C
C       0.2516   0.0777   0.2228     C
C       0.2516   0.9223   0.7228     C
H       0.2538   0.4802   0.0365     H
H       0.2538   0.5198   0.5365     H
O        0.257  0.17246  0.42394     O
O        0.257  0.82754  0.92394     O
Zn     0.25984  0.08283  0.33898    Zn
Zn     0.25984  0.91717  0.83898    Zn
C       0.2713  0.42942  0.94395     C
C       0.2713  0.57058  0.44395     C
O       0.2743     0.47  0.62153     O
O       0.2743     0.53  0.12153     O
O       0.2766  0.43893  0.42812     O
O       0.2766  0.56107  0.92812     O
C       0.2824  0.07829  0.15978     C
C       0.2824  0.92171  0.65978     C
C       0.2957  0.42985   0.8857     C
C       0.2957  0.57015   0.3857     C
C       0.3027  0.32992  0.62321     C
C       0.3027  0.67008  0.12321     C
H       0.3028   0.2503   0.5772     H
H       0.3028   0.7497   0.0772     H
Zn     0.30535  0.13082  0.48792    Zn
Zn     0.30535  0.86918  0.98792    Zn
O       0.3208  0.36344  0.65315     O
O       0.3208  0.63656  0.15315     O
O       0.3252  0.08083  0.26246     O
O       0.3252  0.91917  0.76246     O
C       0.3254  0.47083   0.0357     C
C       0.3254  0.52917   0.5357     C
O       0.3258  0.40176  0.50828     O
O       0.3258  0.59824  0.00828     O
O        0.328  0.17482  0.54896     O
O        0.328  0.82518  0.04896     O
C       0.3354  0.08117  0.04386     C
C       0.3354  0.91883  0.54386     C
O       0.3417   0.4231  0.76643     O
O       0.3417   0.5769  0.26643     O
C        0.344  0.25038  0.61316     C
C        0.344  0.74962  0.11316     C
C        0.345  0.42697   0.4669     C
C        0.345  0.57303   0.9669     C
H        0.353   0.0829   0.0048     H
H        0.353   0.9171   0.5048     H
C       0.3536  0.44233  0.99202     C
C       0.3536  0.55767  0.49202     C
C       0.3539  0.28835  0.64536     C
C       0.3539  0.71165  0.14536     C
H       0.3667   0.4358   0.8768     H
H       0.3667   0.5642   0.3768     H
C       0.3739  0.48005  0.62243     C
C       0.3739  0.51995  0.12243     C
C       0.3832  0.17132  0.59678     C
C       0.3832  0.82868  0.09678     C
C       0.3878  0.08742  0.14721     C
C       0.3878  0.91258  0.64721     C
C       0.3935  0.21278  0.63316     C
C       0.3935  0.78722  0.13316     C
O       0.4014  0.09769  0.38137     O
O       0.4014  0.90231  0.88137     O
C       0.4035  0.48546  0.07828     C
C       0.4035  0.51454  0.57828     C
C       0.4152  0.08911  0.08869     C
C       0.4152  0.91089  0.58869     C
C       0.4157  0.28774   0.7002     C
C       0.4157  0.71226   0.2002     C
H       0.4221    0.313   0.7227     H
H       0.4221    0.687   0.2227     H
O         0.43  0.13838  0.61442     O
O         0.43  0.86162  0.11442     O
H       0.4389   0.4809   0.3932     H
H       0.4389   0.5191   0.8932     H
H       0.4407   0.0925   0.1778     H
H       0.4407   0.9075   0.6778     H
O       0.4449  0.46293  0.65541     O
O       0.4449  0.53707  0.15541     O
O       0.4477   0.1065  0.47561     O
O       0.4477   0.8935  0.97561     O
C        0.455  0.21275  0.68722     C
C        0.455  0.78725  0.18722     C
C       0.4601  0.44245  0.46538     C
C       0.4601  0.55755  0.96538     C
C       0.4609  0.42832  0.99139     C
C       0.4609  0.57168  0.49139     C
C       0.4668  0.25017  0.72087     C
C       0.4668  0.74983  0.22087     C
C       0.4707  0.09827  0.42388     C
C       0.4707  0.90173  0.92388     C
H       0.4803   0.4094    0.962     H
H       0.4803   0.5906    0.462     H
H       0.4885   0.1872   0.7008     H
H       0.4885   0.8128   0.2008     H
C       0.4907  0.47124  0.42213     C
C       0.4907  0.52876  0.92213     C
Zn         0.5   0.4484     0.75    Zn
Zn         0.5   0.5516     0.25    Zn
C       0.5093  0.47124  0.07787     C
C       0.5093  0.52876  0.57787     C
H       0.5115   0.1872   0.7992     H
H       0.5115   0.8128   0.2992     H
H       0.5197   0.4094    0.538     H
H       0.5197   0.5906    0.038     H
C       0.5293  0.09827  0.07612     C
C       0.5293  0.90173  0.57612     C
C       0.5332  0.25017  0.77913     C
C       0.5332  0.74983  0.27913     C
C       0.5391  0.42832  0.50861     C
C       0.5391  0.57168  0.00861     C
C       0.5399  0.44245  0.03462     C
C       0.5399  0.55755  0.53462     C
C        0.545  0.21275  0.81278     C
C        0.545  0.78725  0.31278     C
O       0.5523   0.1065  0.02439     O
O       0.5523   0.8935  0.52439     O
O       0.5551  0.46293  0.84459     O
O       0.5551  0.53707  0.34459     O
H       0.5593   0.0925   0.3222     H
H       0.5593   0.9075   0.8222     H
H       0.5611   0.4809   0.1068     H
H       0.5611   0.5191   0.6068     H
O         0.57  0.13838  0.88558     O
O         0.57  0.86162  0.38558     O
H       0.5779    0.313   0.7773     H
H       0.5779    0.687   0.2773     H
C       0.5843  0.28774   0.7998     C
C       0.5843  0.71226   0.2998     C
C       0.5848  0.08911  0.41131     C
C       0.5848  0.91089  0.91131     C
C       0.5965  0.48546  0.42172     C
C       0.5965  0.51454  0.92172     C
O       0.5986  0.09769  0.11863     O
O       0.5986  0.90231  0.61863     O
C       0.6065  0.21278  0.86684     C
C       0.6065  0.78722  0.36684     C
C       0.6122  0.08742  0.35279     C
C       0.6122  0.91258  0.85279     C
C       0.6168  0.17132  0.90322     C
C       0.6168  0.82868  0.40322     C
C       0.6261  0.48005  0.87757     C
C       0.6261  0.51995  0.37757     C
H       0.6333   0.4358   0.6232     H
H       0.6333   0.5642   0.1232     H
C       0.6461  0.28835  0.85464     C
C       0.6461  0.71165  0.35464     C
C       0.6464  0.44233  0.50798     C
C       0.6464  0.55767  0.00798     C
H        0.647   0.0829   0.4952     H
H        0.647   0.9171   0.9952     H
C        0.655  0.42697   0.0331     C
C        0.655  0.57303   0.5331     C
C        0.656  0.25038  0.88684     C
C        0.656  0.74962  0.38684     C
O       0.6583   0.4231  0.73357     O
O       0.6583   0.5769  0.23357     O
C       0.6646  0.08117  0.45614     C
C       0.6646  0.91883  0.95614     C
O        0.672  0.17482  0.95104     O
O        0.672  0.82518  0.45104     O
O       0.6742  0.40176  0.99172     O
O       0.6742  0.59824  0.49172     O
C       0.6746  0.47083   0.4643     C
C       0.6746  0.52917   0.9643     C
O       0.6748  0.08083  0.23754     O
O       0.6748  0.91917  0.73754     O
O       0.6792  0.36344  0.84685     O
O       0.6792  0.63656  0.34685     O
Zn     0.69465  0.13082  0.01208    Zn
Zn     0.69465  0.86918  0.51208    Zn
H       0.6972   0.2503   0.9228     H
H       0.6972   0.7497   0.4228     H
C       0.6973  0.32992  0.87679     C
C       0.6973  0.67008  0.37679     C
C       0.7043  0.42985   0.6143     C
C       0.7043  0.57015   0.1143     C
C       0.7176  0.07829  0.34022     C
C       0.7176  0.92171  0.84022     C
O       0.7234  0.43893  0.07188     O
O       0.7234  0.56107  0.57188     O
O       0.7257     0.47  0.87847     O
O       0.7257     0.53  0.37847     O
C       0.7287  0.42942  0.55605     C
C       0.7287  0.57058  0.05605     C
Zn     0.74016  0.08283  0.16102    Zn
Zn     0.74016  0.91717  0.66102    Zn
O        0.743  0.17246  0.07606     O
O        0.743  0.82754  0.57606     O
H       0.7462   0.4802   0.4635     H
H       0.7462   0.5198   0.9635     H
C       0.7484   0.0777   0.2772     C
C       0.7484   0.9223   0.7772     C
C       0.7516   0.4223   0.7228     C
C       0.7516   0.5777   0.2228     C
H       0.7538   0.0198   0.5365     H
H       0.7538   0.9802   0.0365     H
O        0.757  0.32754  0.92394     O
O        0.757  0.67246  0.42394     O
Zn     0.75984  0.41717  0.83898    Zn
Zn     0.75984  0.58283  0.33898    Zn
C       0.7713  0.07058  0.44395     C
C       0.7713  0.92942  0.94395     C
O       0.7743     0.03  0.12153     O
O       0.7743     0.97  0.62153     O
O       0.7766  0.06107  0.92812     O
O       0.7766  0.93893  0.42812     O
C       0.7824  0.42171  0.65978     C
C       0.7824  0.57829  0.15978     C
C       0.7957  0.07015   0.3857     C
C       0.7957  0.92985   0.8857     C
C       0.8027  0.17008  0.12321     C
C       0.8027  0.82992  0.62321     C
H       0.8028   0.2497   0.0772     H
H       0.8028   0.7503   0.5772     H
Zn     0.80535  0.36918  0.98792    Zn
Zn     0.80535  0.63082  0.48792    Zn
O       0.8208  0.13656  0.15315     O
O       0.8208  0.86344  0.65315     O
O       0.8252  0.41917  0.76246     O
O       0.8252  0.58083  0.26246     O
C       0.8254  0.02917   0.5357     C
C       0.8254  0.97083   0.0357     C
O       0.8258  0.09824  0.00828     O
O       0.8258  0.90176  0.50828     O
O        0.828  0.32518  0.04896     O
O        0.828  0.67482  0.54896     O
C       0.8354  0.41883  0.54386     C
C       0.8354  0.58117  0.04386     C
O       0.8417   0.0769  0.26643     O
O       0.8417   0.9231  0.76643     O
C        0.844  0.24962  0.11316     C
C        0.844  0.75038  0.61316     C
C        0.845  0.07303   0.9669     C
C        0.845  0.92697   0.4669     C
H        0.853   0.4171   0.5048     H
H        0.853   0.5829   0.0048     H
C       0.8536  0.05767  0.49202     C
C       0.8536  0.94233  0.99202     C
C       0.8539  0.21165  0.14536     C
C       0.8539  0.78835  0.64536     C
H       0.8667   0.0642   0.3768     H
H       0.8667   0.9358   0.8768     H
C       0.8739  0.01995  0.12243     C
C       0.8739  0.98005  0.62243     C
C       0.8832  0.32868  0.09678     C
C       0.8832  0.67132  0.59678     C
C       0.8878  0.41258  0.64721     C
C       0.8878  0.58742  0.14721     C
C       0.8935  0.28722  0.13316     C
C       0.8935  0.71278  0.63316     C
O       0.9014  0.40231  0.88137     O
O       0.9014  0.59769  0.38137     O
C       0.9035  0.01454  0.57828     C
C       0.9035  0.98546  0.07828     C
C       0.9152  0.41089  0.58869     C
C       0.9152  0.58911  0.08869     C
C       0.9157  0.21226   0.2002     C
C       0.9157  0.78774   0.7002     C
H       0.9221    0.187   0.2227     H
H       0.9221    0.813   0.7227     H
O         0.93  0.36162  0.11442     O
O         0.93  0.63838  0.61442     O
H       0.9389   0.0191   0.8932     H
H       0.9389   0.9809   0.3932     H
H       0.9407   0.4075   0.6778     H
H       0.9407   0.5925   0.1778     H
O       0.9449  0.03707  0.15541     O
O       0.9449  0.96293  0.65541     O
O       0.9477   0.3935  0.97561     O
O       0.9477   0.6065  0.47561     O
C        0.955  0.28725  0.18722     C
C        0.955  0.71275  0.68722     C
C       0.9601  0.05755  0.96538     C
C       0.9601  0.94245  0.46538     C
C       0.9609  0.07168  0.49139     C
C       0.9609  0.92832  0.99139     C
C       0.9668  0.24983  0.22087     C
C       0.9668  0.75017  0.72087     C
C       0.9707  0.40173  0.92388     C
C       0.9707  0.59827  0.42388     C
H       0.9803   0.0906    0.462     H
H       0.9803   0.9094    0.962     H
H       0.9885   0.3128   0.2008     H
H       0.9885   0.6872   0.7008     H
C       0.9907  0.02876  0.92213     C
C       0.9907  0.97124  0.42213     C
