data_I
_chemical_name_common  '/home/zhangsd/repos/MofS-CGCNN/ML/data/SSD/clean_cifs/HEFFAB_charged'
_cell_length_a 19.83400
_cell_length_b 20.22400
_cell_length_c 20.28400
_cell_angle_alpha 87.48000
_cell_angle_beta  64.41800
_cell_angle_gamma 82.89600
_space_group_name_H-M_alt      'P 1'


loop_
_space_group_symop_operation_xyz
  'x, y, z' 

loop_
_atom_site_label
_atom_site_fract_x
_atom_site_fract_y
_atom_site_fract_z
_atom_site_type_symbol
C       0.0014   0.3537   0.6641     C
C       0.0029   0.1527   0.6004     C
H       0.0029   0.6895   0.3153     H
O       0.0066   0.1478   0.2067     O
C        0.007   0.6253   0.4021     C
C       0.0082   0.4314    0.156     C
N       0.0099   0.4396   0.5834     N
H       0.0116   0.4467   0.9197     H
H       0.0126   0.6025   0.9454     H
O       0.0127   0.9773   0.7559     O
C       0.0146   0.4048   0.8986     C
C       0.0157   0.8901   0.1907     C
C       0.0162   0.4062   0.6899     C
C       0.0162   0.4484   0.2175     C
H       0.0183   0.1944   0.3211     H
C       0.0215   0.4615   0.6398     C
C       0.0217   0.8266   0.1636     C
H       0.0224   0.4076   0.7337     H
C       0.0229   0.2195   0.5821     C
C       0.0233   0.2821    0.837     C
C       0.0248   0.6639   0.4456     C
C       0.0259    0.127   0.3945     C
N       0.0306   0.5794   0.5383     N
C       0.0318   0.2159   0.7975     C
H       0.0335   0.9682   0.4096     H
C       0.0361   0.6448   0.5108     C
C       0.0363   0.5261   0.6472     C
C       0.0377   0.7357    0.425     C
C       0.0378   0.5809   0.6016     C
H       0.0398    0.121   0.6056     H
C       0.0439    0.089   0.7431     C
C       0.0445   0.5394   0.7158     C
C       0.0446   0.6769   0.1342     C
C       0.0477   0.6848   0.5592     C
C       0.0481   0.8987   0.5786     C
C       0.0489   0.6155   0.1034     C
C       0.0494   0.0207   0.7133     C
C       0.0495   0.6477   0.6137     C
C         0.05    0.176   0.3431     C
H       0.0508   0.4232   0.1104     H
H       0.0522   0.9192   0.1641     H
H       0.0533   0.7309   0.5536     H
H       0.0572   0.6622   0.6536     H
Cd     0.05805  0.48219  0.46921    Cd
N       0.0592   0.8688   0.3896     N
H       0.0605    0.066   0.4601     H
N       0.0611   0.5731   0.8374     N
H       0.0624   0.8123   0.1184     H
C       0.0639   0.5938   0.9068     C
H       0.0652   0.4518   0.2133     H
H        0.068   0.9494   0.3246     H
H       0.0696   0.2329   0.5755     H
O       0.0701   0.9371   0.5327     O
C       0.0716    0.939   0.3707     C
C       0.0754   0.1008   0.4255     C
C       0.0825   0.3637   0.8697     C
O       0.0835    0.875   0.6092     O
C       0.0869   0.3024   0.8389     C
H        0.088   0.6907   0.1355     H
H        0.089   0.6343    0.898     H
C       0.0913   0.1949   0.7313     C
O       0.0915   0.0145   0.6469     O
H        0.092   0.5579   0.9221     H
C       0.0974   0.1315   0.7041     C
C       0.1016   0.7592    0.412     C
Mn      0.1039  0.87243   0.7134    Mn
H        0.113   0.2129   0.1934     H
C       0.1143    0.826   0.3946     C
C       0.1145   0.5474   0.7117     C
C       0.1191   0.5648   0.7744     C
C       0.1213   0.2003   0.3218     C
H       0.1218    0.946   0.3652     H
C       0.1237    0.573   0.0687     C
H       0.1279    0.224   0.7047     H
H       0.1333   0.2743   0.8192     H
O        0.134   0.5287   0.0223     O
C       0.1352   0.2491   0.2012     C
H       0.1381   0.1172   0.6589     H
H       0.1412   0.7292   0.4146     H
C       0.1417   0.1225   0.4084     C
O       0.1424     0.43   0.9153     O
O       0.1443   0.7673   0.6939     O
C       0.1452   0.2535   0.2654     C
O       0.1477   0.8748    0.796     O
H       0.1517   0.2964   0.1058     H
C       0.1519   0.3848   0.8714     C
H       0.1583   0.5409   0.6667     H
C       0.1588   0.2991    0.149     C
H        0.161   0.8406   0.3865     H
C       0.1657   0.1746   0.3549     C
H        0.167   0.5712   0.7713     H
O       0.1695   0.0535   0.4914     O
O       0.1737    0.581   0.0885     O
Mn     0.17462  0.95716  0.54331    Mn
C       0.1758    0.307   0.2771     C
H       0.1816   0.3098    0.321     H
C       0.1912   0.3511   0.1577     C
Cl      0.1949   0.4443   0.3829    Cl
C       0.1962   0.0911   0.4389     C
O       0.1967      0.4   0.0483     O
C       0.1982   0.3567   0.2252     C
H       0.2126   0.1909   0.3427     H
O       0.2141   0.3625   0.8204     O
C       0.2165   0.4043   0.1001     C
H        0.218   0.3941    0.234     H
Cd     0.21907  0.45948  0.94991    Cd
O       0.2249   0.9081   0.6114     O
O       0.2454   0.9169   0.4363     O
O       0.2494   0.4484   0.1113     O
O       0.2595   0.5493   0.8827     O
O       0.2596   0.1046   0.4145     O
H       0.2686    0.799   0.3903     H
H        0.283   0.6097   0.7665     H
Mn       0.284  0.53709  0.04658    Mn
H       0.2853   0.8149   0.6643     H
C       0.2878   0.5932   0.8958     C
O       0.2892   0.9827    0.566     O
O       0.2895   0.1354   0.5442     O
C       0.2915   0.9197   0.5821     C
C       0.3046   0.6459   0.7752     C
O       0.3061   0.5992   0.9491     O
Cl      0.3083   0.5519    0.609    Cl
C       0.3123   0.9178   0.3927     C
O       0.3131   0.5865    0.128     O
C       0.3143   0.8032   0.3481     C
C       0.3152   0.6481   0.8391     C
H       0.3182   0.6968   0.6813     H
Mn     0.32354  0.04578  0.46198    Mn
O       0.3257   0.3811   0.8925     O
C       0.3261   0.6974   0.7242     C
H       0.3268     0.71   0.3054     H
C       0.3305   0.8337   0.6535     C
H       0.3372   0.3962   0.2371     H
O       0.3439    0.461   0.9525     O
H       0.3469   0.6809   0.1811     H
C       0.3474    0.891   0.6079     C
C       0.3486   0.7507   0.2965     C
C       0.3489   0.6974   0.8487     C
C       0.3494   0.8623   0.3358     C
H        0.351   0.4201   0.3424     H
O       0.3536   0.9623   0.3902     O
H       0.3564   0.6982   0.8919     H
C       0.3599   0.7507   0.7371     C
C       0.3672   0.4084   0.9155     C
C       0.3742   0.7494   0.7963     C
C       0.3793   0.8054    0.682     C
H       0.3807   0.3789    0.114     H
C       0.3836   0.4094   0.2321     C
C       0.3847   0.5807   0.0867     C
C       0.3909   0.4247   0.2954     C
C       0.3993   0.6666    0.162     C
H       0.4006   0.7825   0.8033     H
O       0.4087   0.5479   0.0297     O
C       0.4123   0.7568   0.2341     C
C       0.4147   0.8666   0.2706     C
C       0.4199   0.9117   0.5864     C
O       0.4228   0.1022   0.3763     O
C       0.4304   0.3936   0.0995     C
C       0.4306    0.612   0.1128     C
H       0.4343   0.9465   0.5518     H
O       0.4357   0.0535   0.4655     O
H       0.4358   0.4323   0.0675     H
H       0.4369   0.9071   0.2603     H
N       0.4381   0.4125   0.1666     N
H       0.4424   0.5298   0.7917     H
Cd      0.4443  0.51675  0.52983    Cd
H       0.4456   0.2996    0.833     H
C       0.4456   0.7001   0.1832     C
C        0.447   0.3781   0.8906     C
C        0.447   0.8165   0.2227     C
C       0.4478   0.8323   0.6626     C
H       0.4537   0.3231     0.35     H
C       0.4546   0.0913   0.4132     C
H       0.4546   0.2627   0.4574     H
C        0.457   0.4466   0.2886     C
C       0.4588   0.3412   0.3898     C
H       0.4599   0.5614   0.8895     H
C       0.4604   0.3086    0.448     C
C       0.4665   0.4089   0.4002     C
C       0.4673   0.4631   0.3503     C
C       0.4676   0.8858   0.6117     C
H       0.4695   0.3573   0.0734     H
H       0.4697   0.5808   0.2687     H
H       0.4703   0.4469   0.9475     H
C       0.4719   0.3523   0.4934     C
C       0.4763   0.5842   0.3121     C
C       0.4776   0.3228   0.8453     C
N       0.4776   0.4146   0.4619     N
C       0.4778   0.5307   0.3591     C
H       0.4808   0.8148   0.6835     H
C       0.4814   0.3374   0.5578     C
H       0.4821   0.6821   0.3184     H
C       0.4852   0.6388   0.3377     C
C       0.4877   0.5469   0.7836     C
C       0.4919   0.4105    0.914     C
H        0.493   0.8205   0.1809     H
N       0.4945   0.5541   0.4122     N
C       0.4986    0.565   0.8416     C
C       0.4996   0.3773   0.6007     C
C       0.5004   0.6227   0.3993     C
C       0.5014    0.435   0.1584     C
N       0.5055   0.4459   0.5878     N
H        0.507   0.1795   0.8191     H
C       0.5081   0.5895    0.086     C
C       0.5123   0.4531   0.2164     C
C       0.5148   0.3612   0.6623     C
H       0.5179   0.3179   0.6816     H
C       0.5186   0.6626   0.4422     C
H       0.5192   0.1852   0.3165     H
C       0.5222   0.4693   0.6409     C
N       0.5224   0.5854   0.5381     N
C       0.5224   0.6772   0.1547     C
C       0.5237   0.4158   0.6879     C
C       0.5281   0.6477   0.5066     C
H       0.5297   0.5531   0.0525     H
H       0.5303   0.4192   0.7313     H
H       0.5305   0.6427   0.9266     H
C       0.5324   0.1142   0.3883     C
C       0.5327   0.5369   0.6497     C
C       0.5335   0.5911   0.5998     C
C       0.5396   0.6914    0.552     C
H       0.5401   0.4386   0.1105     H
C       0.5412   0.6588   0.6102     C
C        0.543   0.5534   0.7114     C
H       0.5454   0.7373   0.5426     H
C       0.5454   0.9087   0.5868     C
H       0.5463   0.6769     0.65     H
C       0.5522   0.1677   0.3374     C
C        0.553   0.1835   0.7773     C
C        0.553   0.6219   0.1094     C
C       0.5544   0.2999   0.8168     C
H       0.5544   0.7004    0.167     H
Cd      0.5557  0.48325  0.47017    Cd
H       0.5576   0.4702   0.2083     H
N       0.5619   0.5875   0.8334     N
H       0.5631   0.0929   0.7397     H
H       0.5642   0.5677   0.9325     H
O       0.5643   0.9465   0.5345     O
H       0.5657   0.0535   0.4482     H
C       0.5694    0.388   0.8872     C
C       0.5696   0.6064   0.9005     C
O       0.5772   0.8978   0.6237     O
C       0.5801   0.0883   0.4136     C
C       0.5853   0.1334   0.7294     C
C       0.5877   0.2432   0.7659     C
O       0.5913   0.4521   0.9703     O
H       0.5994   0.2175   0.1967     H
C       0.6007   0.3334    0.838     C
C       0.6091   0.5753   0.7046     C
C       0.6153   0.4193   0.9133     C
C       0.6164   0.5906   0.7679     C
H       0.6193   0.6211    0.886     H
C       0.6207   0.1946    0.318     C
C       0.6258   0.2506   0.2037     C
C       0.6328   0.5916   0.0845     C
C       0.6401   0.2493   0.2629     C
H       0.6436   0.3018   0.1081     H
O       0.6464   0.0377   0.6098     O
H        0.649   0.5799   0.6576     H
C       0.6506   0.1377   0.6642     C
C       0.6511   0.3026   0.1513     C
C       0.6514   0.2493   0.7035     C
C       0.6526    0.109   0.3921     C
H       0.6531   0.3191   0.8189     H
O       0.6561    0.539   0.0475     O
H       0.6628   0.6038   0.7629     H
C       0.6695   0.1663   0.3465     C
H       0.6732     0.29   0.6946     H
C       0.6739   0.3026   0.2758     C
O       0.6743   0.6189   0.1075     O
Mn     0.67646  0.95422  0.53802    Mn
H       0.6818   0.3032   0.3187     H
C       0.6848   0.3519   0.1609     C
C       0.6857   0.1968   0.6519     C
O       0.6869   0.4135    0.872     O
C       0.6877   0.0822   0.6073     C
Cl      0.6917   0.4481    0.391    Cl
O       0.6939   0.4008   0.0509     O
C       0.6954   0.3541   0.2248     C
C       0.7085   0.0803   0.4179     C
O       0.7105   0.8646   0.4558     O
O       0.7108   0.0173    0.434     O
C       0.7122   0.4068   0.1042     C
H       0.7147   0.1851   0.3357     H
Mn       0.716  0.46291  0.95342    Mn
H        0.717   0.3903   0.2335     H
H       0.7314    0.201   0.6097     H
O       0.7404   0.8954   0.5855     O
O       0.7405   0.4507   0.1173     O
O       0.7506   0.5516   0.8887     O
O       0.7546   0.0831   0.5637     O
O       0.7751   0.0919   0.3886     O
Cd     0.78093  0.54052  0.05009    Cd
H        0.782   0.6059    0.766     H
C       0.7835   0.5957   0.8999     C
O       0.7859   0.6375   0.1796     O
H       0.7874   0.8091   0.6573     H
C       0.8018   0.6433   0.7748     C
O       0.8033      0.6   0.9517     O
C       0.8038   0.9089   0.5611     C
Cl      0.8051   0.5557   0.6171    Cl
C       0.8088   0.6489   0.8423     C
H       0.8184   0.6902    0.679     H
C       0.8242    0.693   0.7229     C
Mn     0.82538  0.04284  0.45669    Mn
O       0.8263    0.419   0.9115     O
O       0.8305   0.9465   0.5086     O
H        0.833   0.4288   0.2287     H
C       0.8343   0.8254   0.6451     C
H        0.839   0.1594   0.6135     H
C       0.8412   0.7009    0.851     C
H       0.8417   0.4591   0.3333     H
C       0.8481   0.6152   0.1286     C
H       0.8483   0.7036   0.8942     H
O       0.8523   0.1252    0.204     O
C       0.8548   0.7465   0.7346     C
O       0.8557   0.2327   0.3061     O
O       0.8576     0.57   0.0847     O
C       0.8583   0.8775   0.5916     C
H       0.8588   0.2708   0.5854     H
H       0.8619   0.8828   0.3411     H
C       0.8648   0.7509   0.7988     C
O        0.866   0.4713   0.9777     O
H       0.8667   0.7257   0.1808     H
H       0.8721    0.776   0.2953     H
C       0.8763    0.427   0.9313     C
H       0.8782    0.054   0.6348     H
C       0.8787   0.7997   0.6782     C
C       0.8809   0.4352   0.2256     C
C       0.8855   0.4526   0.2883     C
C       0.8857    0.174   0.6054     C
H        0.887   0.7871   0.8066     H
Mn      0.8961  0.12757   0.2866    Mn
C       0.8984   0.2408    0.588     C
C       0.9026   0.8685   0.2959     C
H        0.908   0.4421   0.0779     H
O       0.9085   0.9855   0.3531     O
C       0.9087   0.8051   0.2687     C
H        0.911   0.3657    0.102     H
H        0.912   0.3093   0.8645     H
C       0.9131   0.6976   0.1611     C
O       0.9165    0.125   0.3908     O
C       0.9175   0.6363   0.1303     C
C       0.9246   0.8992   0.5745     C
C       0.9284    0.061   0.6293     C
O       0.9299   0.0629   0.4673     O
H       0.9304   0.7671   0.4245     H
H        0.932   0.0506   0.6754     H
H       0.9348   0.5482   0.7867     H
C       0.9361   0.4062   0.0932     C
H       0.9376   0.1877   0.8816     H
N       0.9389   0.4269   0.1626     N
H       0.9395    0.934   0.5399     H
N       0.9408   0.1312   0.6104     N
Cd     0.94195  0.51781  0.53079    Cd
H       0.9428   0.3378   0.3464     H
H       0.9467   0.2691   0.4464     H
H       0.9478   0.0808   0.8359     H
H       0.9492   0.5768   0.8896     H
C         0.95    0.824   0.6569     C
C       0.9505   0.3523   0.3863     C
C       0.9506   0.9793   0.2867     C
C       0.9511   0.3845   0.8966     C
C       0.9519   0.1013   0.4214     C
C       0.9523   0.3152   0.4408     C
C       0.9554   0.3231   0.8658     C
C       0.9555   0.4606   0.2842     C
C       0.9561    0.911   0.2569     C
H       0.9602    0.879   0.3944     H
C       0.9622   0.4191   0.3984     C
C       0.9623   0.2643    0.575     C
C       0.9637   0.4739   0.3528     C
C       0.9639   0.3552   0.4892     C
H       0.9665   0.0318   0.5904     H
C       0.9682   0.7841   0.2025     C
N       0.9694   0.4206   0.4617     N
C       0.9741    0.873   0.6055     C
C       0.9752   0.3361   0.5544     C
C       0.9767   0.7179    0.163     C
C       0.9771   0.7805   0.4179     C
H       0.9776   0.5924   0.2663     H
C       0.9783   0.1734   0.8364     C
C       0.9785   0.5385   0.3602     C
H       0.9817   0.8056   0.6789     H
C       0.9838   0.5516   0.7825     C
C       0.9838   0.5938   0.3101     C
C       0.9843   0.1099   0.8093     C
C       0.9854   0.5952   0.1014     C
O       0.9873   0.0227   0.2441     O
H       0.9874   0.3975   0.0546     H
H       0.9884   0.5533   0.0803     H
N       0.9901   0.5604   0.4166     N
C       0.9918   0.5686    0.844     C
C        0.993   0.3747   0.5979     C
O       0.9934   0.8522   0.7933     O
H       0.9971   0.3105   0.6847     H
C       0.9971   0.8473   0.3996     C
C       0.9986   0.6463   0.3359     C
