data_I
_chemical_name_common  '/home/zhangsd/repos/MofS-CGCNN/ML/data/SSD/clean_cifs/HEGNAJ_clean'
_cell_length_a 23.74220
_cell_length_b 23.74220
_cell_length_c 13.48880
_cell_angle_alpha 90.00000
_cell_angle_beta  90.00000
_cell_angle_gamma 120.00000
_space_group_name_H-M_alt      'P 1'


loop_
_space_group_symop_operation_xyz
  'x, y, z' 

loop_
_atom_site_label
_atom_site_fract_x
_atom_site_fract_y
_atom_site_fract_z
_atom_site_type_symbol
N      0.00073  0.51011  0.81557     N
O      0.00252  0.29136  0.87827     O
O      0.00303  0.60485  0.11603     O
H      0.00533  0.54067  0.77277     H
P      0.00652  0.66014  0.05621     P
P      0.00652  0.67971  0.38955     P
O       0.0106  0.71033     0.64     O
P      0.01304  0.33985  0.27712     P
Cr     0.01648   0.5761  0.24875    Cr
H       0.0252   0.2354   0.0838     H
Co     0.02706  0.42636  0.45331    Co
H      0.02833  0.81727  0.48687     H
O      0.03306  0.65607  0.30667     O
O      0.03372  0.29196  0.65833     O
O      0.03386  0.54351  0.37073     O
H      0.04063  0.84647  0.58727     H
O      0.04137  0.40842    0.325     O
O      0.04198  0.37783  0.54493     O
O      0.04364  0.86112  0.75597     O
O      0.04366   0.3664  0.02667     O
O       0.0445  0.66919   0.7884     O
H      0.04507  0.52723  0.05693     H
C      0.05167  0.50633  0.11313     C
H        0.055    0.237   0.9949     H
H      0.05657  0.47093  0.07943     H
N      0.05782  0.83556  0.53597     N
O      0.05817  0.59279  0.53983     O
O      0.06181  0.73151  0.44937     O
N      0.06226  0.25082   0.0587     N
O      0.06484  0.33636   0.2173     O
Co     0.06597  0.30628  0.78665    Co
C      0.06853  0.54437  0.84977     C
H       0.0731   0.1804   0.1259     H
O      0.07387  0.79871  0.87317     O
H      0.07393  0.21377  0.55577     H
O      0.07509  0.70038  0.00833     O
H      0.07523  0.58647  0.87107     H
H      0.07873  0.51887  0.90237     H
H       0.0802   0.8221   0.2044     H
H      0.08103  0.27677  0.41277     H
N      0.08251  0.47811  0.72537     N
P      0.08543  0.56952  0.45282     P
O      0.08677  0.24433  0.82307     O
H      0.08733  0.18267  0.45447     H
O      0.08901  0.50911  0.48973     O
Cr     0.09056  0.77371  0.58209    Cr
Ga     0.09303  0.73264  0.88002    Ga
H      0.09533  0.91267  0.45447     H
H      0.09633  0.48467  0.66157     H
P      0.09714  0.84924  0.78616     P
H       0.0972   0.8692   0.0382     H
H      0.09793  0.45647  0.75047     H
C       0.1027   0.2237   0.0963     C
C      0.10423  0.21937  0.49707     C
H      0.10533  0.56947  0.70487     H
H       0.1068   0.2546   0.2357     H
Ga     0.10704  0.34981  0.08458    Ga
H       0.1073   0.9269   0.1259     H
C      0.10963  0.54567  0.76297     C
N      0.11107  0.60884  0.20263     N
C      0.11397  0.55153  0.16373     C
C      0.11513  0.89577  0.49707     C
H      0.11957  0.52683  0.22243     H
C        0.121   0.8973   0.0963     C
C      0.12133  0.28167  0.44647     C
H      0.12227  0.63833  0.15353     H
C       0.1223   0.8575   0.1831     C
H      0.12313  0.69187  0.58287     H
O      0.12315  0.82368  0.70407     O
H        0.126    0.798   0.1061     H
H       0.1308    0.228   0.0382     H
H      0.13133  0.33867  0.56057     H
O      0.13204   0.3915   0.7935     O
H       0.1376   0.7477   0.2539     H
O      0.13888  0.18253  0.75597     O
H      0.13917  0.62603  0.25393     H
H      0.13943  0.85117  0.39027     H
H      0.13983  0.92607  0.55577     H
C       0.1425   0.2648   0.1831     C
N      0.14477  0.72893  0.60797     N
H       0.1478   0.8932   0.2357     H
H      0.14883  0.28827  0.39027     H
H       0.1506   0.4556   0.1798     H
H      0.15067  0.57133  0.12113     H
P      0.15076  0.24791  0.78616     P
O      0.15081  0.62302  0.42263     O
H      0.15133  0.72167  0.67177     H
H      0.15293  0.55937  0.79257     H
H      0.15353  0.19417  0.58727     H
H      0.15543  0.40857  0.46227     H
N      0.15656  0.82396   0.1489     N
O      0.15701  0.36719   0.9626     O
N      0.15729  0.33407  0.51777     N
O      0.15755  0.91323  0.82307     O
C      0.16033  0.87867  0.44647     C
N      0.16444  0.22227  0.53597     N
N      0.16889   0.4444   0.1307     N
C        0.173    0.788   0.2202     C
O      0.17578  0.75344   0.8436     O
N      0.17604   0.3326   0.1489     N
O      0.17632  0.29948  0.70407     O
N      0.17677  0.84271  0.51777     N
H       0.1779   0.2581   0.2044     H
H       0.1798   0.4725   0.0794     H
H       0.1804   0.1073   0.8741     H
H        0.182    0.945   0.9949     H
O      0.18253  0.04364  0.24403     O
P      0.18257  0.41876  0.88051     P
H      0.18267  0.09533  0.54553     H
H      0.18273  0.21107  0.48687     H
H       0.1845   0.3784   0.2764     H
H      0.18553  0.77347  0.43097     H
N      0.18856  0.93774   0.0587     N
C      0.19083  0.40187  0.48357     C
H       0.1935   0.7406   0.1109     H
H       0.1939   0.8155   0.2764     H
H      0.19417  0.04063  0.41273     H
O      0.19445  0.48414   0.9107     O
H      0.19573  0.91897  0.41277     H
O      0.20129  0.27517  0.87317     O
H        0.202    0.328   0.1061     H
H      0.20253  0.43867  0.62847     H
H      0.20733  0.86867  0.56057     H
O      0.21018  0.84299   0.9626     O
H       0.2102   0.9748   0.0838     H
C      0.21103  0.80917  0.48357     C
H      0.21107  0.02833  0.51313     H
C        0.212    0.385   0.2202     C
C      0.21233  0.76937  0.57037     C
H      0.21377  0.13983  0.44423     H
C       0.2182   0.7709   0.1696     C
C      0.21937  0.11513  0.50293     C
N      0.22227  0.05782  0.46403     N
C       0.2237    0.121   0.9037     C
H      0.22603  0.73977  0.54077     H
Cr     0.22629  0.31686  0.58209    Cr
H      0.22653  0.41207  0.43097     H
H        0.228   0.0972   0.9618     H
C       0.2291   0.4473   0.1696     C
C      0.23063  0.44297  0.57037     C
H       0.2354   0.2102   0.9162     H
H      0.23613  0.79747  0.62847     H
P      0.23619  0.81743  0.88051     P
H        0.237    0.182   0.0051     H
H        0.238    0.754   0.2122     H
Co      0.2403  0.93403  0.78665    Co
Ga     0.24277  0.89296  0.08458    Ga
O      0.24433  0.15755  0.17693     O
H        0.246    0.484   0.2122     H
O      0.24656  0.42234   0.8436     O
P      0.24791  0.09714  0.21384     P
N      0.25082  0.18856   0.9413     N
H       0.2523   0.3899   0.2539     H
H      0.25313  0.84457  0.46227     H
H       0.2546   0.1478   0.7643     H
H       0.2581   0.0802   0.7956     H
O      0.25825  0.96628  0.65833     O
H       0.2594   0.4529   0.1109     H
O      0.25946  0.86796   0.7935     O
H      0.26023  0.48627  0.54077     H
C       0.2648   0.1223   0.8169     C
Ga     0.26736  0.36039  0.88002    Ga
O      0.26849  0.33031  0.44937     O
N      0.27107  0.41585  0.60797     N
O      0.27152  0.93516   0.2173     O
O      0.27517  0.07387  0.12683     O
N      0.27551  0.83111   0.1307     N
H      0.27677  0.19573  0.58723     H
H      0.27833  0.42967  0.67177     H
C      0.28167  0.16033  0.55353     C
H      0.28827  0.13943  0.60973     H
O      0.28883  0.99748  0.87827     O
O      0.28967  0.30027     0.64     O
O      0.28969  0.80555   0.9107     O
O      0.29136  0.28883  0.12173     O
O      0.29196  0.25825  0.34167     O
H       0.2927   0.8202   0.0794     H
O      0.29948  0.12315  0.29593     O
O      0.29962   0.3747  0.00833     O
O      0.30027   0.0106     0.36     O
H        0.305   0.8494   0.1798     H
Ga     0.30628   0.2403  0.21335    Ga
H      0.30813  0.43127  0.58287     H
Ga     0.31686  0.09056  0.41791    Ga
P      0.32029  0.32682  0.38955     P
O      0.32273  0.95634  0.02667     O
P      0.32681  0.98696  0.27712     P
P      0.32682  0.00652  0.61045     P
H        0.328    0.126   0.8939     H
O      0.33031  0.06181  0.55063     O
O      0.33081  0.37531   0.7884     O
N       0.3326  0.15656   0.8511     N
N      0.33407  0.17677  0.48223     N
O      0.33586  0.95802  0.54493     O
O      0.33636  0.27152   0.7827     O
H      0.33867  0.20733  0.43943     H
P      0.33985  0.32681  0.72288     P
P      0.33986  0.34637  0.05621     P
O      0.34393    0.377  0.30667     O
P      0.34637  0.00652  0.94379     P
Cr     0.34981  0.24277  0.91542    Cr
H      0.35853  0.90207  0.75047     H
Co     0.36039  0.09303  0.11998    Co
H      0.36167  0.48393  0.15353     H
O       0.3664  0.32273  0.97333     O
O      0.36705  0.95863    0.325     O
O      0.36719  0.21018   0.0374     O
H      0.37397  0.51313  0.25393     H
O       0.3747  0.07509  0.99167     O
O      0.37531   0.0445   0.2116     O
O      0.37698  0.52778  0.42263     O
O        0.377  0.03306  0.69333     O
O      0.37783  0.33586  0.45507     O
H       0.3784   0.1939   0.7236     H
C        0.385    0.173   0.7798     C
H      0.38833  0.90367  0.66157     H
H       0.3899   0.1376   0.7461     H
N      0.39116  0.50222  0.20263     N
O       0.3915  0.25946   0.2065     O
O      0.39515  0.39817  0.11603     O
N      0.39559  0.91749  0.72537     N
O      0.39817  0.00303  0.88397     O
Co     0.39931  0.97294  0.45331    Co
C      0.40187  0.21103  0.51643     C
H      0.40643  0.84707  0.79257     H
O      0.40721  0.46537  0.53983     O
H      0.40727  0.88043  0.22243     H
O      0.40842  0.36705    0.675     O
H      0.40857  0.25313  0.53773     H
H      0.41207  0.18553  0.56903     H
H      0.41353  0.48877  0.87107     H
H      0.41437  0.94343  0.07943     H
N      0.41585  0.14477  0.39203     N
P      0.41876  0.23619  0.11949     P
O      0.42011  0.91099  0.48973     O
H      0.42067  0.84933  0.12113     H
O      0.42234  0.17578   0.1564     O
Cr      0.4239  0.44037  0.24875    Cr
Ga     0.42636  0.39931  0.54669    Ga
H      0.42867  0.57933  0.12113     H
H      0.42967  0.15133  0.32823     H
P      0.43048   0.5159  0.45282     P
H      0.43053  0.53587  0.70487     H
H      0.43127  0.12313  0.41713     H
C      0.43603  0.89037  0.76297     C
C      0.43757  0.88603  0.16373     C
H      0.43867  0.23613  0.37153     H
H      0.44013  0.92127  0.90237     H
Ga     0.44037  0.01648  0.75125    Ga
H      0.44063  0.59357  0.79257     H
C      0.44297  0.21233  0.42963     C
N       0.4444  0.27551   0.8693     N
C       0.4473   0.2182   0.8304     C
C      0.44847  0.56243  0.16373     C
H       0.4529   0.1935   0.8891     H
C      0.45433  0.56397  0.76297     C
C      0.45467  0.94833  0.11313     C
H       0.4556    0.305   0.8202     H
C      0.45563  0.52417  0.84977     C
H      0.45647  0.35853  0.24953     H
O      0.45649  0.49034  0.37073     O
H      0.45933  0.46467  0.77277     H
H      0.46413  0.89467  0.70487     H
H      0.46467  0.00533  0.22723     H
O      0.46537  0.05817  0.46017     O
H      0.47093  0.41437  0.92057     H
O      0.47222  0.84919  0.42263     O
H       0.4725   0.2927   0.9206     H
H      0.47277  0.51783  0.05693     H
H      0.47317  0.59273  0.22243     H
C      0.47583  0.93147  0.84977     C
N      0.47811  0.39559  0.27463     N
H      0.48113  0.55987  0.90237     H
H      0.48217  0.95493  0.05693     H
H      0.48393  0.12227  0.84647     H
H        0.484    0.238   0.7878     H
P       0.4841  0.91457  0.45282     P
O      0.48414  0.28969   0.0893     O
H      0.48467  0.38833  0.33843     H
H      0.48627  0.22603  0.45923     H
H      0.48687  0.86083  0.25393     H
H      0.48877  0.07523  0.12893     H
N      0.48989  0.49063  0.81557     N
O      0.49034  0.03386  0.62927     O
N      0.49063  0.00073  0.18443     N
O      0.49089  0.57989  0.48973     O
C      0.49367  0.54533  0.11313     C
N      0.49778  0.88893  0.20263     N
N      0.50222  0.11107  0.79737     N
C      0.50633  0.45467  0.88687     C
O      0.50911  0.42011  0.51027     O
N      0.50937  0.99927  0.81557     N
O      0.50966  0.96614  0.37073     O
N      0.51011  0.50937  0.18443     N
H      0.51123  0.92477  0.87107     H
H      0.51313  0.13917  0.74607     H
H      0.51373  0.77397  0.54077     H
H      0.51533  0.61167  0.66157     H
O      0.51586  0.71031   0.9107     O
P       0.5159  0.08543  0.54718     P
H        0.516    0.762   0.2122     H
H      0.51607  0.87773  0.15353     H
H      0.51783  0.04507  0.94307     H
H      0.51887  0.44013  0.09763     H
N      0.52189  0.60441  0.72537     N
C      0.52417  0.06853  0.15023     C
H      0.52683  0.40727  0.77757     H
H      0.52723  0.48217  0.94307     H
H       0.5275   0.7073   0.0794     H
O      0.52778  0.15081  0.57737     O
H      0.52907  0.58563  0.07943     H
O      0.53463  0.94183  0.53983     O
H      0.53533  0.99467  0.77277     H
H      0.53587  0.10533  0.29513     H
H      0.54067  0.53533  0.22723     H
O      0.54351  0.50966  0.62927     O
H      0.54353  0.64147  0.75047     H
C      0.54437  0.47583  0.15023     C
H       0.5444    0.695   0.1798     H
C      0.54533  0.05167  0.88687     C
C      0.54567  0.43603  0.23703     C
H       0.5471   0.8065   0.1109     H
C      0.55153  0.43757  0.83627     C
C       0.5527   0.7818   0.1696     C
N       0.5556  0.72449   0.1307     N
C      0.55703  0.78767  0.57037     C
H      0.55937  0.40643  0.20743     H
Cr     0.55963  0.98352  0.24875    Cr
H      0.55987  0.07873  0.09763     H
H      0.56133  0.76387  0.62847     H
C      0.56243  0.11397  0.83627     C
C      0.56397  0.10963  0.23703     C
H      0.56873  0.87687  0.58287     H
H      0.56947  0.46413  0.29513     H
P      0.56952   0.4841  0.54718     P
H      0.57033  0.84867  0.67177     H
H      0.57133  0.42067  0.87887     H
Co     0.57364  0.60069  0.45331    Co
Ga      0.5761  0.55963  0.75125    Ga
O      0.57766  0.82422   0.8436     O
H      0.57933  0.15067  0.87887     H
O      0.57989  0.08901  0.51027     O
P      0.58124  0.76381  0.88051     P
N      0.58415  0.85523  0.60797     N
H      0.58563  0.05657  0.92057     H
H      0.58647  0.51123  0.12893     H
H      0.58793  0.81447  0.43097     H
H      0.59143  0.74687  0.46227     H
O      0.59158  0.63295    0.325     O
H      0.59273  0.11957  0.77757     H
O      0.59279  0.53463  0.46017     O
H      0.59357  0.15293  0.20743     H
C      0.59813  0.78897  0.48357     C
Ga     0.60069  0.02706  0.54669    Ga
O      0.60183  0.99697  0.11603     O
N      0.60441  0.08251  0.27463     N
O      0.60485  0.60183  0.88397     O
O       0.6085  0.74054   0.7935     O
N      0.60884  0.49778  0.79737     N
H       0.6101   0.8624   0.2539     H
H      0.61167  0.09633  0.33843     H
C        0.615    0.827   0.2202     C
H       0.6216   0.8061   0.2764     H
O      0.62217  0.66414  0.54493     O
O        0.623  0.96694  0.30667     O
O      0.62302  0.47222  0.57737     O
O      0.62469   0.9555   0.7884     O
O       0.6253  0.92491  0.00833     O
H      0.62603  0.48687  0.74607     H
O      0.63281  0.78982   0.9626     O
O      0.63295  0.04137    0.675     O
O       0.6336  0.67727  0.02667     O
H      0.63833  0.51607  0.84647     H
Ga     0.63961  0.90697  0.88002    Ga
H      0.64147  0.09793  0.24953     H
Ga     0.65019  0.75723  0.08458    Ga
P      0.65363  0.99348  0.05621     P
O      0.65607    0.623  0.69333     O
P      0.66014  0.65363  0.94379     P
P      0.66015  0.67319  0.27712     P
H      0.66133  0.79267  0.56057     H
O      0.66364  0.72848   0.2173     O
O      0.66414  0.04198  0.45507     O
N      0.66593  0.82323  0.51777     N
N       0.6674  0.84344   0.1489     N
O      0.66919  0.62469   0.2116     O
O      0.66969  0.93819  0.44937     O
H        0.672    0.874   0.1061     H
P      0.67318  0.99348  0.38955     P
P      0.67319  0.01304  0.72288     P
O      0.67727  0.04366  0.97333     O
P      0.67971  0.67318  0.61045     P
Cr     0.68314  0.90944  0.58209    Cr
H      0.69187  0.56873  0.41713     H
Co     0.69372   0.7597  0.78665    Co
H        0.695   0.1506   0.8202     H
O      0.69973   0.9894     0.64     O
O      0.70038   0.6253  0.99167     O
O      0.70052  0.87685  0.70407     O
H       0.7073   0.1798   0.9206     H
O      0.70804  0.74175  0.65833     O
O      0.70864  0.71117  0.87827     O
O      0.71031  0.19445   0.0893     O
O      0.71033  0.69973     0.36     O
O      0.71117  0.00252  0.12173     O
H      0.71173  0.86057  0.39027     H
C      0.71833  0.83967  0.44647     C
H      0.72167  0.57033  0.32823     H
H      0.72323  0.80427  0.41277     H
N      0.72449  0.16889   0.8693     N
O      0.72483  0.92613  0.87317     O
O      0.72848  0.06484   0.7827     O
N      0.72893  0.58415  0.39203     N
O      0.73151  0.66969  0.55063     O
Co     0.73264  0.63961  0.11998    Co
C       0.7352   0.8777   0.1831     C
H      0.73977  0.51373  0.45923     H
O      0.74054  0.13204   0.2065     O
H       0.7406   0.5471   0.8891     H
O      0.74175  0.03372  0.34167     O
H       0.7419   0.9198   0.2044     H
H       0.7454   0.8522   0.2357     H
H      0.74687  0.15543  0.53773     H
H       0.7477   0.6101   0.7461     H
N      0.74918  0.81144   0.0587     N
P      0.75209  0.90286  0.78616     P
O      0.75344  0.57766   0.1564     O
H        0.754    0.516   0.7878     H
O      0.75567  0.84245  0.82307     O
Cr     0.75723  0.10704  0.91542    Cr
Ga      0.7597  0.06597  0.21335    Ga
H        0.762    0.246   0.7878     H
H        0.763    0.818   0.9949     H
P      0.76381  0.18257  0.11949     P
H      0.76387  0.20253  0.37153     H
H       0.7646   0.7898   0.0838     H
C      0.76937  0.55703  0.42963     C
C       0.7709   0.5527   0.8304     C
H        0.772   0.9028   0.0382     H
H      0.77347  0.58793  0.56903     H
Ga     0.77371  0.68314  0.41791    Ga
H      0.77397  0.26023  0.45923     H
C       0.7763    0.879   0.0963     C
N      0.77773  0.94218  0.53597     N
C      0.78063  0.88487  0.49707     C
C       0.7818   0.2291   0.8304     C
H      0.78623  0.86017  0.55577     H
C      0.78767  0.23063  0.42963     C
C        0.788    0.615   0.7798     C
H      0.78893  0.97167  0.48687     H
C      0.78897  0.19083  0.51643     C
H       0.7898   0.0252   0.9162     H
O      0.78982  0.15701   0.0374     O
H      0.79267  0.13133  0.43943     H
H      0.79747  0.56133  0.37153     H
H        0.798    0.672   0.8939     H
O      0.79871  0.72483  0.12683     O
H      0.80427  0.08103  0.58723     H
O      0.80555  0.51586   0.0893     O
H      0.80583  0.95937  0.58727     H
H       0.8061   0.1845   0.7236     H
H       0.8065   0.2594   0.8891     H
C      0.80917  0.59813  0.51643     C
N      0.81144  0.06226   0.9413     N
H      0.81447  0.22653  0.56903     H
H       0.8155   0.6216   0.7236     H
H      0.81727  0.78893  0.51313     H
H      0.81733  0.90467  0.45447     H
P      0.81743  0.58124  0.11949     P
O      0.81747  0.95636  0.75597     O
H        0.818    0.055   0.0051     H
H       0.8196   0.8927   0.1259     H
H       0.8202   0.5275   0.9206     H
H       0.8221   0.7419   0.7956     H
N      0.82323  0.15729  0.48223     N
O      0.82368  0.70052  0.29593     O
N      0.82396   0.6674   0.8511     N
O      0.82422  0.24656   0.1564     O
C        0.827    0.212   0.7798     C
N      0.83111   0.5556   0.8693     N
N      0.83556  0.77773  0.46403     N
C      0.83967  0.12133  0.55353     C
O      0.84245  0.08677  0.17693     O
N      0.84271  0.66593  0.48223     N
O      0.84299  0.63281   0.0374     O
N      0.84344  0.17604   0.8511     N
H      0.84457  0.59143  0.53773     H
H      0.84647  0.80583  0.41273     H
H      0.84707  0.44063  0.20743     H
H      0.84867  0.27833  0.32823     H
O      0.84919  0.37698  0.57737     O
P      0.84924  0.75209  0.21384     P
H      0.84933  0.42867  0.87887     H
H       0.8494   0.5444   0.8202     H
H      0.85117  0.71173  0.60973     H
H       0.8522   0.1068   0.7643     H
N      0.85523  0.27107  0.39203     N
C       0.8575   0.7352   0.8169     C
H      0.86017  0.07393  0.44423     H
H      0.86057  0.14883  0.60973     H
H      0.86083  0.37397  0.74607     H
O      0.86112  0.81747  0.24403     O
H       0.8624   0.2523   0.7461     H
O      0.86796   0.6085   0.2065     O
H      0.86867  0.66133  0.43943     H
H       0.8692    0.772   0.9618     H
H        0.874    0.202   0.8939     H
O      0.87685  0.17632  0.29593     O
H      0.87687  0.30813  0.41713     H
C       0.8777   0.1425   0.8169     C
H      0.87773  0.36167  0.84647     H
C      0.87867  0.71833  0.55353     C
C        0.879   0.1027   0.9037     C
H      0.88043  0.47317  0.77757     H
C      0.88487  0.10423  0.50293     C
C      0.88603  0.44847  0.83627     C
N      0.88893  0.39116  0.79737     N
C      0.89037  0.45433  0.23703     C
H       0.8927   0.0731   0.8741     H
Cr     0.89296  0.65019  0.91542    Cr
H       0.8932   0.7454   0.7643     H
H      0.89467  0.43053  0.29513     H
C      0.89577  0.78063  0.50293     C
C       0.8973   0.7763   0.9037     C
H      0.90207  0.54353  0.24953     H
H       0.9028   0.1308   0.9618     H
P      0.90286  0.15076  0.21384     P
H      0.90367  0.51533  0.33843     H
H      0.90467  0.08733  0.54553     H
Co     0.90697  0.26736  0.11998    Co
Ga     0.90944  0.22629  0.41791    Ga
O      0.91099  0.49089  0.51027     O
H      0.91267  0.81733  0.54553     H
O      0.91323  0.75567  0.17693     O
P      0.91457  0.43048  0.54718     P
N      0.91749  0.52189  0.27463     N
H      0.91897  0.72323  0.58723     H
H       0.9198   0.1779   0.7956     H
H      0.92127  0.48113  0.09763     H
H      0.92477  0.41353  0.12893     H
O      0.92491  0.29962  0.99167     O
H      0.92607  0.78623  0.44423     H
O      0.92613  0.20129  0.12683     O
H       0.9269   0.8196   0.8741     H
C      0.93147  0.45563  0.15023     C
Ga     0.93403  0.69372  0.21335    Ga
O      0.93516  0.66364   0.7827     O
N      0.93774  0.74918   0.9413     N
O      0.93819  0.26849  0.55063     O
O      0.94183  0.40721  0.46017     O
N      0.94218  0.16444  0.46403     N
H      0.94343  0.52907  0.92057     H
H        0.945    0.763   0.0051     H
C      0.94833  0.49367  0.88687     C
H      0.95493  0.47277  0.94307     H
O       0.9555  0.33081   0.2116     O
O      0.95634   0.6336  0.97333     O
O      0.95636  0.13888  0.24403     O
O      0.95802  0.62217  0.45507     O
O      0.95863  0.59158    0.675     O
H      0.95937  0.15353  0.41273     H
O      0.96614  0.45649  0.62927     O
O      0.96628  0.70804  0.34167     O
O      0.96694  0.34393  0.69333     O
H      0.97167  0.18273  0.51313     H
Ga     0.97294  0.57364  0.54669    Ga
H       0.9748   0.7646   0.9162     H
Ga     0.98352   0.4239  0.75125    Ga
P      0.98696  0.66015  0.72288     P
O       0.9894  0.28967     0.36     O
P      0.99348  0.32029  0.61045     P
P      0.99348  0.33986  0.94379     P
H      0.99467  0.45933  0.22723     H
O      0.99697  0.39515  0.88397     O
O      0.99748  0.70864  0.12173     O
N      0.99927  0.48989  0.18443     N
