data_I
_chemical_name_common  '/home/zhangsd/repos/MofS-CGCNN/ML/data/SSD/clean_cifs/HEGNOX_clean'
_cell_length_a 23.68990
_cell_length_b 23.68990
_cell_length_c 13.54830
_cell_angle_alpha 90.00000
_cell_angle_beta  90.00000
_cell_angle_gamma 120.00000
_space_group_name_H-M_alt      'P 1'


loop_
_space_group_symop_operation_xyz
  'x, y, z' 

loop_
_atom_site_label
_atom_site_fract_x
_atom_site_fract_y
_atom_site_fract_z
_atom_site_type_symbol
N        7e-05  0.49083  0.18603     N
O      0.00121  0.29046  0.87987     O
O      0.00173  0.60428  0.11783     O
H      0.00487  0.46403  0.23343     H
P      0.00671  0.68054   0.3905     P
P      0.00716  0.65995  0.05716     P
O      0.00955  0.70972   0.6406     O
P      0.01387  0.34049  0.27617     P
Ga     0.01682  0.57715  0.25035    Ga
H       0.0284   0.2367   0.0866     H
Zn     0.02842  0.42607  0.45264    Zn
H      0.03053  0.81357  0.48917     H
O      0.03124  0.28873  0.65673     O
O       0.0335  0.65712  0.30727     O
O      0.03689   0.5455  0.37093     O
H      0.04067  0.52793  0.05913     H
H      0.04203  0.84227  0.58867     H
O      0.04219   0.8613  0.76097     O
O      0.04288  0.37742  0.54653     O
O      0.04305  0.36684  0.02607     O
O      0.04409  0.66788   0.7868     O
O       0.0446  0.40917   0.3234     O
H      0.05157  0.46543  0.07773     H
C      0.05227  0.50783  0.11263     C
H       0.0531    0.245   0.9889     H
N      0.05593  0.83397  0.53457     N
O      0.05802  0.59308  0.54083     O
O      0.06238  0.73078  0.45117     O
N       0.0628   0.2516   0.0559     N
H      0.06383  0.51347  0.90937     H
O      0.06411  0.33506   0.2155     O
Zn     0.06432  0.30492  0.78598    Zn
C      0.06773  0.54367  0.84817     C
H       0.0716   0.8373   0.1989     H
H      0.07263  0.21077  0.55057     H
O      0.07358  0.79827  0.87417     O
O      0.07584   0.6979  0.00993     O
H       0.0784   0.1803   0.1337     H
H      0.08053  0.28177  0.41107     H
N      0.08173  0.47787  0.72257     N
H      0.08553  0.19227  0.45497     H
P      0.08606  0.57009   0.4555     P
O      0.08647  0.24304  0.82477     O
H      0.08833  0.47477  0.65557     H
Ga     0.08951    0.773  0.58369    Ga
O       0.0903   0.5101  0.49143     O
Ga     0.09274  0.73099  0.88069    Ga
H        0.094   0.8667   0.0318     H
P      0.09657   0.8493  0.78884     P
H      0.09663  0.45837  0.75327     H
H      0.09903  0.59507  0.86557     H
H       0.1019   0.9216   0.1337     H
C       0.1037   0.2251   0.0939     C
H      0.10603  0.57267  0.69847     H
Ga     0.10633  0.35015  0.08298    Ga
C      0.10643  0.21847  0.49527     C
H      0.10673  0.91447  0.45497     H
C      0.10823  0.54527  0.76057     C
N      0.11137  0.61073  0.20123     N
C      0.11203  0.89357  0.49527     C
C      0.11487  0.55463  0.16193     C
H       0.1163   0.2695   0.2427     H
H      0.11637  0.63613  0.15583     H
O      0.12116  0.82472  0.70427     O
C       0.1214   0.8963   0.0939     C
C      0.12223  0.28107  0.44597     C
H      0.12257  0.52853  0.21723     H
C        0.123   0.8574   0.1815     C
H      0.12503  0.69507  0.58007     H
H      0.12583  0.32847  0.56677     H
H       0.1307   0.7925   0.0999     H
O       0.1316  0.39135   0.7925     O
H       0.1321   0.7472   0.2556     H
H       0.1333   0.2273   0.0318     H
H      0.13357  0.62463  0.25533     H
H      0.13813  0.92737  0.55057     H
O       0.1387   0.1809  0.76097     O
H      0.13873  0.84607  0.39247     H
H      0.14107  0.55993  0.12163     H
H      0.14143  0.71977  0.67777     H
C       0.1426   0.2656   0.1815     C
N      0.14453  0.72947  0.61077     N
H       0.1469   0.4497   0.1775     H
P       0.1507  0.24728  0.78884     P
O      0.15244  0.62447  0.42763     O
H      0.15303  0.56477  0.80037     H
H       0.1532   0.8837   0.2427     H
H      0.15393  0.29267  0.39247     H
O      0.15656  0.91353  0.82477     O
N      0.15743  0.33327  0.51937     N
N       0.1575   0.8241   0.1473     N
H      0.15773  0.19977  0.58867     H
O      0.15805  0.37022   0.9624     O
C      0.15883  0.87777  0.44597     C
H       0.1627   0.2343   0.1989     H
N      0.16603  0.22197  0.53457     N
N       0.1673   0.4447   0.1321     N
H      0.17063  0.43237  0.46777     H
C       0.1745   0.7889   0.2207     C
O      0.17528  0.29645  0.70427     O
H       0.1756   0.4669    0.078     H
N      0.17583  0.84257  0.51937     N
N       0.1759   0.3334   0.1473     N
O      0.17677  0.75314   0.8419     O
H       0.1794    0.374   0.2742     H
H      0.18013  0.78297  0.42397     H
H       0.1803   0.1019   0.8663     H
O       0.1809  0.04219  0.23903     O
P      0.18263  0.41939  0.87783     P
H      0.18643  0.21697  0.48917     H
N       0.1888   0.9372   0.0559     N
C      0.19073  0.40107  0.48517     C
H       0.1919   0.9469   0.9889     H
H      0.19227  0.10673  0.54503     H
H       0.1946   0.8206   0.2742     H
O      0.19463  0.48577   0.9057     O
H       0.1952   0.7393   0.1161     H
H      0.19977  0.04203  0.41133     H
H      0.20003  0.43937  0.63487     H
H      0.20123  0.91947  0.41107     H
O      0.20173  0.27532  0.87417     O
H      0.20263  0.87417  0.56677     H
H       0.2075   0.3382   0.0999     H
H       0.2083   0.9716   0.0866     H
C      0.21033  0.80927  0.48517     C
H      0.21077  0.13813  0.44943     H
C       0.2111   0.3856   0.2207     C
C      0.21193  0.77037  0.57277     C
O      0.21217  0.84195   0.9624     O
H      0.21697  0.03053  0.51083     H
H      0.21703  0.39717  0.42397     H
C      0.21847  0.11203  0.50473     C
C       0.2213   0.7731   0.1714     C
N      0.22197  0.05593  0.46543     N
C       0.2251   0.1214   0.9061     C
H       0.2266   0.7522   0.2117     H
C       0.2269   0.4482   0.1714     C
Ga       0.227  0.31652  0.58369    Ga
H       0.2273    0.094   0.9682     H
C      0.22963  0.44157  0.57277     C
H      0.23143  0.74507  0.53297     H
H       0.2343   0.0716   0.8011     H
H       0.2367   0.2083   0.9134     H
P      0.23676  0.81737  0.87783     P
H      0.23933  0.79997  0.63487     H
Zn     0.24059  0.93568  0.78598    Zn
O      0.24304  0.15656  0.17523     O
Ga     0.24382  0.89367  0.08298    Ga
H        0.245   0.1919   0.0111     H
O      0.24686  0.42363   0.8419     O
P      0.24728  0.09657  0.21116     P
H       0.2478   0.4744   0.2117     H
N       0.2516   0.1888   0.9441     N
H       0.2528   0.3849   0.2556     H
H      0.25493  0.48637  0.53297     H
O       0.2575  0.96876  0.65673     O
O      0.25975   0.8684   0.7925     O
H       0.2607   0.4559   0.1161     H
H      0.26173  0.82937  0.46777     H
C       0.2656    0.123   0.8185     C
Ga     0.26901  0.36175  0.88069    Ga
O      0.26922  0.33161  0.45117     O
H       0.2695   0.1532   0.7573     H
N      0.27053  0.41507  0.61077     N
O      0.27095  0.93589   0.2155     O
O      0.27532  0.07358  0.12583     O
N       0.2774   0.8327   0.1321     N
H      0.28023  0.42167  0.67777     H
C      0.28107  0.15883  0.55403     C
H      0.28177  0.20123  0.58893     H
O      0.28873   0.2575  0.34327     O
O      0.28924  0.99879  0.87987     O
O      0.29028  0.29983   0.6406     O
O      0.29046  0.28924  0.12013     O
O      0.29114  0.80537   0.9057     O
H       0.2913   0.8244    0.078     H
H      0.29267  0.13873  0.60753     H
O      0.29645  0.12116  0.29573     O
O      0.29983  0.00955   0.3594     O
O       0.3021  0.37793  0.00993     O
H       0.3028   0.8531   0.1775     H
Ga     0.30492  0.24059  0.21402    Ga
H      0.30493  0.42997  0.58007     H
Ga     0.31652  0.08951  0.41631    Ga
P      0.31946  0.32618   0.3905     P
O      0.32378  0.95695  0.02607     O
P      0.32618  0.00671   0.6095     P
P      0.32662  0.98613  0.27617     P
H      0.32847  0.20263  0.43323     H
O      0.33161  0.06238  0.54883     O
O      0.33212  0.37621   0.7868     O
N      0.33327  0.17583  0.48063     N
N       0.3334   0.1575   0.8527     N
O      0.33455  0.95712  0.54653     O
O      0.33506  0.27095   0.7845     O
H       0.3382   0.1307   0.9001     H
P      0.34005   0.3472  0.05716     P
P      0.34049  0.32662  0.72383     P
O      0.34288  0.37639  0.30727     O
P       0.3472  0.00716  0.94284     P
Ga     0.35015  0.24382  0.91702    Ga
H      0.36173  0.90337  0.75327     H
Zn     0.36175  0.09274  0.11931    Zn
H      0.36387  0.48023  0.15583     H
O      0.36457   0.9554   0.3234     O
O      0.36684  0.32378  0.97393     O
O      0.37022  0.21217   0.0376     O
H        0.374   0.1946   0.7258     H
H      0.37537  0.50893  0.25533     H
O      0.37553  0.52796  0.42763     O
O      0.37621  0.04409   0.2132     O
O      0.37639   0.0335  0.69273     O
O      0.37742  0.33455  0.45347     O
O      0.37793  0.07584  0.99007     O
H       0.3849   0.1321   0.7444     H
C       0.3856   0.1745   0.7793     C
H      0.38643  0.91167  0.65557     H
N      0.38927  0.50063  0.20123     N
O      0.39135  0.25975   0.2075     O
O      0.39572  0.39744  0.11783     O
N      0.39613  0.91827  0.72257     N
H      0.39717  0.18013  0.57603     H
O      0.39744  0.00173  0.88217     O
Zn     0.39766  0.97158  0.45264    Zn
C      0.40107  0.21033  0.51483     C
H      0.40493  0.50397  0.86557     H
H      0.40597  0.87743  0.21723     H
O      0.40692  0.46493  0.54083     O
O      0.40917  0.36457   0.6766     O
H      0.41173  0.84697  0.80037     H
H      0.41387  0.94843  0.07773     H
N      0.41507  0.14453  0.38923     N
H      0.41887  0.85893  0.12163     H
P      0.41939  0.23676  0.12217     P
O      0.41981   0.9097  0.49143     O
H      0.42167  0.14143  0.32223     H
Ga     0.42285  0.43966  0.25035    Ga
O      0.42363  0.17677   0.1581     O
Ga     0.42607  0.39766  0.54736    Ga
H      0.42733  0.53337  0.69847     H
P      0.42991  0.51596   0.4555     P
H      0.42997  0.12503  0.41993     H
H      0.43237  0.26173  0.53223     H
H      0.43523  0.58827  0.80037     H
C      0.43703  0.89177  0.76057     C
H      0.43937  0.23933  0.36513     H
Ga     0.43966  0.01682  0.74965    Ga
C      0.43977  0.88513  0.16193     C
H      0.44007  0.58113  0.12163     H
C      0.44157  0.21193  0.42723     C
N       0.4447   0.2774   0.8679     N
C      0.44537  0.56023  0.16193     C
C       0.4482   0.2213   0.8286     C
H      0.44963  0.93617  0.90937     H
H       0.4497   0.3028   0.8225     H
O       0.4545  0.49138  0.37093     O
C      0.45473  0.56297  0.76057     C
C      0.45557  0.94773  0.11263     C
H       0.4559   0.1952   0.8839     H
C      0.45633  0.52407  0.84817     C
H      0.45837  0.36173  0.24673     H
H      0.45917  0.99513  0.23343     H
H      0.46403  0.45917  0.76657     H
O      0.46493  0.05802  0.45917     O
H      0.46543  0.41387  0.92227     H
H      0.46663  0.89397  0.69847     H
H       0.4669   0.2913    0.922     H
H      0.47147  0.59403  0.21723     H
O      0.47204  0.84756  0.42763     O
H      0.47207  0.51273  0.05913     H
H       0.4744   0.2266   0.7883     H
H      0.47477  0.38643  0.34443     H
C      0.47593  0.93227  0.84817     C
N      0.47787  0.39613  0.27743     N
H      0.48023  0.11637  0.84417     H
P      0.48404  0.91394   0.4555     P
O      0.48577  0.29114   0.0943     O
H      0.48637  0.23143  0.46703     H
H      0.48653  0.55037  0.90937     H
H      0.48727  0.95933  0.05913     H
O       0.4899  0.58019  0.49143     O
N      0.49077  0.99993  0.18603     N
N      0.49083  0.49077  0.81397     N
H      0.49107  0.86643  0.25533     H
O      0.49138  0.03689  0.62907     O
C      0.49217  0.54443  0.11263     C
H      0.49603  0.90097  0.86557     H
N      0.49937  0.88863  0.20123     N
N      0.50063  0.11137  0.79877     N
H      0.50397  0.09903  0.13443     H
C      0.50783  0.45557  0.88737     C
O      0.50862  0.96311  0.37093     O
H      0.50893  0.13357  0.74467     H
N      0.50917  0.50923  0.18603     N
N      0.50923    7e-05  0.81397     N
O       0.5101  0.41981  0.50857     O
H      0.51273  0.04067  0.94087     H
H      0.51347  0.44963  0.09063     H
H      0.51363  0.76857  0.53297     H
O      0.51423  0.70886   0.9057     O
P      0.51596  0.08606   0.5445     P
H      0.51977  0.88363  0.15583     H
N      0.52213  0.60387  0.72257     N
C      0.52407  0.06773  0.15183     C
H      0.52523  0.61357  0.65557     H
H       0.5256   0.7734   0.2117     H
H      0.52793  0.48727  0.94087     H
O      0.52796  0.15244  0.57237     O
H      0.52853  0.40597  0.78277     H
H       0.5331   0.7087    0.078     H
H      0.53337  0.10603  0.30153     H
H      0.53457  0.58613  0.07773     H
O      0.53507  0.94198  0.54083     O
H      0.53597  0.54083  0.23343     H
H      0.54083  0.00487  0.76657     H
H      0.54163  0.63827  0.75327     H
C      0.54367  0.47593  0.15183     C
H       0.5441   0.8048   0.1161     H
C      0.54443  0.05227  0.88737     C
C      0.54527  0.43703  0.23943     C
O       0.5455  0.50862  0.62907     O
H       0.5503   0.6972   0.1775     H
H      0.55037  0.06383  0.09063     H
C       0.5518   0.7787   0.1714     C
C      0.55463  0.43977  0.83807     C
N       0.5553   0.7226   0.1321     N
C      0.55843  0.78807  0.57277     C
H      0.55993  0.41887  0.87837     H
C      0.56023  0.11487  0.83807     C
Ga     0.56034  0.98318  0.25035    Ga
H      0.56063  0.76067  0.63487     H
C      0.56297  0.10823  0.23943     C
H      0.56477  0.41173  0.19963     H
H      0.56763  0.73827  0.46777     H
H      0.57003  0.87497  0.58007     H
P      0.57009  0.48404   0.5445     P
H      0.57267  0.46663  0.30153     H
Zn     0.57393  0.60234  0.45264    Zn
O      0.57637  0.82323   0.8419     O
Ga     0.57715  0.56034  0.74965    Ga
H      0.57833  0.85857  0.67777     H
O      0.58019   0.0903  0.50857     O
P      0.58061  0.76324  0.87783     P
H      0.58113  0.14107  0.87837     H
N      0.58493  0.85547  0.61077     N
H      0.58613  0.05157  0.92227     H
H      0.58827  0.15303  0.19963     H
O      0.59083  0.63543   0.3234     O
O      0.59308  0.53507  0.45917     O
H      0.59403  0.12257  0.78277     H
H      0.59507  0.49603  0.13443     H
C      0.59893  0.78967  0.48517     C
Ga     0.60234  0.02842  0.54736    Ga
O      0.60256  0.99827  0.11783     O
H      0.60283  0.81987  0.42397     H
N      0.60387  0.08173  0.27743     N
O      0.60428  0.60256  0.88217     O
O      0.60865  0.74025   0.7925     O
N      0.61073  0.49937  0.79877     N
H      0.61357  0.08833  0.34443     H
C       0.6144   0.8255   0.2207     C
H       0.6151   0.8679   0.2556     H
O      0.62207  0.92416  0.00993     O
O      0.62258  0.66545  0.54653     O
O      0.62361   0.9665  0.30727     O
O      0.62379  0.95591   0.7868     O
O      0.62447  0.47204  0.57237     O
H      0.62463  0.49107  0.74467     H
H        0.626   0.8054   0.2742     H
O      0.62978  0.78783   0.9624     O
O      0.63316  0.67622  0.02607     O
O      0.63543   0.0446   0.6766     O
H      0.63613  0.51977  0.84417     H
Ga     0.63825  0.90726  0.88069    Ga
H      0.63827  0.09663  0.24673     H
Ga     0.64985  0.75618  0.08298    Ga
P       0.6528  0.99284  0.05716     P
O      0.65712  0.62361  0.69273     O
P      0.65951  0.67338  0.27617     P
P      0.65995   0.6528  0.94284     P
H       0.6618   0.8693   0.0999     H
O      0.66494  0.72905   0.2155     O
O      0.66545  0.04288  0.45347     O
N       0.6666   0.8425   0.1473     N
N      0.66673  0.82417  0.51937     N
O      0.66788  0.62379   0.2132     O
O      0.66839  0.93762  0.45117     O
H      0.67153  0.79737  0.56677     H
P      0.67338  0.01387  0.72383     P
P      0.67382  0.99329   0.3905     P
O      0.67622  0.04305  0.97393     O
P      0.68054  0.67382   0.6095     P
Ga     0.68348  0.91049  0.58369    Ga
H      0.69507  0.57003  0.41993     H
Zn     0.69508  0.75941  0.78598    Zn
H       0.6972   0.1469   0.8225     H
O       0.6979  0.62207  0.99007     O
O      0.70017  0.99045   0.6406     O
O      0.70355  0.87884  0.70427     O
H      0.70733  0.86127  0.39247     H
H       0.7087   0.1756    0.922     H
O      0.70886  0.19463   0.0943     O
O      0.70954  0.71076  0.87987     O
O      0.70972  0.70017   0.3594     O
O      0.71076  0.00121  0.12013     O
O      0.71127   0.7425  0.65673     O
H      0.71823  0.79877  0.41107     H
C      0.71893  0.84117  0.44597     C
H      0.71977  0.57833  0.32223     H
N       0.7226   0.1673   0.8679     N
O      0.72468  0.92642  0.87417     O
O      0.72905  0.06411   0.7845     O
N      0.72947  0.58493  0.38923     N
H       0.7305   0.8468   0.2427     H
O      0.73078  0.66839  0.54883     O
Zn     0.73099  0.63825  0.11931    Zn
C       0.7344    0.877   0.1815     C
H      0.73827  0.17063  0.53223     H
H       0.7393   0.5441   0.8839     H
O      0.74025   0.1316   0.2075     O
O       0.7425  0.03124  0.34327     O
H      0.74507  0.51363  0.46703     H
H       0.7472   0.6151   0.7444     H
N       0.7484   0.8112   0.0559     N
H       0.7522   0.5256   0.7883     H
P      0.75272  0.90343  0.78884     P
O      0.75314  0.57637   0.1581     O
H        0.755   0.8081   0.9889     H
Ga     0.75618  0.10633  0.91702    Ga
O      0.75696  0.84344  0.82477     O
Ga     0.75941  0.06432  0.21402    Ga
H      0.76067  0.20003  0.36513     H
P      0.76324  0.18263  0.12217     P
H       0.7633   0.7917   0.0866     H
H       0.7657   0.9284   0.1989     H
H      0.76857  0.25493  0.46703     H
C      0.77037  0.55843  0.42723     C
H       0.7727    0.906   0.0318     H
Ga       0.773  0.68348  0.41631    Ga
C       0.7731   0.5518   0.8286     C
H       0.7734   0.2478   0.7883     H
C       0.7749   0.8786   0.0939     C
N      0.77803  0.94407  0.53457     N
C       0.7787   0.2269   0.8286     C
C      0.78153  0.88797  0.49527     C
H      0.78297  0.60283  0.57603     H
H      0.78303  0.96947  0.48917     H
O      0.78783  0.15805   0.0376     O
C      0.78807  0.22963  0.42723     C
C       0.7889   0.6144   0.7793     C
H      0.78923  0.86187  0.55057     H
C      0.78967  0.19073  0.51483     C
H       0.7917   0.0284   0.9134     H
H       0.7925   0.6618   0.9001     H
H      0.79737  0.12583  0.43323     H
O      0.79827  0.72468  0.12583     O
H      0.79877  0.08053  0.58893     H
H      0.79997  0.56063  0.36513     H
H      0.80023  0.95797  0.58867     H
H       0.8048   0.2607   0.8839     H
O      0.80537  0.51423   0.0943     O
H       0.8054   0.1794   0.7258     H
H      0.80773  0.89327  0.45497     H
H       0.8081   0.0531   0.0111     H
C      0.80927  0.59893  0.51483     C
N       0.8112   0.0628   0.9441     N
H      0.81357  0.78303  0.51083     H
P      0.81737  0.58061  0.12217     P
O       0.8191  0.95781  0.76097     O
H       0.8197   0.8981   0.1337     H
H      0.81987  0.21703  0.57603     H
H       0.8206    0.626   0.7258     H
O      0.82323  0.24686   0.1581     O
N       0.8241   0.6666   0.8527     N
N      0.82417  0.15743  0.48063     N
H       0.8244   0.5331    0.922     H
O      0.82472  0.70355  0.29573     O
C       0.8255   0.2111   0.7793     C
H      0.82937  0.56763  0.53223     H
N       0.8327   0.5553   0.8679     N
N      0.83397  0.77803  0.46543     N
H       0.8373   0.7657   0.8011     H
C      0.84117  0.12223  0.55403     C
O      0.84195  0.62978   0.0376     O
H      0.84227  0.80023  0.41133     H
N       0.8425   0.1759   0.8527     N
N      0.84257  0.66673  0.48063     N
O      0.84344  0.08647  0.17523     O
H      0.84607  0.70733  0.60753     H
H       0.8468   0.1163   0.7573     H
H      0.84697  0.43523  0.19963     H
O      0.84756  0.37553  0.57237     O
P       0.8493  0.75272  0.21116     P
H       0.8531   0.5503   0.8225     H
N      0.85547  0.27053  0.38923     N
C       0.8574   0.7344   0.8185     C
H      0.85857  0.28023  0.32223     H
H      0.85893  0.44007  0.87837     H
H      0.86127  0.15393  0.60753     H
O       0.8613   0.8191  0.23903     O
H      0.86187  0.07263  0.44943     H
H      0.86643  0.37537  0.74467     H
H       0.8667   0.7727   0.9682     H
H       0.8679   0.2528   0.7444     H
O       0.8684  0.60865   0.2075     O
H       0.8693   0.2075   0.9001     H
H      0.87417  0.67153  0.43323     H
H      0.87497  0.30493  0.41993     H
C        0.877   0.1426   0.8185     C
H      0.87743  0.47147  0.78277     H
C      0.87777  0.71893  0.55403     C
C       0.8786   0.1037   0.9061     C
O      0.87884  0.17528  0.29573     O
H      0.88363  0.36387  0.84417     H
H       0.8837   0.7305   0.7573     H
C      0.88513  0.44537  0.83807     C
C      0.88797  0.10643  0.50473     C
N      0.88863  0.38927  0.79877     N
C      0.89177  0.45473  0.23943     C
H      0.89327  0.08553  0.54503     H
C      0.89357  0.78153  0.50473     C
Ga     0.89367  0.64985  0.91702    Ga
H      0.89397  0.42733  0.30153     H
C       0.8963   0.7749   0.9061     C
H       0.8981   0.0784   0.8663     H
H      0.90097  0.40493  0.13443     H
H      0.90337  0.54163  0.24673     H
P      0.90343   0.1507  0.21116     P
H        0.906   0.1333   0.9682     H
Zn     0.90726  0.26901  0.11931    Zn
O       0.9097   0.4899  0.50857     O
Ga     0.91049    0.227  0.41631    Ga
H      0.91167  0.52523  0.34443     H
O      0.91353  0.75696  0.17523     O
P      0.91394  0.42991   0.5445     P
H      0.91447  0.80773  0.54503     H
N      0.91827  0.52213  0.27743     N
H      0.91947  0.71823  0.58893     H
H       0.9216   0.8197   0.8663     H
O      0.92416   0.3021  0.99007     O
O      0.92642  0.20173  0.12583     O
H      0.92737  0.78923  0.44943     H
H       0.9284   0.1627   0.8011     H
C      0.93227  0.45633  0.15183     C
Ga     0.93568  0.69508  0.21402    Ga
O      0.93589  0.66494   0.7845     O
H      0.93617  0.48653  0.09063     H
N       0.9372   0.7484   0.9441     N
O      0.93762  0.26922  0.54883     O
O      0.94198  0.40692  0.45917     O
N      0.94407  0.16603  0.46543     N
H       0.9469    0.755   0.0111     H
C      0.94773  0.49217  0.88737     C
H      0.94843  0.53457  0.92227     H
O       0.9554  0.59083   0.6766     O
O      0.95591  0.33212   0.2132     O
O      0.95695  0.63316  0.97393     O
O      0.95712  0.62258  0.45347     O
O      0.95781   0.1387  0.23903     O
H      0.95797  0.15773  0.41133     H
H      0.95933  0.47207  0.94087     H
O      0.96311   0.4545  0.62907     O
O       0.9665  0.34288  0.69273     O
O      0.96876  0.71127  0.34327     O
H      0.96947  0.18643  0.51083     H
Ga     0.97158  0.57393  0.54736    Ga
H       0.9716   0.7633   0.9134     H
Ga     0.98318  0.42285  0.74965    Ga
P      0.98613  0.65951  0.72383     P
O      0.99045  0.29028   0.3594     O
P      0.99284  0.34005  0.94284     P
P      0.99329  0.31946   0.6095     P
H      0.99513  0.53597  0.76657     H
O      0.99827  0.39572  0.88217     O
O      0.99879  0.70954  0.12013     O
N      0.99993  0.50917  0.81397     N
