data_I
_chemical_name_common  '/home/zhangsd/repos/MofS-CGCNN/ML/data/SSD/clean_cifs/HEGNIR_clean'
_cell_length_a 23.66350
_cell_length_b 23.66350
_cell_length_c 13.56860
_cell_angle_alpha 90.00000
_cell_angle_beta  90.00000
_cell_angle_gamma 120.00000
_space_group_name_H-M_alt      'P 1'


loop_
_space_group_symop_operation_xyz
  'x, y, z' 

loop_
_atom_site_label
_atom_site_fract_x
_atom_site_fract_y
_atom_site_fract_z
_atom_site_type_symbol
N        7e-05  0.49103  0.18603     N
O      0.00116  0.29014  0.87887     O
O      0.00136  0.60443  0.11923     O
H      0.00197  0.46453  0.24093     H
P       0.0063   0.6805  0.39183     P
P      0.00753  0.66036  0.05849     P
O      0.00966  0.70876   0.6407     O
P      0.01383  0.34086  0.27484     P
Ga     0.01658  0.57713  0.25135    Ga
H       0.0175   0.2179   0.0856     H
Mn     0.02852  0.42666  0.45158    Mn
H      0.02863  0.84087  0.58947     H
H      0.02903  0.81257  0.48837     H
O       0.0314  0.28838  0.65513     O
O      0.03243  0.65701  0.30737     O
O      0.03665  0.54548  0.37193     O
O      0.04163  0.86067  0.75957     O
O      0.04209  0.36577  0.02597     O
O       0.0432  0.37769  0.54553     O
H      0.04337  0.53353  0.05993     H
O      0.04436  0.66783   0.7878     O
O      0.04495  0.40968   0.3218     O
C      0.05287  0.50903  0.11263     C
N      0.05483  0.83287  0.53647     N
H      0.05557  0.47073  0.08573     H
H       0.0572   0.2399   0.9893     H
O      0.05878  0.59334  0.54133     O
O      0.06223  0.73026  0.45257     O
N        0.063   0.2514   0.0559     N
O      0.06359  0.33469   0.2141     O
Mn     0.06481  0.30482  0.78492    Mn
C      0.06683  0.54287  0.84857     C
H      0.07173  0.20357  0.55157     H
H       0.0718   0.1819    0.121     H
O      0.07332  0.79877  0.87467     O
O      0.07635  0.69806  0.01153     O
H      0.07863  0.52027  0.90757     H
H        0.079   0.8299   0.1992     H
H      0.08183  0.27777  0.41907     H
N      0.08193  0.47827  0.72257     N
H      0.08423  0.58767  0.86587     H
O      0.08644  0.24228  0.82427     O
P      0.08696  0.57119  0.45536     P
Ga     0.08953  0.77278  0.58469    Ga
H       0.0902   0.8665   0.0353     H
O      0.09106  0.51083  0.49093     O
H      0.09173  0.18617  0.43187     H
Ga     0.09333  0.73148  0.88175    Ga
H      0.09343  0.48397  0.65597     H
H      0.09443  0.90827  0.43187     H
P      0.09547   0.8491   0.7887     P
C       0.1042   0.2251   0.0948     C
Ga     0.10611  0.34991  0.08198    Ga
C      0.10673  0.21767  0.49497     C
C      0.10823  0.54577  0.76147     C
H       0.1083   0.2547   0.2409     H
H      0.10963  0.57647  0.70197     H
H       0.1101   0.9282    0.121     H
C      0.11093  0.89327  0.49497     C
N      0.11137  0.61183  0.20313     N
H      0.11543  0.46627  0.75227     H
C      0.11567  0.55573  0.16163     C
H      0.11687  0.63763  0.15503     H
C       0.1209   0.8958   0.0948     C
O      0.12118   0.8245  0.70527     O
C      0.12283  0.28047  0.44597     C
C       0.1238   0.8573   0.1819     C
H      0.12923  0.33137  0.57427     H
H      0.12977  0.53483  0.21823     H
H       0.1312   0.7959   0.0924     H
H      0.13183  0.92827  0.55157     H
O       0.1321  0.39211    0.792     O
H      0.13293  0.68417  0.58107     H
H      0.13313  0.84317  0.39327     H
H       0.1335   0.2237   0.0353     H
H       0.1374   0.7485   0.2476     H
O      0.13933  0.18097  0.75957     O
C       0.1427   0.2665   0.1819     C
N      0.14493  0.72967  0.61077     N
H      0.14557  0.63803  0.25613     H
H       0.1459   0.4502   0.1783     H
H       0.1464   0.8917   0.2409     H
H      0.14717  0.57223  0.09853     H
H      0.15063  0.72387  0.67737     H
P       0.1509  0.24638   0.7887     P
H      0.15143  0.55657  0.78767     H
O      0.15237  0.62503  0.42623     O
O      0.15583  0.91356  0.82427     O
H      0.15683  0.28997  0.39327     H
N      0.15763  0.33327  0.51937     N
C      0.15763  0.87717  0.44597     C
N       0.1577   0.8243   0.1473     N
O      0.15783  0.36998   0.9614     O
H      0.15913  0.18777  0.58947     H
H      0.16323  0.41757  0.46747     H
N       0.1662   0.4447   0.1302     N
N      0.16713  0.22197  0.53647     N
H       0.1701   0.2491   0.1992     H
H       0.1742   0.4789   0.0772     H
O       0.1755  0.29669  0.70527     O
N      0.17563  0.84237  0.51937     N
N       0.1757   0.3334   0.1473     N
C       0.1757   0.7895   0.2207     C
H       0.1765   0.3767   0.2734     H
O       0.1775  0.75311   0.8424     O
O      0.18097  0.04163  0.24043     O
H       0.1819   0.1101    0.879     H
P      0.18243  0.42029  0.87797     P
H       0.1827   0.9428   0.9893     H
H      0.18617  0.09443  0.56813     H
H      0.18693  0.77497  0.42577     H
H      0.18743  0.21647  0.48837     H
H      0.18777  0.02863  0.41053     H
N       0.1884    0.937   0.0559     N
C      0.19063  0.40017  0.48477     C
O        0.194   0.4857   0.9071     O
H      0.19593  0.91817  0.41907     H
H      0.19983  0.44297  0.63137     H
H       0.2002   0.8235   0.2734     H
H       0.2004   0.9825   0.0856     H
O      0.20123  0.27456  0.87467     O
H       0.2015   0.7384   0.1151     H
H      0.20213  0.87077  0.57427     H
H      0.20357  0.13183  0.44843     H
H       0.2041   0.3353   0.0924     H
C      0.20953  0.80937  0.48477     C
C       0.2105   0.3862   0.2207     C
O      0.21215  0.84217   0.9614     O
C      0.21243  0.77087  0.57187     C
H      0.21647  0.02903  0.51163     H
C      0.21767  0.11093  0.50503     C
H       0.2179   0.2004   0.9144     H
N      0.22197  0.05483  0.46353     N
C       0.2224   0.7734   0.1717     C
H      0.22323  0.73847  0.54567     H
H       0.2237   0.0902   0.9647     H
H      0.22503  0.41197  0.42577     H
C       0.2251   0.1209   0.9052     C
C       0.2266    0.449   0.1717     C
Ga     0.22722  0.31676  0.58469    Ga
C      0.22913  0.44157  0.57187     C
P      0.23786  0.81757  0.87797     P
H       0.2389   0.7584   0.2348     H
H       0.2399   0.1827   0.0107     H
Mn        0.24  0.93519  0.78492    Mn
H       0.2416   0.4805   0.2348     H
O      0.24228  0.15583  0.17573     O
H      0.24313  0.80017  0.63137     H
Ga      0.2438  0.89389  0.08198    Ga
P      0.24638  0.09547   0.2113     P
O      0.24689  0.42439   0.8424     O
H       0.2491    0.079   0.8008     H
N       0.2514   0.1884   0.9441     N
H       0.2515   0.3889   0.2476     H
H      0.25433  0.83677  0.46747     H
H       0.2547   0.1464   0.7591     H
O      0.25699   0.9686  0.65513     O
O      0.26001   0.8679    0.792     O
H      0.26153  0.48477  0.54567     H
H       0.2616   0.4631   0.1151     H
C       0.2665   0.1238   0.8181     C
Ga     0.26852  0.36185  0.88175    Ga
O      0.26974  0.33198  0.45257     O
N      0.27033  0.41527  0.61077     N
O       0.2711  0.93641   0.2141     O
O      0.27456  0.07332  0.12533     O
H      0.27613  0.42677  0.67737     H
H      0.27777  0.19593  0.58093     H
N       0.2785   0.8338   0.1302     N
C      0.28047  0.15763  0.55403     C
O      0.28838  0.25699  0.34487     O
O      0.28897  0.99884  0.87887     O
H      0.28997  0.13313  0.60673     H
O      0.29014  0.28897  0.12113     O
O      0.29124   0.3009   0.6407     O
O       0.2917    0.806   0.9071     O
O      0.29669  0.12118  0.29473     O
O       0.3009  0.00966   0.3593     O
O      0.30194  0.37828  0.01153     O
H       0.3043   0.8541   0.1783     H
H       0.3047   0.8258   0.0772     H
Ga     0.30482     0.24  0.21508    Ga
H      0.31583  0.44877  0.58107     H
Ga     0.31676  0.08953  0.41531    Ga
P       0.3195  0.32581  0.39183     P
O      0.32367  0.95791  0.02597     O
P      0.32581   0.0063  0.60817     P
P      0.32703  0.98617  0.27484     P
H      0.33137  0.20213  0.42573     H
O      0.33198  0.06223  0.54743     O
O      0.33217  0.37653   0.7878     O
N      0.33327  0.17563  0.48063     N
N       0.3334   0.1577   0.8527     N
O       0.3345   0.9568  0.54553     O
O      0.33469   0.2711   0.7859     O
H       0.3353   0.1312   0.9076     H
P      0.33964  0.34716  0.05849     P
P      0.34086  0.32703  0.72516     P
O      0.34299  0.37543  0.30737     O
P      0.34716  0.00753  0.94151     P
Ga     0.34991   0.2438  0.91802    Ga
H      0.35083  0.88457  0.75227     H
Mn     0.36185  0.09333  0.11825    Mn
H      0.36197  0.50753  0.25613     H
H      0.36237  0.47923  0.15503     H
O      0.36473  0.95505   0.3218     O
O      0.36577  0.32367  0.97403     O
O      0.36998  0.21215   0.0386     O
O      0.37497  0.52733  0.42623     O
O      0.37543  0.03243  0.69263     O
O      0.37653  0.04436   0.2122     O
H       0.3767   0.2002   0.7266     H
O      0.37769   0.3345  0.45447     O
O      0.37828  0.07635  0.98847     O
C       0.3862   0.1757   0.7793     C
N      0.38817  0.49953  0.20313     N
H       0.3889   0.1374   0.7524     H
H      0.39053  0.90657  0.65597     H
O      0.39211  0.26001    0.208     O
O      0.39557  0.39692  0.11923     O
N      0.39633  0.91807  0.72257     N
O      0.39692  0.00136  0.88077     O
Mn     0.39815  0.97148  0.45158    Mn
C      0.40017  0.20953  0.51523     C
H      0.40507  0.87023  0.21823     H
H      0.40513  0.84857  0.78767     H
O      0.40666  0.46543  0.54133     O
O      0.40968  0.36473   0.6782     O
H      0.41197  0.18693  0.57423     H
H      0.41233  0.49657  0.86587     H
H      0.41517  0.94443  0.08573     H
N      0.41527  0.14493  0.38923     N
H      0.41757  0.25433  0.53253     H
O      0.41978  0.90894  0.49093     O
P      0.42029  0.23786  0.12203     P
Ga     0.42287  0.43944  0.25135    Ga
H      0.42353  0.53317  0.70197     H
O      0.42439   0.1775   0.1576     O
H      0.42507  0.85283  0.09853     H
Ga     0.42666  0.39815  0.54842    Ga
H      0.42677  0.15063  0.32263     H
H      0.42777  0.57493  0.09853     H
P      0.42881  0.51576  0.45536     P
C      0.43753  0.89177  0.76147     C
Ga     0.43944  0.01658  0.74865    Ga
C      0.44007  0.88433  0.16163     C
C      0.44157  0.21243  0.42813     C
H      0.44163  0.92137  0.90757     H
H      0.44297  0.24313  0.36863     H
H      0.44343  0.59487  0.78767     H
C      0.44427  0.55993  0.16163     C
N       0.4447   0.2785   0.8698     N
H      0.44877  0.13293  0.41893     H
C        0.449   0.2224   0.8283     C
H       0.4502   0.3043   0.8217     H
C      0.45423  0.56247  0.76147     C
O      0.45452  0.49116  0.37193     O
C      0.45617  0.94713  0.11263     C
C      0.45713  0.52397  0.84857     C
H      0.46257  0.99803  0.24093     H
H       0.4631   0.2015   0.8849     H
H      0.46453  0.46257  0.75907     H
H      0.46517  0.59493  0.21823     H
O      0.46543  0.05878  0.45867     O
H      0.46627  0.35083  0.24773     H
H      0.46647  0.50983  0.05993     H
H      0.46683  0.89037  0.70197     H
H      0.47073  0.41517  0.91427     H
O      0.47267  0.84763  0.42623     O
C      0.47603  0.93317  0.84857     C
N      0.47827  0.39633  0.27743     N
H       0.4789   0.3047   0.9228     H
H      0.47923  0.11687  0.84497     H
H      0.47973  0.55837  0.90757     H
H       0.4805   0.2389   0.7652     H
H      0.48397  0.39053  0.34403     H
P      0.48424  0.91304  0.45536     P
H      0.48477  0.22323  0.45433     H
O       0.4857   0.2917   0.0929     O
O      0.48917  0.58022  0.49093     O
H      0.49017  0.95663  0.05993     H
C      0.49097  0.54383  0.11263     C
N      0.49097  0.99993  0.18603     N
N      0.49103  0.49097  0.81397     N
O      0.49116  0.03665  0.62807     O
H      0.49247  0.85443  0.25613     H
H      0.49657  0.08423  0.13413     H
N      0.49953  0.11137  0.79687     N
N      0.50047  0.88863  0.20313     N
H      0.50343  0.91577  0.86587     H
H      0.50753  0.14557  0.74387     H
O      0.50884  0.96335  0.37193     O
N      0.50897  0.50903  0.18603     N
N      0.50903    7e-05  0.81397     N
C      0.50903  0.45617  0.88737     C
H      0.50983  0.04337  0.94007     H
O      0.51083  0.41978  0.50907     O
O       0.5143   0.7083   0.9071     O
H      0.51523  0.77677  0.54567     H
P      0.51576  0.08696  0.54464     P
H      0.51603  0.60947  0.65597     H
H       0.5195   0.7611   0.2348     H
H      0.52027  0.44163  0.09243     H
H      0.52077  0.88313  0.15503     H
H       0.5211   0.6953   0.0772     H
N      0.52173  0.60367  0.72257     N
C      0.52397  0.06683  0.15143     C
O      0.52733  0.15237  0.57377     O
H      0.52927  0.58483  0.08573     H
H      0.53317  0.10963  0.29803     H
H      0.53353  0.49017  0.94007     H
H      0.53373  0.64917  0.75227     H
O      0.53457  0.94122  0.54133     O
H      0.53483  0.40507  0.78177     H
H      0.53547  0.53743  0.24093     H
H       0.5369   0.7985   0.1151     H
H      0.53743  0.00197  0.75907     H
C      0.54287  0.47603  0.15143     C
C      0.54383  0.05287  0.88737     C
O      0.54548  0.50884  0.62807     O
C      0.54577  0.43753  0.23853     C
H       0.5498   0.6957   0.1783     H
C        0.551   0.7776   0.1717     C
H      0.55123  0.86707  0.58107     H
N       0.5553   0.7215   0.1302     N
C      0.55573  0.44007  0.83837     C
H      0.55657  0.40513  0.21233     H
H      0.55703  0.75687  0.63137     H
H      0.55837  0.07863  0.09243     H
C      0.55843  0.78757  0.57187     C
C      0.55993  0.11567  0.83837     C
Ga     0.56056  0.98342  0.25135    Ga
C      0.56247  0.10823  0.23853     C
P      0.57119  0.48424  0.54464     P
H      0.57223  0.42507  0.90147     H
H      0.57323  0.84937  0.67737     H
Mn     0.57334  0.60185  0.45158    Mn
H      0.57493  0.14717  0.90147     H
O      0.57561   0.8225   0.8424     O
H      0.57647  0.46683  0.29803     H
Ga     0.57713  0.56056  0.74865    Ga
P      0.57971  0.76214  0.87797     P
O      0.58022  0.09106  0.50907     O
H      0.58243  0.74567  0.46747     H
N      0.58473  0.85507  0.61077     N
H      0.58483  0.05557  0.91427     H
H      0.58767  0.50343  0.13413     H
H      0.58803  0.81307  0.42577     H
O      0.59032  0.63527   0.3218     O
O      0.59334  0.53457  0.45867     O
H      0.59487  0.15143  0.21233     H
H      0.59493  0.12977  0.78177     H
C      0.59983  0.79047  0.48477     C
Ga     0.60185  0.02852  0.54842    Ga
O      0.60308  0.99864  0.11923     O
N      0.60367  0.08193  0.27743     N
O      0.60443  0.60308  0.88077     O
O      0.60789  0.73999    0.792     O
H      0.60947  0.09343  0.34403     H
H       0.6111   0.8626   0.2476     H
N      0.61183  0.50047  0.79687     N
C       0.6138   0.8243   0.2207     C
O      0.62172  0.92365  0.01153     O
O      0.62231   0.6655  0.54553     O
H       0.6233   0.7998   0.2734     H
O      0.62347  0.95564   0.7878     O
O      0.62457  0.96757  0.30737     O
O      0.62503  0.47267  0.57377     O
O      0.63002  0.78785   0.9614     O
O      0.63423  0.67633  0.02597     O
O      0.63527  0.04495   0.6782     O
H      0.63763  0.52077  0.84497     H
H      0.63803  0.49247  0.74387     H
Ga     0.63815  0.90667  0.88175    Ga
H      0.64917  0.11543  0.24773     H
Ga     0.65009   0.7562  0.08198    Ga
P      0.65284  0.99247  0.05849     P
O      0.65701  0.62457  0.69263     O
P      0.65914  0.67297  0.27484     P
P      0.66036  0.65284  0.94151     P
H       0.6647   0.8688   0.0924     H
O      0.66531   0.7289   0.2141     O
O       0.6655   0.0432  0.45447     O
N       0.6666   0.8423   0.1473     N
N      0.66673  0.82437  0.51937     N
O      0.66783  0.62347   0.2122     O
O      0.66802  0.93777  0.45257     O
H      0.66863  0.79787  0.57427     H
P      0.67297  0.01383  0.72516     P
P      0.67419   0.9937  0.39183     P
O      0.67633  0.04209  0.97403     O
P       0.6805  0.67419  0.60817     P
Ga     0.68324  0.91047  0.58469    Ga
H      0.68417  0.55123  0.41893     H
Mn     0.69518     0.76  0.78492    Mn
H       0.6953   0.1742   0.9228     H
H       0.6957   0.1459   0.8217     H
O      0.69806  0.62172  0.98847     O
O       0.6991  0.99034   0.6407     O
O      0.70331  0.87882  0.70527     O
O       0.7083    0.194   0.0929     O
O      0.70876   0.6991   0.3593     O
O      0.70986  0.71103  0.87887     O
H      0.71003  0.86687  0.39327     H
O      0.71103  0.00116  0.12113     O
O      0.71162  0.74301  0.65513     O
C      0.71953  0.84237  0.44597     C
N       0.7215   0.1662   0.8698     N
H      0.72223  0.80407  0.41907     H
H      0.72387  0.57323  0.32263     H
O      0.72544  0.92668  0.87467     O
O       0.7289  0.06359   0.7859     O
N      0.72967  0.58473  0.38923     N
O      0.73026  0.66802  0.54743     O
Mn     0.73148  0.63815  0.11825    Mn
C       0.7335   0.8762   0.1819     C
H       0.7384   0.5369   0.8849     H
H      0.73847  0.51523  0.45433     H
O      0.73999   0.1321    0.208     O
O      0.74301   0.0314  0.34487     O
H       0.7453   0.8536   0.2409     H
H      0.74567  0.16323  0.53253     H
H       0.7485   0.6111   0.7524     H
N       0.7486   0.8116   0.0559     N
H       0.7509    0.921   0.1992     H
O      0.75311  0.57561   0.1576     O
P      0.75362  0.90453   0.7887     P
Ga      0.7562  0.10611  0.91802    Ga
H      0.75687  0.19983  0.36863     H
O      0.75772  0.84417  0.82427     O
H       0.7584   0.5195   0.7652     H
Ga        0.76  0.06481  0.21508    Ga
H       0.7601   0.8173   0.9893     H
H       0.7611   0.2416   0.7652     H
P      0.76214  0.18243  0.12203     P
C      0.77087  0.55843  0.42813     C
Ga     0.77278  0.68324  0.41531    Ga
C       0.7734    0.551   0.8283     C
C       0.7749   0.8791   0.0948     C
H      0.77497  0.58803  0.57423     H
H       0.7763   0.9098   0.0353     H
H      0.77677  0.26153  0.45433     H
C       0.7776   0.2266   0.8283     C
N      0.77803  0.94517  0.53647     N
H       0.7821   0.7996   0.0856     H
C      0.78233  0.88907  0.49497     C
H      0.78353  0.97097  0.48837     H
C      0.78757  0.22913  0.42813     C
O      0.78785  0.15783   0.0386     O
C       0.7895   0.6138   0.7793     C
C      0.79047  0.19063  0.51523     C
H       0.7959   0.6647   0.9076     H
H      0.79643  0.86817  0.55157     H
H      0.79787  0.12923  0.42573     H
H       0.7985   0.2616   0.8849     H
O      0.79877  0.72544  0.12533     O
H       0.7996   0.0175   0.9144     H
H       0.7998   0.1765   0.7266     H
H      0.80017  0.55703  0.36863     H
H      0.80407  0.08183  0.58093     H
O        0.806   0.5143   0.0929     O
C      0.80937  0.59983  0.51523     C
N       0.8116    0.063   0.9441     N
H      0.81223  0.97137  0.58947     H
H      0.81257  0.78353  0.51163     H
H      0.81307  0.22503  0.57423     H
H      0.81383  0.90557  0.43187     H
H       0.8173   0.0572   0.0107     H
P      0.81757  0.57971  0.12203     P
H       0.8181   0.8899    0.121     H
O      0.81903  0.95837  0.75957     O
O       0.8225  0.24689   0.1576     O
H       0.8235   0.6233   0.7266     H
C       0.8243   0.2105   0.7793     C
N       0.8243   0.6666   0.8527     N
N      0.82437  0.15763  0.48063     N
O       0.8245  0.70331  0.29473     O
H       0.8258   0.5211   0.9228     H
H       0.8299   0.7509   0.8008     H
N      0.83287  0.77803  0.46353     N
N       0.8338   0.5553   0.8698     N
H      0.83677  0.58243  0.53253     H
H      0.84087  0.81223  0.41053     H
O      0.84217  0.63002   0.0386     O
N       0.8423   0.1757   0.8527     N
C      0.84237  0.12283  0.55403     C
N      0.84237  0.66673  0.48063     N
H      0.84317  0.71003  0.60673     H
O      0.84417  0.08644  0.17573     O
O      0.84763  0.37497  0.57377     O
H      0.84857  0.44343  0.21233     H
P       0.8491  0.75362   0.2113     P
H      0.84937  0.27613  0.32263     H
H      0.85283  0.42777  0.90147     H
H       0.8536   0.1083   0.7591     H
H       0.8541   0.5498   0.8217     H
H      0.85443  0.36197  0.74387     H
N      0.85507  0.27033  0.38923     N
C       0.8573   0.7335   0.8181     C
O      0.86067  0.81903  0.24043     O
H       0.8626   0.2515   0.7524     H
H       0.8665   0.7763   0.9647     H
H      0.86687  0.15683  0.60673     H
H      0.86707  0.31583  0.41893     H
O       0.8679  0.60789    0.208     O
H      0.86817  0.07173  0.44843     H
H       0.8688   0.2041   0.9076     H
H      0.87023  0.46517  0.78177     H
H      0.87077  0.66863  0.42573     H
C       0.8762   0.1427   0.8181     C
C      0.87717  0.71953  0.55403     C
O      0.87882   0.1755  0.29473     O
C       0.8791   0.1042   0.9052     C
H      0.88313  0.36237  0.84497     H
C      0.88433  0.44427  0.83837     C
H      0.88457  0.53373  0.24773     H
N      0.88863  0.38817  0.79687     N
C      0.88907  0.10673  0.50503     C
H       0.8899   0.0718    0.879     H
H      0.89037  0.42353  0.29803     H
H       0.8917   0.7453   0.7591     H
C      0.89177  0.45423  0.23853     C
C      0.89327  0.78233  0.50503     C
Ga     0.89389  0.65009  0.91802    Ga
C       0.8958   0.7749   0.9052     C
P      0.90453   0.1509   0.2113     P
H      0.90557  0.09173  0.56813     H
H      0.90657  0.51603  0.34403     H
Mn     0.90667  0.26852  0.11825    Mn
H      0.90827  0.81383  0.56813     H
O      0.90894  0.48917  0.50907     O
H       0.9098   0.1335   0.9647     H
Ga     0.91047  0.22722  0.41531    Ga
P      0.91304  0.42881  0.54464     P
O      0.91356  0.75772  0.17573     O
H      0.91577  0.41233  0.13413     H
N      0.91807  0.52173  0.27743     N
H      0.91817  0.72223  0.58093     H
H        0.921   0.1701   0.8008     H
H      0.92137  0.47973  0.09243     H
O      0.92365  0.30194  0.98847     O
O      0.92668  0.20123  0.12533     O
H       0.9282   0.8181    0.879     H
H      0.92827  0.79643  0.44843     H
C      0.93317  0.45713  0.15143     C
Ga     0.93519  0.69518  0.21508    Ga
O      0.93641  0.66531   0.7859     O
N        0.937   0.7486   0.9441     N
O      0.93777  0.26974  0.54743     O
O      0.94122  0.40666  0.45867     O
H       0.9428   0.7601   0.0107     H
H      0.94443  0.52927  0.91427     H
N      0.94517  0.16713  0.46353     N
C      0.94713  0.49097  0.88737     C
O      0.95505  0.59032   0.6782     O
O      0.95564  0.33217   0.2122     O
H      0.95663  0.46647  0.94007     H
O       0.9568  0.62231  0.45447     O
O      0.95791  0.63423  0.97403     O
O      0.95837  0.13933  0.24043     O
O      0.96335  0.45452  0.62807     O
O      0.96757  0.34299  0.69263     O
O       0.9686  0.71162  0.34487     O
H      0.97097  0.18743  0.51163     H
H      0.97137  0.15913  0.41053     H
Ga     0.97148  0.57334  0.54842    Ga
H       0.9825   0.7821   0.9144     H
Ga     0.98342  0.42287  0.74865    Ga
P      0.98617  0.65914  0.72516     P
O      0.99034  0.29124   0.3593     O
P      0.99247  0.33964  0.94151     P
P       0.9937   0.3195  0.60817     P
H      0.99803  0.53547  0.75907     H
O      0.99864  0.39557  0.88077     O
O      0.99884  0.70986  0.12113     O
N      0.99993  0.50897  0.81397     N
