data_I
_chemical_name_common  '/home/zhangsd/repos/MofS-CGCNN/ML/data/SSD/clean_cifs/HEGPAL_clean'
_cell_length_a 23.74000
_cell_length_b 23.74000
_cell_length_c 13.48510
_cell_angle_alpha 90.00000
_cell_angle_beta  90.00000
_cell_angle_gamma 120.00000
_space_group_name_H-M_alt      'P 1'


loop_
_space_group_symop_operation_xyz
  'x, y, z' 

loop_
_atom_site_label
_atom_site_fract_x
_atom_site_fract_y
_atom_site_fract_z
_atom_site_type_symbol
H      0.00053  0.53937  0.77117     H
N      0.00093  0.51004  0.81537     N
O      0.00279  0.29144  0.87877     O
O      0.00299  0.60494  0.11567     O
P       0.0065  0.66013  0.05608     P
P      0.00653   0.6797  0.38942     P
O      0.01065  0.71033  0.63961     O
P      0.01303  0.33983  0.27725     P
Ga     0.01639  0.57616  0.24877    Ga
H       0.0265   0.2299   0.0917     H
Co     0.02706  0.42641  0.45331    Co
O      0.03301  0.65602  0.30628     O
O      0.03376  0.29215  0.65859     O
O       0.0338  0.54361  0.37111     O
H      0.03473  0.81917  0.47997     H
O      0.04118  0.40827  0.32526     O
O       0.0419  0.37802  0.54543     O
H      0.04253  0.84927  0.58837     H
O      0.04365    0.861  0.75587     O
O      0.04366  0.36635  0.02706     O
H      0.04417  0.46193  0.08963     H
O      0.04469  0.66946   0.7879     O
H      0.04947  0.53193  0.05763     H
C      0.05157  0.50633  0.11303     C
H       0.0551   0.2461   0.9923     H
N      0.05756  0.83526  0.53597     N
O      0.05811  0.59244  0.54013     O
O      0.06172  0.73138  0.44901     O
N      0.06211  0.25099   0.0588     N
O      0.06471  0.33632  0.21766     O
Co     0.06602  0.30628  0.78665    Co
C      0.06833  0.54367  0.84987     C
H      0.07253  0.51887  0.90947     H
H      0.07293  0.21297  0.55717     H
O      0.07422    0.799  0.87347     O
O      0.07494  0.70042  0.00807     O
H       0.0757   0.1758   0.1321     H
H       0.0772   0.8299   0.1955     H
N      0.08234  0.47779  0.72547     N
H      0.08443  0.28917  0.42297     H
P      0.08543  0.56954  0.45283     P
H      0.08603  0.58947  0.86217     H
O      0.08678  0.24443  0.82295     O
H      0.08723  0.47567  0.65897     H
O      0.08891  0.50902  0.48961     O
Ga      0.0905  0.77356  0.58211    Ga
Ga     0.09308  0.73269  0.88002    Ga
H      0.09503  0.19347  0.45247     H
P      0.09712  0.84922  0.78617     P
H      0.09843  0.90497  0.45247     H
H       0.1001   0.8694    0.043     H
H       0.1001   0.9243   0.1321     H
C       0.1023   0.2237   0.0971     C
H      0.10263  0.56657  0.70967     H
H      0.10343  0.46327  0.75837     H
C      0.10463  0.21937  0.49777     C
Ga     0.10689  0.34972  0.08456    Ga
C      0.10963  0.54527  0.76377     C
N      0.11103   0.6091  0.20263     N
H        0.113   0.2608   0.2428     H
C      0.11397  0.55193  0.16443     C
C      0.11473  0.89537  0.49777     C
H      0.11777  0.63193  0.14663     H
H      0.12037  0.52663  0.22383     H
C       0.1214   0.8977   0.0971     C
C      0.12143  0.28177  0.44637     C
C        0.123    0.858   0.1832     C
O      0.12305  0.82352  0.70445     O
H       0.1273   0.7945   0.1045     H
H      0.12783  0.33387  0.56217     H
H       0.1286   0.7511   0.2437     H
H      0.12993  0.69317  0.57497     H
H       0.1306   0.2307    0.043     H
O      0.13233  0.39144   0.7932     O
H      0.13473  0.85087  0.39097     H
O        0.139  0.18266  0.75587     O
H      0.13987  0.56823  0.11913     H
H      0.14003  0.92707  0.55717     H
H      0.14007  0.62413  0.25503     H
C        0.142    0.265   0.1832     C
H      0.14233  0.72177  0.67437     H
N      0.14445  0.72878  0.60787     N
H       0.1478    0.887   0.2428     H
H      0.14913  0.28387  0.39097     H
O      0.15068  0.62301  0.42253     O
H      0.15073  0.19327  0.58837     H
P      0.15078  0.24791  0.78617     P
H       0.1525   0.4511   0.1867     H
N      0.15663  0.82423   0.1487     N
O      0.15685  0.36713  0.96222     O
H      0.15753  0.56657  0.79877     H
N      0.15756  0.33427  0.51797     N
O      0.15764  0.91322  0.82295     O
C      0.16033  0.87857  0.44637     C
H      0.16323  0.41937  0.47117     H
N      0.16474  0.22231  0.53597     N
N      0.16859  0.44436   0.1307     N
H       0.1701   0.2473   0.1955     H
C        0.173   0.7881   0.2203     C
O      0.17569  0.75345  0.84372     O
N      0.17577   0.3324   0.1487     N
H       0.1758   0.1001   0.8679     H
O      0.17648  0.29954  0.70445     O
N       0.1767  0.84244  0.51797     N
H      0.18083  0.21557  0.47997     H
P      0.18255  0.41876   0.8805     P
H       0.1826   0.4734   0.0783     H
O      0.18266  0.04365  0.24413     O
H       0.1842   0.3828   0.2757     H
H      0.18553  0.77967  0.42387     H
N      0.18888  0.93789   0.0588     N
H        0.191   0.9449   0.9923     H
C      0.19133  0.40167  0.48347     C
H      0.19327  0.04253  0.41163     H
H       0.1933   0.7396   0.1095     H
H      0.19347  0.09843  0.54753     H
O      0.19433  0.48401   0.9108     O
H       0.1986   0.8158   0.2757     H
O        0.201  0.27523  0.87347     O
H      0.20273  0.43597  0.62367     H
H       0.2034   0.9735   0.0917     H
H      0.20473  0.91557  0.42297     H
H       0.2055   0.3328   0.1045     H
H      0.20603  0.87217  0.56217     H
O      0.21028  0.84315  0.96222     O
C      0.21033  0.80867  0.48347     C
C       0.2119   0.3849   0.2203     C
C      0.21193  0.76897  0.56957     C
H      0.21297  0.14003  0.44283     H
H      0.21557  0.03473  0.52003     H
C       0.2186   0.7713   0.1689     C
C      0.21937  0.11473  0.50223     C
H      0.22033  0.40587  0.42387     H
N      0.22231  0.05756  0.46403     N
C       0.2237   0.1214   0.9029     C
Ga     0.22644  0.31695  0.58211    Ga
C       0.2287   0.4473   0.1689     C
H       0.2299   0.2034   0.9083     H
H       0.2307   0.1001    0.957     H
C      0.23103  0.44297  0.56957     C
H      0.23323  0.74237  0.53457     H
H      0.23323  0.79727  0.62367     H
H       0.2349   0.7617   0.2142     H
P      0.23621  0.81745   0.8805     P
H       0.2383   0.4732   0.2142     H
Co     0.24025  0.93398  0.78665    Co
Ga     0.24283  0.89311  0.08456    Ga
O      0.24443  0.15764  0.17705     O
H       0.2461    0.191   0.0077     H
O      0.24655  0.42224  0.84372     O
H       0.2473   0.0772   0.8045     H
P      0.24791  0.09712  0.21383     P
H       0.2489   0.3775   0.2437     H
N      0.25099  0.18888   0.9412     N
H      0.25613  0.83677  0.47117     H
H      0.25763  0.49087  0.53457     H
O       0.2584  0.96624  0.65859     O
O      0.25911  0.86767   0.7932     O
H       0.2604   0.4537   0.1095     H
H       0.2608   0.1478   0.7572     H
C        0.265    0.123   0.8168     C
Ga     0.26731  0.36039  0.88002    Ga
O      0.26862  0.33035  0.44901     O
N      0.27122  0.41568  0.60787     N
O      0.27161  0.93529  0.21766     O
O      0.27523  0.07422  0.12653     O
N      0.27577  0.83141   0.1307     N
H      0.27823  0.42057  0.67437     H
C      0.28177  0.16033  0.55363     C
H      0.28387  0.13473  0.60903     H
O      0.28864  0.99721  0.87877     O
H      0.28917  0.20473  0.57703     H
O      0.28967  0.30032  0.63961     O
O      0.28968  0.80567   0.9108     O
H       0.2908   0.8174   0.0783     H
O      0.29144  0.28864  0.12123     O
O      0.29215   0.2584  0.34141     O
H       0.2986   0.8475   0.1867     H
O      0.29954  0.12305  0.29555     O
O      0.29958  0.37451  0.00807     O
O      0.30032  0.01065  0.36039     O
Ga     0.30628  0.24025  0.21335    Ga
H      0.30683  0.43677  0.57497     H
Ga     0.31695   0.0905  0.41789    Ga
P       0.3203  0.32684  0.38942     P
O      0.32268  0.95634  0.02706     O
P       0.3268  0.98697  0.27725     P
P      0.32684  0.00653  0.61058     P
O      0.33035  0.06172  0.55099     O
O      0.33054  0.37523   0.7879     O
N       0.3324  0.15663   0.8513     N
H       0.3328   0.1273   0.8955     H
H      0.33387  0.20603  0.43783     H
N      0.33427   0.1767  0.48203     N
O      0.33613   0.9581  0.54543     O
O      0.33632  0.27161  0.78234     O
P      0.33983   0.3268  0.72275     P
P      0.33987  0.34636  0.05608     P
O      0.34398    0.377  0.30628     O
P      0.34636   0.0065  0.94392     P
Ga     0.34972  0.24283  0.91544    Ga
H      0.35983  0.89657  0.75837     H
Co     0.36039  0.09308  0.11998    Co
O      0.36635  0.32268  0.97294     O
O      0.36709  0.95882  0.32526     O
O      0.36713  0.21028  0.03778     O
H      0.36807  0.48583  0.14663     H
O      0.37451  0.07494  0.99193     O
O      0.37523  0.04469   0.2121     O
H      0.37587  0.51593  0.25503     H
O      0.37699  0.52766  0.42253     O
O        0.377  0.03301  0.69372     O
H       0.3775   0.1286   0.7563     H
O      0.37802  0.33613  0.45457     O
H       0.3828   0.1986   0.7243     H
C       0.3849    0.173   0.7797     C
H      0.38843  0.91277  0.65897     H
N       0.3909  0.50192  0.20263     N
O      0.39144  0.25911   0.2068     O
O      0.39506  0.39804  0.11567     O
N      0.39544  0.91766  0.72547     N
O      0.39804  0.00299  0.88433     O
Co     0.39936  0.97294  0.45331    Co
C      0.40167  0.21033  0.51653     C
H      0.40587  0.18553  0.57613     H
H      0.40627  0.87963  0.22383     H
O      0.40756  0.46566  0.54013     O
O      0.40827  0.36709  0.67474     O
H      0.40903  0.84247  0.79877     H
H      0.41053  0.49657  0.86217     H
N      0.41568  0.14445  0.39213     N
H      0.41777  0.95583  0.08963     H
P      0.41876  0.23621   0.1195     P
H      0.41937  0.25613  0.52883     H
O      0.42012  0.91109  0.48961     O
H      0.42057  0.14233  0.32563     H
O      0.42224  0.17569  0.15628     O
Ga     0.42384  0.44022  0.24877    Ga
Ga     0.42641  0.39936  0.54669    Ga
H      0.42837  0.86013  0.11913     H
P      0.43046  0.51588  0.45283     P
H      0.43177  0.57163  0.11913     H
H      0.43343  0.53607  0.70967     H
H      0.43343  0.59097  0.79877     H
C      0.43563  0.89037  0.76377     C
H      0.43597  0.23323  0.37633     H
H      0.43677  0.12993  0.42503     H
C      0.43797  0.88603  0.16443     C
Ga     0.44022  0.01639  0.75123    Ga
C      0.44297  0.21193  0.43043     C
N      0.44436  0.27577   0.8693     N
H      0.44633  0.92747  0.90947     H
C       0.4473   0.2186   0.8311     C
C      0.44807  0.56203  0.16443     C
H       0.4511   0.2986   0.8133     H
H       0.4537   0.1933   0.8905     H
C      0.45473  0.56437  0.76377     C
C      0.45477  0.94843  0.11303     C
C      0.45633  0.52467  0.84987     C
O      0.45639  0.49018  0.37111     O
H      0.46063  0.46117  0.77117     H
H      0.46117  0.00053  0.22883     H
H      0.46193  0.41777  0.91037     H
H      0.46327  0.35983  0.24163     H
H      0.46393  0.89737  0.70967     H
O      0.46566  0.05811  0.45987     O
H      0.46807  0.51753  0.05763     H
O      0.47234  0.84932  0.42253     O
H       0.4732   0.2349   0.7858     H
H      0.47337  0.59373  0.22383     H
H       0.4734   0.2908   0.9217     H
C      0.47533  0.93167  0.84987     C
H      0.47567  0.38843  0.34103     H
N      0.47779  0.39544  0.27453     N
H      0.48113  0.55367  0.90947     H
H      0.48247  0.95053  0.05763     H
O      0.48401  0.28968   0.0892     O
H      0.48407  0.85993  0.25503     H
P      0.48412  0.91457  0.45283     P
H      0.48583  0.11777  0.85337     H
N      0.48996   0.4909  0.81537     N
O      0.49018   0.0338  0.62889     O
H      0.49087  0.23323  0.46543     H
N       0.4909  0.00093  0.18463     N
O      0.49098  0.57988  0.48961     O
C      0.49367  0.54523  0.11303     C
H      0.49657  0.08603  0.13783     H
N      0.49808  0.88897  0.20263     N
N      0.50192  0.11103  0.79737     N
H      0.50343  0.91397  0.86217     H
C      0.50633  0.45477  0.88697     C
O      0.50902  0.42012  0.51039     O
N       0.5091  0.99907  0.81537     N
H      0.50913  0.76677  0.53457     H
O      0.50982   0.9662  0.37111     O
N      0.51004   0.5091  0.18463     N
H      0.51417  0.88223  0.14663     H
P      0.51588  0.08543  0.54717     P
H      0.51593  0.14007  0.74497     H
O      0.51599  0.71032   0.9108     O
H      0.51753  0.04947  0.94237     H
H      0.51887  0.44633  0.09053     H
N      0.52221  0.60456  0.72547     N
H      0.52433  0.61157  0.65897     H
C      0.52467  0.06833  0.15013     C
H       0.5266   0.7092   0.0783     H
H      0.52663  0.40627  0.77617     H
H       0.5268   0.7651   0.2142     H
O      0.52766  0.15068  0.57747     O
H      0.53193  0.48247  0.94237     H
O      0.53434  0.94189  0.54013     O
H      0.53607  0.10263  0.29033     H
H      0.53673  0.64017  0.75837     H
H      0.53807  0.58223  0.08963     H
H      0.53883  0.99947  0.77117     H
H      0.53937  0.53883  0.22883     H
O      0.54361  0.50982  0.62889     O
C      0.54367  0.47533  0.15013     C
C      0.54523  0.05157  0.88697     C
C      0.54527  0.43563  0.23623     C
H       0.5463   0.8067   0.1095     H
H       0.5489   0.7014   0.1867     H
C      0.55193  0.43797  0.83557     C
C       0.5527   0.7814   0.1689     C
H      0.55367  0.07253  0.09053     H
N      0.55564  0.72423   0.1307     N
C      0.55703  0.78807  0.56957     C
Ga     0.55978  0.98361  0.24877    Ga
C      0.56203  0.11397  0.83557     C
H      0.56323  0.87007  0.57497     H
H      0.56403  0.76677  0.62367     H
C      0.56437  0.10963  0.23623     C
H      0.56657  0.40903  0.20123     H
H      0.56657  0.46393  0.29033     H
H      0.56823  0.42837  0.88087     H
P      0.56954  0.48412  0.54717     P
H      0.57163  0.13987  0.88087     H
Co     0.57359  0.60064  0.45331    Co
Ga     0.57616  0.55978  0.75123    Ga
O      0.57776  0.82431  0.84372     O
H      0.57943  0.85767  0.67437     H
O      0.57988  0.08891  0.51039     O
H      0.58063  0.74387  0.47117     H
P      0.58124  0.76379   0.8805     P
H      0.58223  0.04417  0.91037     H
N      0.58432  0.85555  0.60787     N
H      0.58947  0.50343  0.13783     H
H      0.59097  0.15753  0.20123     H
O      0.59173  0.63291  0.32526     O
O      0.59244  0.53434  0.45987     O
H      0.59373  0.12037  0.77617     H
H      0.59413  0.81447  0.42387     H
C      0.59833  0.78967  0.48347     C
Ga     0.60064  0.02706  0.54669    Ga
O      0.60196  0.99701  0.11567     O
N      0.60456  0.08234  0.27453     N
O      0.60494  0.60196  0.88433     O
O      0.60856  0.74089   0.7932     O
N       0.6091  0.49808  0.79737     N
H      0.61157  0.08723  0.34103     H
C       0.6151    0.827   0.2203     C
H       0.6172   0.8014   0.2757     H
O      0.62198  0.66387  0.54543     O
H       0.6225   0.8714   0.2437     H
O        0.623  0.96699  0.30628     O
O      0.62301  0.47234  0.57747     O
H      0.62413  0.48407  0.74497     H
O      0.62477  0.95531   0.7879     O
O      0.62549  0.92506  0.00807     O
H      0.63193  0.51417  0.85337     H
O      0.63287  0.78972  0.96222     O
O      0.63291  0.04118  0.67474     O
O      0.63365  0.67732  0.02706     O
Ga     0.63961  0.90692  0.88002    Ga
H      0.64017  0.10343  0.24163     H
Ga     0.65028  0.75717  0.08456    Ga
P      0.65364   0.9935  0.05608     P
O      0.65602    0.623  0.69372     O
P      0.66013  0.65364  0.94392     P
P      0.66017   0.6732  0.27725     P
O      0.66368  0.72839  0.21766     O
O      0.66387   0.0419  0.45457     O
N      0.66573   0.8233  0.51797     N
H      0.66613  0.79397  0.56217     H
H       0.6672   0.8727   0.1045     H
N       0.6676  0.84337   0.1487     N
O      0.66946  0.62477   0.2121     O
O      0.66965  0.93828  0.44901     O
P      0.67316  0.99347  0.38942     P
P       0.6732  0.01303  0.72275     P
O      0.67732  0.04366  0.97294     O
P       0.6797  0.67316  0.61058     P
Ga     0.68305   0.9095  0.58211    Ga
H      0.69317  0.56323  0.42503     H
Co     0.69372  0.75975  0.78665    Co
O      0.69968  0.98935  0.63961     O
O      0.70042  0.62549  0.99193     O
O      0.70046  0.87695  0.70445     O
H       0.7014   0.1525   0.8133     H
O      0.70785   0.7416  0.65859     O
O      0.70856  0.71136  0.87877     O
H       0.7092   0.1826   0.9217     H
O      0.71032  0.19433   0.0892     O
O      0.71033  0.69968  0.36039     O
H      0.71083  0.79527  0.42297     H
O      0.71136  0.00279  0.12123     O
H      0.71613  0.86527  0.39097     H
C      0.71823  0.83967  0.44637     C
H      0.72177  0.57943  0.32563     H
N      0.72423  0.16859   0.8693     N
O      0.72477  0.92578  0.87347     O
O      0.72839  0.06471  0.78234     O
N      0.72878  0.58432  0.39213     N
O      0.73138  0.66965  0.55099     O
Co     0.73269  0.63961  0.11998    Co
C        0.735    0.877   0.1832     C
H       0.7392   0.8522   0.2428     H
H       0.7396   0.5463   0.8905     H
O      0.74089  0.13233   0.2068     O
O       0.7416  0.03376  0.34141     O
H      0.74237  0.50913  0.46543     H
H      0.74387  0.16323  0.52883     H
N      0.74901  0.81112   0.0588     N
H       0.7511   0.6225   0.7563     H
P      0.75209  0.90288  0.78617     P
H       0.7527   0.9228   0.1955     H
O      0.75345  0.57776  0.15628     O
H       0.7539    0.809   0.9923     H
O      0.75557  0.84236  0.82295     O
Ga     0.75717  0.10689  0.91544    Ga
Ga     0.75975  0.06602  0.21335    Ga
H       0.7617   0.5268   0.7858     H
P      0.76379  0.18255   0.1195     P
H       0.7651   0.2383   0.7858     H
H      0.76677  0.20273  0.37633     H
H      0.76677  0.25763  0.46543     H
C      0.76897  0.55703  0.43043     C
H       0.7693   0.8999    0.043     H
H       0.7701   0.7966   0.0917     H
C       0.7713   0.5527   0.8311     C
Ga     0.77356  0.68305  0.41789    Ga
C       0.7763   0.8786   0.0971     C
N      0.77769  0.94244  0.53597     N
H      0.77967  0.59413  0.57613     H
C      0.78063  0.88527  0.49777     C
C       0.7814   0.2287   0.8311     C
H      0.78443  0.96527  0.47997     H
H      0.78703  0.85997  0.55717     H
C      0.78807  0.23103  0.43043     C
C       0.7881   0.6151   0.7797     C
C      0.78967  0.19133  0.51653     C
O      0.78972  0.15685  0.03778     O
H      0.79397  0.12783  0.43783     H
H       0.7945   0.6672   0.8955     H
H      0.79527  0.08443  0.57703     H
H       0.7966   0.0265   0.9083     H
H      0.79727  0.56403  0.37633     H
O        0.799  0.72477  0.12653     O
H       0.8014   0.1842   0.7243     H
O      0.80567  0.51599   0.0892     O
H      0.80653  0.90157  0.45247     H
H       0.8067   0.2604   0.8905     H
H      0.80673  0.95747  0.58837     H
C      0.80867  0.59833  0.51653     C
H        0.809   0.0551   0.0077     H
N      0.81112  0.06211   0.9412     N
H      0.81447  0.22033  0.57613     H
H       0.8158   0.6172   0.7243     H
O      0.81734  0.95635  0.75587     O
H       0.8174   0.5266   0.9217     H
P      0.81745  0.58124   0.1195     P
H      0.81917  0.78443  0.52003     H
N       0.8233  0.15756  0.48203     N
O      0.82352  0.70046  0.29555     O
H       0.8242   0.8999   0.1321     H
N      0.82423   0.6676   0.8513     N
O      0.82431  0.24655  0.15628     O
C        0.827   0.2119   0.7797     C
H       0.8299   0.7527   0.8045     H
N      0.83141  0.55564   0.8693     N
N      0.83526  0.77769  0.46403     N
H      0.83677  0.58063  0.52883     H
C      0.83967  0.12143  0.55363     C
O      0.84236  0.08678  0.17705     O
N      0.84244  0.66573  0.48203     N
H      0.84247  0.43343  0.20123     H
O      0.84315  0.63287  0.03778     O
N      0.84337  0.17577   0.8513     N
H       0.8475   0.5489   0.8133     H
P      0.84922  0.75209  0.21383     P
H      0.84927  0.80673  0.41163     H
O      0.84932  0.37699  0.57747     O
H      0.85087  0.71613  0.60903     H
H       0.8522    0.113   0.7572     H
N      0.85555  0.27122  0.39213     N
H      0.85767  0.27823  0.32563     H
C        0.858    0.735   0.8168     C
H      0.85993  0.37587  0.74497     H
H      0.85997  0.07293  0.44283     H
H      0.86013  0.43177  0.88087     H
O        0.861  0.81734  0.24413     O
H      0.86527  0.14913  0.60903     H
O      0.86767  0.60856   0.2068     O
H       0.8694   0.7693    0.957     H
H      0.87007  0.30683  0.42503     H
H       0.8714   0.2489   0.7563     H
H      0.87217  0.66613  0.43783     H
H       0.8727   0.2055   0.8955     H
O      0.87695  0.17648  0.29555     O
C        0.877    0.142   0.8168     C
C      0.87857  0.71823  0.55363     C
C       0.8786   0.1023   0.9029     C
H      0.87963  0.47337  0.77617     H
H      0.88223  0.36807  0.85337     H
C      0.88527  0.10463  0.50223     C
C      0.88603  0.44807  0.83557     C
H        0.887   0.7392   0.7572     H
N      0.88897   0.3909  0.79737     N
C      0.89037  0.45473  0.23623     C
Ga     0.89311  0.65028  0.91544    Ga
C      0.89537  0.78063  0.50223     C
H      0.89657  0.53673  0.24163     H
H      0.89737  0.43343  0.29033     H
C       0.8977   0.7763   0.9029     C
H       0.8999   0.0757   0.8679     H
H       0.8999   0.1306    0.957     H
H      0.90157  0.09503  0.54753     H
P      0.90288  0.15078  0.21383     P
H      0.90497  0.80653  0.54753     H
Co     0.90692  0.26731  0.11998    Co
Ga      0.9095  0.22644  0.41789    Ga
O      0.91109  0.49098  0.51039     O
H      0.91277  0.52433  0.34103     H
O      0.91322  0.75557  0.17705     O
H      0.91397  0.41053  0.13783     H
P      0.91457  0.43046  0.54717     P
H      0.91557  0.71083  0.57703     H
N      0.91766  0.52221  0.27453     N
H       0.9228   0.1701   0.8045     H
H       0.9243   0.8242   0.8679     H
O      0.92506  0.29958  0.99193     O
O      0.92578    0.201  0.12653     O
H      0.92707  0.78703  0.44283     H
H      0.92747  0.48113  0.09053     H
C      0.93167  0.45633  0.15013     C
Ga     0.93398  0.69372  0.21335    Ga
O      0.93529  0.66368  0.78234     O
N      0.93789  0.74901   0.9412     N
O      0.93828  0.26862  0.55099     O
O      0.94189  0.40756  0.45987     O
N      0.94244  0.16474  0.46403     N
H       0.9449   0.7539   0.0077     H
C      0.94843  0.49367  0.88697     C
H      0.95053  0.46807  0.94237     H
O      0.95531  0.33054   0.2121     O
H      0.95583  0.53807  0.91037     H
O      0.95634  0.63365  0.97294     O
O      0.95635    0.139  0.24413     O
H      0.95747  0.15073  0.41163     H
O       0.9581  0.62198  0.45457     O
O      0.95882  0.59173  0.67474     O
H      0.96527  0.18083  0.52003     H
O       0.9662  0.45639  0.62889     O
O      0.96624  0.70785  0.34141     O
O      0.96699  0.34398  0.69372     O
Ga     0.97294  0.57359  0.54669    Ga
H       0.9735   0.7701   0.9083     H
Ga     0.98361  0.42384  0.75123    Ga
P      0.98697  0.66017  0.72275     P
O      0.98935  0.28967  0.36039     O
P      0.99347   0.3203  0.61058     P
P       0.9935  0.33987  0.94392     P
O      0.99701  0.39506  0.88433     O
O      0.99721  0.70856  0.12123     O
N      0.99907  0.48996  0.18463     N
H      0.99947  0.46063  0.22883     H
