data_I
_chemical_name_common  '/home/zhangsd/repos/MofS-CGCNN/ML/data/SSD/clean_cifs/HEWFUL_ion_b'
_cell_length_a 16.69390
_cell_length_b 16.69390
_cell_length_c 16.69390
_cell_angle_alpha 117.06050
_cell_angle_beta  117.06050
_cell_angle_gamma 117.06050
_space_group_name_H-M_alt      'P 1'


loop_
_space_group_symop_operation_xyz
  'x, y, z' 

loop_
_atom_site_label
_atom_site_fract_x
_atom_site_fract_y
_atom_site_fract_z
_atom_site_type_symbol
Cu     0.01216  0.03959  0.41213    Cu
O        0.014    0.241   0.9086     O
P      0.01822  0.84022  0.21646     P
H       0.0271   0.2658   0.0817     H
O       0.0298    0.598   0.1281     O
H       0.0385   0.7515    0.618     H
Cu     0.03959  0.41213  0.01216    Cu
C       0.0397   0.3356   0.1427     C
H        0.052   0.7842   0.7308     H
H       0.0588   0.6324   0.6817     H
K      0.07168  0.63008  0.38354     K
H       0.0817   0.0271   0.2658     H
O       0.0914    0.986    0.759     O
H       0.0997   0.3792   0.2395     H
O       0.0998   0.8653    0.336     O
H       0.1011   0.6319   0.6147     H
C       0.1144    0.829   0.7307     C
H       0.1176   0.2092   0.7219     H
O       0.1281   0.0298    0.598     O
N        0.132   0.4707    0.191     N
O       0.1347    0.664   0.9002     O
H       0.1402   0.5326   0.2463     H
C       0.1427   0.0397   0.3356     C
C       0.1474   0.6954   0.7134     C
N       0.1504   0.1977   0.7705     N
P      0.15978  0.78354  0.98178     P
C        0.171   0.2693   0.8856     C
O       0.1757   0.2665    0.614     O
C        0.182   0.7342   0.2729     C
N        0.191    0.132   0.4707     N
N       0.1977   0.7705   0.1504     N
H       0.2092   0.7219   0.1176     H
H       0.2158   0.2692    0.948     H
P      0.21646  0.01822  0.84022     P
O       0.2196   0.5985   0.4846     O
O       0.2223    0.611   0.7514     O
N       0.2295   0.8496   0.8023     N
H       0.2395   0.0997   0.3792     H
O        0.241   0.9086    0.014     O
H       0.2463   0.1402   0.5326     H
H       0.2485    0.382   0.9615     H
O       0.2486   0.7777    0.389     O
H       0.2658   0.0817   0.0271     H
C       0.2658   0.7271    0.818     C
O       0.2665    0.614   0.1757     O
H       0.2692    0.948   0.2158     H
C       0.2693   0.8856    0.171     C
C       0.2729    0.182   0.7342     C
H       0.2761   0.3015   0.5125     H
H       0.2781   0.8824   0.7908     H
C       0.2866   0.8526   0.3046     C
C       0.2962   0.3692   0.6668     C
H       0.3015   0.5125   0.2761     H
C        0.302   0.5781   0.3051     C
C       0.3046   0.2866   0.8526     C
C       0.3051    0.302   0.5781     C
H       0.3183   0.9412   0.3676     H
C       0.3332   0.7038   0.6308     C
C       0.3356   0.1427   0.0397     C
O        0.336   0.0998   0.8653     O
H       0.3428   0.5841   0.6284     H
H       0.3676   0.3183   0.9412     H
H       0.3681   0.3853   0.8989     H
C       0.3692   0.6668   0.2962     C
K      0.36992  0.61646  0.92832     K
H       0.3716   0.6572   0.4159     H
H       0.3792   0.2395   0.0997     H
H        0.382   0.9615   0.2485     H
K      0.38354  0.07168  0.63008     K
H       0.3853   0.8989   0.3681     H
O        0.386   0.8243   0.7335     O
O        0.389   0.2486   0.7777     O
O       0.4015   0.5154   0.7804     O
O        0.402   0.8719   0.9702     O
Cu     0.41213  0.01216  0.03959    Cu
H       0.4159   0.3716   0.6572     H
C       0.4219   0.6949    0.698     C
H       0.4674   0.7537   0.8598     H
N       0.4707    0.191    0.132     N
O       0.4846   0.2196   0.5985     O
H       0.4875   0.7239   0.6985     H
H       0.5125   0.2761   0.3015     H
O       0.5154   0.7804   0.4015     O
N       0.5293    0.809    0.868     N
H       0.5326   0.2463   0.1402     H
C       0.5781   0.3051    0.302     C
H       0.5841   0.6284   0.3428     H
Cu     0.58787  0.98784  0.96041    Cu
O        0.598   0.1281   0.0298     O
O       0.5985   0.4846   0.2196     O
O        0.611   0.7514   0.2223     O
O        0.614   0.1757   0.2665     O
H       0.6147   0.1011   0.6319     H
K      0.61646  0.92832  0.36992     K
H        0.618   0.0385   0.7515     H
H       0.6208   0.7605   0.9003     H
H       0.6284   0.3428   0.5841     H
K      0.63008  0.38354  0.07168     K
C       0.6308   0.3332   0.7038     C
H       0.6319   0.6147   0.1011     H
H       0.6324   0.6817   0.0588     H
H       0.6572   0.4159   0.3716     H
O        0.664   0.9002   0.1347     O
C       0.6644   0.8573   0.9603     C
C       0.6668   0.2962   0.3692     C
H       0.6817   0.0588   0.6324     H
C       0.6949    0.698   0.4219     C
C       0.6954   0.7134   0.1474     C
C        0.698   0.4219   0.6949     C
H       0.6985   0.4875   0.7239     H
C       0.7038   0.6308   0.3332     C
C       0.7134   0.1474   0.6954     C
H       0.7219   0.1176   0.2092     H
H       0.7239   0.6985   0.4875     H
C       0.7271    0.818   0.2658     C
C       0.7307   0.1144    0.829     C
H       0.7308    0.052   0.7842     H
O       0.7335    0.386   0.8243     O
C       0.7342   0.2729    0.182     C
H       0.7342   0.9183   0.9729     H
O       0.7514   0.2223    0.611     O
H       0.7515    0.618   0.0385     H
H       0.7537   0.8598   0.4674     H
O        0.759   0.0914    0.986     O
H       0.7605   0.9003   0.6208     H
N       0.7705   0.1504   0.1977     N
O       0.7777    0.389   0.2486     O
O       0.7804   0.4015   0.5154     O
P      0.78354  0.98178  0.15978     P
H       0.7842   0.7308    0.052     H
H       0.7908   0.2781   0.8824     H
N       0.8023   0.2295   0.8496     N
N        0.809    0.868   0.5293     N
C        0.818   0.2658   0.7271     C
O       0.8243   0.7335    0.386     O
C        0.829   0.7307   0.1144     C
P      0.84022  0.21646  0.01822     P
N       0.8496   0.8023   0.2295     N
C       0.8526   0.3046   0.2866     C
C       0.8573   0.9603   0.6644     C
H       0.8598   0.4674   0.7537     H
O       0.8653    0.336   0.0998     O
N        0.868   0.5293    0.809     N
O       0.8719   0.9702    0.402     O
H       0.8824   0.7908   0.2781     H
C       0.8856    0.171   0.2693     C
H       0.8989   0.3681   0.3853     H
O       0.9002   0.1347    0.664     O
H       0.9003   0.6208   0.7605     H
O       0.9086    0.014    0.241     O
H       0.9183   0.9729   0.7342     H
K      0.92832  0.36992  0.61646     K
H       0.9412   0.3676   0.3183     H
H        0.948   0.2158   0.2692     H
C       0.9603   0.6644   0.8573     C
Cu     0.96041  0.58787  0.98784    Cu
H       0.9615   0.2485    0.382     H
O       0.9702    0.402   0.8719     O
H       0.9729   0.7342   0.9183     H
P      0.98178  0.15978  0.78354     P
O        0.986    0.759   0.0914     O
Cu     0.98784  0.96041  0.58787    Cu
