data_I
_chemical_name_common  '/home/zhangsd/repos/MofS-CGCNN/ML/data/SSD/clean_cifs/HIFGIO_SL'
_cell_length_a  5.96600
_cell_length_b 19.01320
_cell_length_c 19.01320
_cell_angle_alpha 101.32700
_cell_angle_beta  97.75150
_cell_angle_gamma 82.24850
_space_group_name_H-M_alt      'P 1'


loop_
_space_group_symop_operation_xyz
  'x, y, z' 

loop_
_atom_site_label
_atom_site_fract_x
_atom_site_fract_y
_atom_site_fract_z
_atom_site_type_symbol
H       0.0112   0.0291   0.6959     H
H       0.0112   0.3041   0.9709     H
C       0.0261   0.0515   0.4641     C
C       0.0261   0.5359   0.9485     C
H       0.0488    0.088    0.439     H
H       0.0488    0.561    0.912     H
C       0.1256   0.4337   0.0067     C
C       0.1256   0.9933   0.5663     C
C       0.1549   0.0484   0.5306     C
C       0.1549   0.4694   0.9516     C
O       0.1627  0.02831  0.97169     O
H       0.1627  0.08195  0.98223     H
C       0.1632   0.0063   0.6983     C
C       0.1632   0.3017   0.9937     C
O       0.1733   0.0604  0.15352     O
O       0.1733  0.84648   0.9396     O
H       0.1904   0.0076   0.8052     H
H       0.1904   0.1948   0.9924     H
H       0.2477   0.0719   0.2873     H
H       0.2477   0.7127   0.9281     H
C       0.2583   0.3626   0.0144     C
C       0.2583   0.9856   0.6374     C
C       0.2721   0.2358   0.0034     C
C       0.2721   0.9966   0.7642     C
H       0.3454   0.1308   0.5212     H
H       0.3454   0.4788   0.8692     H
H       0.3569   0.1194   0.6028     H
H       0.3569   0.3972   0.8806     H
C       0.3589   0.0948   0.5524     C
C       0.3589   0.4476   0.9052     C
C       0.3738   0.0344    0.157     C
C       0.3738    0.843   0.9656     C
C       0.4016   0.0509   0.2891     C
C       0.4016   0.7109   0.9491     C
H       0.4472   0.0583   0.3969     H
H       0.4472   0.6031   0.9417     H
O       0.4597    0.013   0.1038     O
O       0.4597   0.8962    0.987     O
C       0.4771   0.3547   0.0429     C
C       0.4771   0.9571   0.6453     C
H       0.4978   0.5471   0.0635     H
H       0.4978   0.9365   0.4529     H
C       0.4993   0.0293   0.2285     C
C       0.4993   0.7715   0.9707     C
Zn         0.5      0.0      0.0    Zn
C       0.5007   0.2285   0.0293     C
C       0.5007   0.9707   0.7715     C
H       0.5022   0.0635   0.5471     H
H       0.5022   0.4529   0.9365     H
C       0.5229   0.0429   0.3547     C
C       0.5229   0.6453   0.9571     C
O       0.5403   0.1038    0.013     O
O       0.5403    0.987   0.8962     O
H       0.5528   0.3969   0.0583     H
H       0.5528   0.9417   0.6031     H
C       0.5984   0.2891   0.0509     C
C       0.5984   0.9491   0.7109     C
C       0.6262    0.157   0.0344     C
C       0.6262   0.9656    0.843     C
C       0.6411   0.5524   0.0948     C
C       0.6411   0.9052   0.4476     C
H       0.6431   0.6028   0.1194     H
H       0.6431   0.8806   0.3972     H
H       0.6546   0.5212   0.1308     H
H       0.6546   0.8692   0.4788     H
C       0.7279   0.0034   0.2358     C
C       0.7279   0.7642   0.9966     C
C       0.7417   0.0144   0.3626     C
C       0.7417   0.6374   0.9856     C
H       0.7523   0.2873   0.0719     H
H       0.7523   0.9281   0.7127     H
H       0.8096   0.8052   0.0076     H
H       0.8096   0.9924   0.1948     H
O       0.8267  0.15352   0.0604     O
O       0.8267   0.9396  0.84648     O
C       0.8368   0.6983   0.0063     C
C       0.8368   0.9937   0.3017     C
H       0.8373  0.91805  0.01777     H
O       0.8373  0.97169  0.02831     O
C       0.8451   0.5306   0.0484     C
C       0.8451   0.9516   0.4694     C
C       0.8744   0.0067   0.4337     C
C       0.8744   0.5663   0.9933     C
H       0.9512    0.439    0.088     H
H       0.9512    0.912    0.561     H
C       0.9739   0.4641   0.0515     C
C       0.9739   0.9485   0.5359     C
H       0.9888   0.6959   0.0291     H
H       0.9888   0.9709   0.3041     H
Zn         1.0  0.06012  0.06012    Zn
Zn         1.0  0.93988  0.93988    Zn
