data_I
_chemical_name_common  '/home/zhangsd/repos/MofS-CGCNN/ML/data/SSD/clean_cifs/HIMSAY_clean'
_cell_length_a 11.36100
_cell_length_b 12.64500
_cell_length_c 14.77500
_cell_angle_alpha 90.00000
_cell_angle_beta  90.00000
_cell_angle_gamma 90.00000
_space_group_name_H-M_alt      'P 1'


loop_
_space_group_symop_operation_xyz
  'x, y, z' 

loop_
_atom_site_label
_atom_site_fract_x
_atom_site_fract_y
_atom_site_fract_z
_atom_site_type_symbol
C      0.06535      0.0     0.25     C
C      0.06535      0.0     0.75     C
C       0.0667  0.47806      0.5     C
C       0.0667  0.52194      0.0     C
C      0.08087  0.40893  0.41916     C
C      0.08087  0.40893  0.58084     C
C      0.08087  0.59107  0.08084     C
C      0.08087  0.59107  0.91916     C
H       0.0883   0.1565    0.278     H
H       0.0883   0.1565    0.722     H
H       0.0883   0.8435    0.222     H
H       0.0883   0.8435    0.778     H
N       0.0937  0.35832  0.35731     N
N       0.0937  0.35832  0.64269     N
N       0.0937  0.64168  0.14269     N
N       0.0937  0.64168  0.85731     N
C       0.1282  0.09183  0.26669     C
C       0.1282  0.09183  0.73331     C
C       0.1282  0.90817  0.23331     C
C       0.1282  0.90817  0.76669     C
C       0.1583   0.4342      0.0     C
C       0.1583   0.5658      0.5     C
H       0.1704   0.4201   0.1367     H
H       0.1704   0.4201   0.8633     H
H       0.1704   0.5799   0.3633     H
H       0.1704   0.5799   0.6367     H
C      0.19887  0.39254  0.08103     C
C      0.19887  0.39254  0.91897     C
C      0.19887  0.60746  0.41897     C
C      0.19887  0.60746  0.58103     C
C       0.2499  0.08808  0.26663     C
C       0.2499  0.08808  0.73337     C
C       0.2499  0.91192  0.23337     C
C       0.2499  0.91192  0.76663     C
C      0.28025  0.31211  0.08104     C
C      0.28025  0.31211  0.91896     C
C      0.28025  0.68789  0.41896     C
C      0.28025  0.68789  0.58104     C
H       0.2922   0.1512   0.2792     H
H       0.2922   0.1512   0.7208     H
H       0.2922   0.8488   0.2208     H
H       0.2922   0.8488   0.7792     H
H       0.3062   0.2833    0.137     H
H       0.3062   0.2833    0.863     H
H       0.3062   0.7167    0.363     H
H       0.3062   0.7167    0.637     H
N      0.31054      0.0     0.25     N
N      0.31054      0.0     0.75     N
C      0.32557  0.27193      0.0     C
C      0.32557  0.72807      0.5     C
C      0.41707  0.19236      0.0     C
C      0.41707  0.80764      0.5     C
C       0.4631    0.152  0.08013     C
C       0.4631    0.152  0.91987     C
C       0.4631    0.848  0.41987     C
C       0.4631    0.848  0.58013     C
N      0.49952  0.11975  0.14743     N
N      0.49952  0.11975  0.85257     N
N      0.49952  0.88025  0.35257     N
N      0.49952  0.88025  0.64743     N
Zn         0.5      0.0     0.25    Zn
Zn         0.5      0.0     0.75    Zn
N      0.50048  0.11975  0.35257     N
N      0.50048  0.11975  0.64743     N
N      0.50048  0.88025  0.14743     N
N      0.50048  0.88025  0.85257     N
C       0.5369    0.152  0.41987     C
C       0.5369    0.152  0.58013     C
C       0.5369    0.848  0.08013     C
C       0.5369    0.848  0.91987     C
C      0.58293  0.19236      0.5     C
C      0.58293  0.80764      0.0     C
C      0.67443  0.27193      0.5     C
C      0.67443  0.72807      0.0     C
N      0.68946      0.0     0.25     N
N      0.68946      0.0     0.75     N
H       0.6938   0.2833    0.363     H
H       0.6938   0.2833    0.637     H
H       0.6938   0.7167    0.137     H
H       0.6938   0.7167    0.863     H
H       0.7078   0.1512   0.2208     H
H       0.7078   0.1512   0.7792     H
H       0.7078   0.8488   0.2792     H
H       0.7078   0.8488   0.7208     H
C      0.71975  0.31211  0.41896     C
C      0.71975  0.31211  0.58104     C
C      0.71975  0.68789  0.08104     C
C      0.71975  0.68789  0.91896     C
C       0.7501  0.08808  0.23337     C
C       0.7501  0.08808  0.76663     C
C       0.7501  0.91192  0.26663     C
C       0.7501  0.91192  0.73337     C
C      0.80113  0.39254  0.41897     C
C      0.80113  0.39254  0.58103     C
C      0.80113  0.60746  0.08103     C
C      0.80113  0.60746  0.91897     C
H       0.8296   0.4201   0.3633     H
H       0.8296   0.4201   0.6367     H
H       0.8296   0.5799   0.1367     H
H       0.8296   0.5799   0.8633     H
C       0.8417   0.4342      0.5     C
C       0.8417   0.5658      0.0     C
C       0.8718  0.09183  0.23331     C
C       0.8718  0.09183  0.76669     C
C       0.8718  0.90817  0.26669     C
C       0.8718  0.90817  0.73331     C
N       0.9063  0.35832  0.14269     N
N       0.9063  0.35832  0.85731     N
N       0.9063  0.64168  0.35731     N
N       0.9063  0.64168  0.64269     N
H       0.9117   0.1565    0.222     H
H       0.9117   0.1565    0.778     H
H       0.9117   0.8435    0.278     H
H       0.9117   0.8435    0.722     H
C      0.91913  0.40893  0.08084     C
C      0.91913  0.40893  0.91916     C
C      0.91913  0.59107  0.41916     C
C      0.91913  0.59107  0.58084     C
C       0.9333  0.47806      0.0     C
C       0.9333  0.52194      0.5     C
C      0.93465      0.0     0.25     C
C      0.93465      0.0     0.75     C
