data_I
_chemical_name_common  '/home/zhangsd/repos/MofS-CGCNN/ML/data/SSD/clean_cifs/HISJIE_clean'
_cell_length_a 14.37470
_cell_length_b 18.63300
_cell_length_c 23.95700
_cell_angle_alpha 90.00000
_cell_angle_beta  90.00000
_cell_angle_gamma 90.00000
_space_group_name_H-M_alt      'P 1'


loop_
_space_group_symop_operation_xyz
  'x, y, z' 

loop_
_atom_site_label
_atom_site_fract_x
_atom_site_fract_y
_atom_site_fract_z
_atom_site_type_symbol
C       0.0041   0.0943  0.53786     C
H       0.0051   0.7242   0.6758     H
O       0.0061  0.21367  0.66744     O
O       0.0083  0.66065  0.47258     O
O      0.00974  0.33743  0.99469     O
C       0.0104   0.2306  0.19046     C
H       0.0108   0.9687   0.9816     H
O       0.0112   0.5685  0.41538     O
C       0.0135  0.11016  0.98726     C
H       0.0197   0.6967   0.2995     H
C       0.0202   0.2346  0.28939     C
H       0.0213   0.7169   0.8417     H
O      0.02156  0.17662  0.99842     O
O      0.02418  0.20742  0.86945     O
C        0.028   0.7164  0.75778     C
O      0.03038  0.59085  0.05561     O
H        0.031   0.9539   0.5322     H
C       0.0366  0.98282  0.01548     C
C       0.0393   0.0475  0.49177     C
H       0.0397   0.2201   0.7688     H
C        0.046   0.9746  0.49806     C
C        0.047   0.8532   0.0431     C
C       0.0479  0.05507   0.0276     C
H       0.0492   0.4876   0.8126     H
H       0.0503   0.4784    0.666     H
Co     0.05697  0.71078  0.40601    Co
H       0.0585   0.1279   0.4352     H
C       0.0639   0.0786  0.44002     C
C       0.0643   0.9313  0.05449     C
C       0.0746   0.9311  0.45465     C
O       0.0749  0.81495  0.41743     O
O      0.07523  0.82456  0.50961     O
Co     0.07683  0.70095  0.06836    Co
C       0.0771    0.852  0.46148     C
C       0.0842   0.0768  0.07907     C
H       0.0861   0.0512   0.3115     H
C       0.0874   0.2422  0.66344     C
O       0.0885  0.80873  0.07376     O
H       0.0906   0.8183   0.2787     H
H       0.0907   0.1254    0.087     H
C       0.0958   0.0365  0.39656     C
C       0.0965   0.2439  0.76733     C
C       0.0973   0.2657  0.18591     C
C       0.0993  0.24268  0.87166     C
O      0.09951   0.2617   0.0873     O
C       0.1007   0.9623  0.40423     C
C       0.1021   0.9536  0.10557     C
H       0.1038   0.0314   0.2038     H
C       0.1066   0.2685  0.28621     C
C       0.1108   0.0256  0.11872     C
C       0.1112    0.471  0.81997     C
H       0.1125   0.4195   0.8183     H
C       0.1127   0.4623  0.65908     C
H       0.1135   0.4109   0.6566     H
H       0.1167   0.1213   0.3427     H
H       0.1177   0.8566   0.2227     H
Co     0.11975  0.26413  0.00089    Co
H       0.1217    0.636     0.77     H
H       0.1217   0.9334   0.3752     H
H       0.1219   0.9193   0.1312     H
C       0.1221   0.6821    0.752     C
C       0.1244   0.0702  0.34082     C
O       0.1253   0.2531  0.61748     O
O       0.1258   0.2763  0.38418     O
H       0.1291   0.6015   0.8633     H
H        0.131    0.599   0.6244     H
C       0.1356   0.8487  0.26083     C
C       0.1358   0.2616  0.71613     C
H       0.1367   0.6762   0.7132     H
H       0.1385   0.8939     0.28     H
O       0.1391  0.26485  0.91511     O
C       0.1398   0.2832  0.13031     C
C       0.1415   0.4959  0.87825     C
C        0.143   0.2624  0.81655     C
C       0.1442   0.2839  0.23381     C
C       0.1449   0.0494  0.17543     C
C       0.1454   0.5684  0.89059     C
H        0.146   0.1009   0.1769     H
C       0.1473    0.494  0.60491     C
H       0.1523   0.4775   0.6891     H
H       0.1529   0.4902   0.7925     H
C       0.1538   0.5682   0.5971     C
C        0.158   0.2888   0.3379     C
H       0.1611   0.3983   0.9115     H
C       0.1649   0.4472  0.91916     C
H       0.1681   0.7122   0.7693     H
H       0.1724   0.3994   0.5668     H
C       0.1734  0.59308  0.94317     C
O       0.1736  0.71686  0.57701     O
O       0.1763  0.71316  0.91408     O
C       0.1764   0.4488  0.56229     C
C       0.1783   0.6724   0.9559     C
Co     0.18467  0.82464  0.57113    Co
O      0.18547  0.69263  0.00512     O
H       0.1884   0.0592   0.3333     H
C       0.1935   0.5964  0.54951     C
C       0.1944  0.46997  0.97246     C
C        0.199  0.54342  0.98372     C
Co     0.19914  0.81764  0.90684    Co
H       0.2016   0.3068   0.2313     H
H       0.2065   0.0311   0.1816     H
C       0.2117   0.4771  0.51263     C
C       0.2117   0.6754  0.54343     C
O       0.2127  0.32133  0.13156     O
H       0.2192   0.5592   0.0185     H
O      0.22061  0.34993  0.00398     O
C       0.2213   0.5508  0.50612     C
C       0.2216   0.2954   0.7139     C
C        0.228   0.4172   0.0135     C
C       0.2281   0.2954  0.81401     C
C       0.2306   0.8129   0.2625     C
O       0.2312  0.93719  0.55689     O
O       0.2327  0.19467  0.00561     O
H       0.2346   0.8338   0.7992     H
O       0.2385  0.95555  0.91884     O
O       0.2396  0.31691  0.33228     O
H       0.2408   0.8064    0.347     H
C       0.2436     0.43  0.46566     C
H       0.2459   0.5697   0.4734     H
H       0.2476   0.3066   0.6794     H
O       0.2478  0.86285  0.97579     O
O       0.2522  0.36285  0.47579     O
H       0.2524   0.8066   0.1794     H
H       0.2541   0.0697   0.9734     H
C       0.2564     0.93  0.96566     C
H       0.2592   0.3064    0.847     H
O       0.2604  0.81691  0.83228     O
O       0.2615  0.45555  0.41884     O
H       0.2654   0.3338   0.2992     H
O       0.2673  0.69467  0.50561     O
O       0.2688  0.43719  0.05689     O
C       0.2694   0.3129   0.7625     C
C       0.2719   0.7954  0.31401     C
C        0.272   0.9172   0.5135     C
C       0.2784   0.7954   0.2139     C
C       0.2787   0.0508  0.00612     C
O      0.27939  0.84993  0.50398     O
H       0.2808   0.0592   0.5185     H
O       0.2873  0.82133  0.63156     O
C       0.2883   0.1754  0.04343     C
C       0.2883   0.9771  0.01263     C
H       0.2935   0.5311   0.6816     H
H       0.2984   0.8068   0.7313     H
Co     0.30086  0.31764  0.40684    Co
C        0.301  0.04342  0.48372     C
C       0.3056  0.96997  0.47246     C
C       0.3065   0.0964  0.04951     C
H       0.3116   0.5592   0.8333     H
O      0.31453  0.19263  0.50512     O
Co     0.31533  0.32464  0.07113    Co
C       0.3217   0.1724   0.4559     C
C       0.3236   0.9488  0.06229     C
O       0.3237  0.21316  0.41408     O
O       0.3264  0.21686  0.07701     O
C       0.3266  0.09308  0.44317     C
H       0.3276   0.8994   0.0668     H
H       0.3319   0.2122   0.2693     H
C       0.3351   0.9472  0.41916     C
H       0.3389   0.8983   0.4115     H
C        0.342   0.7888   0.8379     C
C       0.3462   0.0682   0.0971     C
H       0.3471   0.9902   0.2925     H
H       0.3477   0.9775   0.1891     H
C       0.3527    0.994  0.10491     C
H        0.354   0.6009   0.6769     H
C       0.3546   0.0684  0.39059     C
C       0.3551   0.5494  0.67543     C
C       0.3558   0.7839  0.73381     C
C        0.357   0.7624  0.31655     C
C       0.3585   0.9959  0.37825     C
C       0.3602   0.7832  0.63031     C
O       0.3609  0.76485  0.41511     O
H       0.3615   0.3939     0.78     H
H       0.3633   0.1762   0.2132     H
C       0.3642   0.7616  0.21613     C
C       0.3644   0.3487  0.76083     C
H        0.369    0.099   0.1244     H
H       0.3709   0.1015   0.3633     H
O       0.3742   0.7763  0.88418     O
O       0.3747   0.7531  0.11748     O
C       0.3756   0.5702  0.84082     C
C       0.3779   0.1821    0.252     C
H       0.3781   0.4193   0.6312     H
H       0.3783    0.136     0.27     H
H       0.3783   0.4334   0.8752     H
Co     0.38025  0.76413  0.50089    Co
H       0.3823   0.3566   0.7227     H
H       0.3833   0.6213   0.8427     H
H       0.3865   0.9109   0.1566     H
C       0.3873   0.9623  0.15908     C
H       0.3875   0.9195   0.3183     H
C       0.3888    0.971  0.31997     C
C       0.3892   0.5256  0.61872     C
C       0.3934   0.7685  0.78621     C
H       0.3962   0.5314   0.7038     H
C       0.3979   0.4536  0.60557     C
C       0.3993   0.4623  0.90423     C
O      0.40049   0.7617   0.5873     O
C       0.4007  0.74268  0.37166     C
C       0.4027   0.7657  0.68591     C
C       0.4035   0.7439  0.26733     C
C       0.4042   0.5365  0.89656     C
H       0.4093   0.6254    0.587     H
H       0.4094   0.3183   0.7787     H
O       0.4115  0.30873  0.57376     O
C       0.4126   0.7422  0.16344     C
H       0.4139   0.5512   0.8115     H
C       0.4158   0.5768  0.57907     C
C       0.4229    0.352  0.96148     C
Co     0.42317  0.20095  0.56836    Co
O      0.42477  0.32456  0.00961     O
O       0.4251  0.31495  0.91743     O
C       0.4254   0.4311  0.95465     C
C       0.4357   0.4313  0.55449     C
C       0.4361   0.5786  0.94002     C
H       0.4415   0.6279   0.9352     H
Co     0.44303  0.21078  0.90601    Co
H       0.4497   0.9784    0.166     H
H       0.4508   0.9876   0.3126     H
C       0.4521  0.55507   0.5276     C
C        0.453   0.3532   0.5431     C
C        0.454   0.4746  0.99806     C
H       0.4603   0.7201   0.2688     H
C       0.4607   0.5475  0.99177     C
C       0.4634  0.48282  0.51548     C
H        0.469   0.4539   0.0322     H
O      0.46962  0.09085  0.55561     O
C        0.472   0.2164  0.25778     C
O      0.47582  0.70742  0.36945     O
O      0.47844  0.67662  0.49842     O
H       0.4787   0.2169   0.3417     H
C       0.4798   0.7346  0.78939     C
H       0.4803   0.1967   0.7995     H
C       0.4865  0.61016  0.48726     C
O       0.4888   0.0685  0.91538     O
H       0.4892   0.4687   0.4816     H
C       0.4896   0.7306  0.69046     C
O      0.49026  0.83743  0.49469     O
O       0.4917  0.16065  0.97258     O
O       0.4939  0.71367  0.16744     O
H       0.4949   0.2242   0.1758     H
C       0.4959   0.5943  0.03786     C
C       0.5041   0.0943  0.96214     C
H       0.5051   0.7242   0.8242     H
O       0.5061  0.21367  0.83256     O
O       0.5083  0.66065  0.02742     O
O      0.50974  0.33743  0.50531     O
C       0.5104   0.2306  0.30954     C
H       0.5108   0.9687   0.5184     H
O       0.5112   0.5685  0.08462     O
C       0.5135  0.11016  0.51274     C
H       0.5197   0.6967   0.2005     H
C       0.5202   0.2346  0.21061     C
H       0.5213   0.7169   0.6583     H
O      0.52156  0.17662  0.50158     O
O      0.52418  0.20742  0.63055     O
C        0.528   0.7164  0.74222     C
O      0.53038  0.59085  0.44439     O
H        0.531   0.9539   0.9678     H
C       0.5366  0.98282  0.48452     C
C       0.5393   0.0475  0.00823     C
H       0.5397   0.2201   0.7312     H
C        0.546   0.9746  0.00194     C
C        0.547   0.8532   0.4569     C
C       0.5479  0.05507   0.4724     C
H       0.5492   0.4876   0.6874     H
H       0.5503   0.4784    0.834     H
Co     0.55697  0.71078  0.09399    Co
H       0.5585   0.1279   0.0648     H
C       0.5639   0.0786  0.05998     C
C       0.5643   0.9313  0.44551     C
C       0.5746   0.9311  0.04535     C
O       0.5749  0.81495  0.08257     O
O      0.57523  0.82456  0.99039     O
Co     0.57683  0.70095  0.43164    Co
C       0.5771    0.852  0.03852     C
C       0.5842   0.0768  0.42093     C
H       0.5861   0.0512   0.1885     H
C       0.5874   0.2422  0.83656     C
O       0.5885  0.80873  0.42624     O
H       0.5906   0.8183   0.2213     H
H       0.5907   0.1254    0.413     H
C       0.5958   0.0365  0.10344     C
C       0.5965   0.2439  0.73267     C
C       0.5973   0.2657  0.31409     C
C       0.5993  0.24268  0.62834     C
O      0.59951   0.2617   0.4127     O
C       0.6007   0.9623  0.09577     C
C       0.6021   0.9536  0.39443     C
H       0.6038   0.0314   0.2962     H
C       0.6066   0.2685  0.21379     C
C       0.6108   0.0256  0.38128     C
C       0.6112    0.471  0.68003     C
H       0.6125   0.4195   0.6817     H
C       0.6127   0.4623  0.84092     C
H       0.6135   0.4109   0.8434     H
H       0.6167   0.1213   0.1573     H
H       0.6177   0.8566   0.2773     H
Co     0.61975  0.26413  0.49911    Co
H       0.6217    0.636     0.73     H
H       0.6217   0.9334   0.1248     H
H       0.6219   0.9193   0.3688     H
C       0.6221   0.6821    0.748     C
C       0.6244   0.0702  0.15918     C
O       0.6253   0.2531  0.88252     O
O       0.6258   0.2763  0.11582     O
H       0.6291   0.6015   0.6367     H
H        0.631    0.599   0.8756     H
C       0.6356   0.8487  0.23917     C
C       0.6358   0.2616  0.78387     C
H       0.6367   0.6762   0.7868     H
H       0.6385   0.8939     0.22     H
O       0.6391  0.26485  0.58489     O
C       0.6398   0.2832  0.36969     C
C       0.6415   0.4959  0.62175     C
C        0.643   0.2624  0.68345     C
C       0.6442   0.2839  0.26619     C
C       0.6449   0.0494  0.32457     C
C       0.6454   0.5684  0.60941     C
H        0.646   0.1009   0.3231     H
C       0.6473    0.494  0.89509     C
H       0.6523   0.4775   0.8109     H
H       0.6529   0.4902   0.7075     H
C       0.6538   0.5682   0.9029     C
C        0.658   0.2888   0.1621     C
H       0.6611   0.3983   0.5885     H
C       0.6649   0.4472  0.58084     C
H       0.6681   0.7122   0.7307     H
H       0.6724   0.3994   0.9332     H
C       0.6734  0.59308  0.55683     C
O       0.6736  0.71686  0.92299     O
O       0.6763  0.71316  0.58592     O
C       0.6764   0.4488  0.93771     C
C       0.6783   0.6724   0.5441     C
Co     0.68467  0.82464  0.92887    Co
O      0.68547  0.69263  0.49488     O
H       0.6884   0.0592   0.1667     H
C       0.6935   0.5964  0.95049     C
C       0.6944  0.46997  0.52754     C
C        0.699  0.54342  0.51628     C
Co     0.69914  0.81764  0.59316    Co
H       0.7016   0.3068   0.2687     H
H       0.7065   0.0311   0.3184     H
C       0.7117   0.4771  0.98737     C
C       0.7117   0.6754  0.95657     C
O       0.7127  0.32133  0.36844     O
H       0.7192   0.5592   0.4815     H
O      0.72061  0.34993  0.49602     O
C       0.7213   0.5508  0.99388     C
C       0.7216   0.2954   0.7861     C
C        0.728   0.4172   0.4865     C
C       0.7281   0.2954  0.68599     C
C       0.7306   0.8129   0.2375     C
O       0.7312  0.93719  0.94311     O
O       0.7327  0.19467  0.49439     O
H       0.7346   0.8338   0.7008     H
O       0.7385  0.95555  0.58116     O
O       0.7396  0.31691  0.16772     O
H       0.7408   0.8064    0.153     H
C       0.7436     0.43  0.03434     C
H       0.7459   0.5697   0.0266     H
H       0.7476   0.3066   0.8206     H
O       0.7478  0.86285  0.52421     O
O       0.7522  0.36285  0.02421     O
H       0.7524   0.8066   0.3206     H
H       0.7541   0.0697   0.5266     H
C       0.7564     0.93  0.53434     C
H       0.7592   0.3064    0.653     H
O       0.7604  0.81691  0.66772     O
O       0.7615  0.45555  0.08116     O
H       0.7654   0.3338   0.2008     H
O       0.7673  0.69467  0.99439     O
O       0.7688  0.43719  0.44311     O
C       0.7694   0.3129   0.7375     C
C       0.7719   0.7954  0.18599     C
C        0.772   0.9172   0.9865     C
C       0.7784   0.7954   0.2861     C
C       0.7787   0.0508  0.49388     C
O      0.77939  0.84993  0.99602     O
H       0.7808   0.0592   0.9815     H
O       0.7873  0.82133  0.86844     O
C       0.7883   0.1754  0.45657     C
C       0.7883   0.9771  0.48737     C
H       0.7935   0.5311   0.8184     H
H       0.7984   0.8068   0.7687     H
Co     0.80086  0.31764  0.09316    Co
C        0.801  0.04342  0.01628     C
C       0.8056  0.96997  0.02754     C
C       0.8065   0.0964  0.45049     C
H       0.8116   0.5592   0.6667     H
O      0.81453  0.19263  0.99488     O
Co     0.81533  0.32464  0.42887    Co
C       0.8217   0.1724   0.0441     C
C       0.8236   0.9488  0.43771     C
O       0.8237  0.21316  0.08592     O
O       0.8264  0.21686  0.42299     O
C       0.8266  0.09308  0.05683     C
H       0.8276   0.8994   0.4332     H
H       0.8319   0.2122   0.2307     H
C       0.8351   0.9472  0.08084     C
H       0.8389   0.8983   0.0885     H
C        0.842   0.7888   0.6621     C
C       0.8462   0.0682   0.4029     C
H       0.8471   0.9902   0.2075     H
H       0.8477   0.9775   0.3109     H
C       0.8527    0.994  0.39509     C
H        0.854   0.6009   0.8231     H
C       0.8546   0.0684  0.10941     C
C       0.8551   0.5494  0.82457     C
C       0.8558   0.7839  0.76619     C
C        0.857   0.7624  0.18345     C
C       0.8585   0.9959  0.12175     C
C       0.8602   0.7832  0.86969     C
O       0.8609  0.76485  0.08489     O
H       0.8615   0.3939     0.72     H
H       0.8633   0.1762   0.2868     H
C       0.8642   0.7616  0.28387     C
C       0.8644   0.3487  0.73917     C
H        0.869    0.099   0.3756     H
H       0.8709   0.1015   0.1367     H
O       0.8742   0.7763  0.61582     O
O       0.8747   0.7531  0.38252     O
C       0.8756   0.5702  0.65918     C
C       0.8779   0.1821    0.248     C
H       0.8781   0.4193   0.8688     H
H       0.8783    0.136     0.23     H
H       0.8783   0.4334   0.6248     H
Co     0.88025  0.76413  0.99911    Co
H       0.8823   0.3566   0.7773     H
H       0.8833   0.6213   0.6573     H
H       0.8865   0.9109   0.3434     H
C       0.8873   0.9623  0.34092     C
H       0.8875   0.9195   0.1817     H
C       0.8888    0.971  0.18003     C
C       0.8892   0.5256  0.88128     C
C       0.8934   0.7685  0.71379     C
H       0.8962   0.5314   0.7962     H
C       0.8979   0.4536  0.89443     C
C       0.8993   0.4623  0.59577     C
O      0.90049   0.7617   0.9127     O
C       0.9007  0.74268  0.12834     C
C       0.9027   0.7657  0.81409     C
C       0.9035   0.7439  0.23267     C
C       0.9042   0.5365  0.60344     C
H       0.9093   0.6254    0.913     H
H       0.9094   0.3183   0.7213     H
O       0.9115  0.30873  0.92624     O
C       0.9126   0.7422  0.33656     C
H       0.9139   0.5512   0.6885     H
C       0.9158   0.5768  0.92093     C
C       0.9229    0.352  0.53852     C
Co     0.92317  0.20095  0.93164    Co
O      0.92477  0.32456  0.49039     O
O       0.9251  0.31495  0.58257     O
C       0.9254   0.4311  0.54535     C
C       0.9357   0.4313  0.94551     C
C       0.9361   0.5786  0.55998     C
H       0.9415   0.6279   0.5648     H
Co     0.94303  0.21078  0.59399    Co
H       0.9497   0.9784    0.334     H
H       0.9508   0.9876   0.1874     H
C       0.9521  0.55507   0.9724     C
C        0.953   0.3532   0.9569     C
C        0.954   0.4746  0.50194     C
H       0.9603   0.7201   0.2312     H
C       0.9607   0.5475  0.50823     C
C       0.9634  0.48282  0.98452     C
H        0.969   0.4539   0.4678     H
O      0.96962  0.09085  0.94439     O
C        0.972   0.2164  0.24222     C
O      0.97582  0.70742  0.13055     O
O      0.97844  0.67662  0.00158     O
H       0.9787   0.2169   0.1583     H
C       0.9798   0.7346  0.71061     C
H       0.9803   0.1967   0.7005     H
C       0.9865  0.61016  0.01274     C
O       0.9888   0.0685  0.58462     O
H       0.9892   0.4687   0.0184     H
C       0.9896   0.7306  0.80954     C
O      0.99026  0.83743  0.00531     O
O       0.9917  0.16065  0.52742     O
O       0.9939  0.71367  0.33256     O
H       0.9949   0.2242   0.3242     H
C       0.9959   0.5943  0.46214     C
