data_I
_chemical_name_common  '/home/zhangsd/repos/MofS-CGCNN/ML/data/SSD/clean_cifs/HIZQEN01_clean'
_cell_length_a  7.44070
_cell_length_b  9.76600
_cell_length_c  9.85000
_cell_angle_alpha 118.29700
_cell_angle_beta  102.24700
_cell_angle_gamma 91.43400
_space_group_name_H-M_alt      'P 1'


loop_
_space_group_symop_operation_xyz
  'x, y, z' 

loop_
_atom_site_label
_atom_site_fract_x
_atom_site_fract_y
_atom_site_fract_z
_atom_site_type_symbol
O       0.0225    0.106   0.6731     O
C       0.0543    0.374   0.8782     C
C        0.115   0.2426   0.7463     C
C       0.1347   0.6171    0.128     C
C       0.1873   0.4915   0.0073     C
H       0.2245   0.6955   0.2132     H
O       0.2605   0.2721   0.7135     O
Cd      0.2621  0.02672  0.51603    Cd
O       0.2672     0.13   0.3282     O
H       0.3129   0.4855   0.0123     H
H       0.3269   0.1982   0.1185     H
C       0.3726   0.0325   0.2708     C
C       0.3967    0.119   0.0715     C
O       0.4294   0.9436   0.3297     O
H       0.4345   0.1753   0.9062     H
C       0.4369   0.0154   0.1298     C
C       0.4603   0.1047   0.9435     C
C       0.5397   0.8953   0.0565     C
C       0.5631   0.9846   0.8702     C
H       0.5655   0.8247   0.0938     H
O       0.5706   0.0564   0.6703     O
C       0.6033    0.881   0.9285     C
C       0.6274   0.9675   0.7292     C
H       0.6731   0.8018   0.8815     H
H       0.6871   0.5145   0.9877     H
O       0.7328     0.87   0.6718     O
Cd      0.7379  0.97328  0.48397    Cd
O       0.7395   0.7279   0.2865     O
H       0.7755   0.3045   0.7868     H
C       0.8127   0.5085   0.9927     C
C       0.8653   0.3829    0.872     C
C        0.885   0.7574   0.2537     C
C       0.9457    0.626   0.1218     C
O       0.9775    0.894   0.3269     O
