data_I
_chemical_name_common  '/home/zhangsd/repos/MofS-CGCNN/ML/data/SSD/clean_cifs/HOKLIE_clean'
_cell_length_a 20.26440
_cell_length_b 19.12160
_cell_length_c 26.82480
_cell_angle_alpha 90.00000
_cell_angle_beta  101.18400
_cell_angle_gamma 90.00000
_space_group_name_H-M_alt      'P 1'


loop_
_space_group_symop_operation_xyz
  'x, y, z' 

loop_
_atom_site_label
_atom_site_fract_x
_atom_site_fract_y
_atom_site_fract_z
_atom_site_type_symbol
H          0.0   0.0769     0.75     H
C          0.0   0.1256     0.75     C
C          0.0   0.8744     0.25     C
H          0.0   0.9231     0.25     H
Zn     0.01337  0.01578   0.0551    Zn
Zn     0.01337  0.98422   0.5551    Zn
C       0.0136    0.363   0.1172     C
C       0.0136    0.637   0.6172     C
C       0.0178   0.2423   0.1115     C
C       0.0178   0.7577   0.6115     C
O       0.0312   0.0802   0.9471     O
O       0.0312   0.9198   0.4471     O
H       0.0322   0.4044   0.1318     H
H       0.0322   0.5956   0.6318     H
O       0.0372   0.0301     0.13     O
O       0.0372   0.9699     0.63     O
H       0.0378   0.1994   0.1213     H
H       0.0378   0.8006   0.6213     H
C       0.0412   0.2419   0.4259     C
C       0.0412   0.7581   0.9259     C
C       0.0455   0.3673   0.4197     C
C       0.0455   0.6327   0.9197     C
C       0.0471    0.299   0.1339     C
C       0.0471    0.701   0.6339     C
H       0.0475   0.2332   0.5284     H
H       0.0475   0.7668   0.0284     H
O       0.0549   0.1522     0.75     O
O       0.0549   0.8478     0.25     O
O       0.0566   0.1013   0.0307     O
O       0.0566   0.8987   0.5307     O
C       0.0567   0.1163    0.985     C
C       0.0567   0.8837    0.485     C
H       0.0587   0.2001   0.4405     H
H       0.0587   0.7999   0.9405     H
C         0.06   0.0187   0.6573     C
C         0.06   0.9813   0.1573     C
H       0.0642   0.1808   0.8989     H
H       0.0642   0.8192   0.3989     H
H       0.0645   0.0616   0.6419     H
H       0.0645   0.9384   0.1419     H
H       0.0656     0.41   0.4298     H
H       0.0656     0.59   0.9298     H
C       0.0726   0.3042   0.4406     C
C       0.0726   0.6958   0.9406     C
O       0.0777   0.0636   0.4612     O
O       0.0777   0.9364   0.9612     O
O       0.0782   0.0148   0.7055     O
O       0.0782   0.9852   0.2055     O
H       0.0791   0.1917    0.611     H
H       0.0791   0.8083    0.111     H
C       0.0883   0.2067   0.9257     C
C       0.0883   0.7933   0.4257     C
C       0.0902   0.2419   0.5474     C
C       0.0902   0.7581   0.0474     C
C       0.0905   0.1843   0.9764     C
C       0.0905   0.8157   0.4764     C
O       0.0993   0.0381   0.5443     O
O       0.0993   0.9619   0.0443     O
C       0.1093    0.218   0.5967     C
C       0.1093    0.782   0.0967     C
C       0.1094   0.2939   0.1746     C
C       0.1094   0.7061   0.6746     C
H       0.1096   0.4326   0.8944     H
H       0.1096   0.5674   0.3944     H
C       0.1137   0.0652    0.505     C
C       0.1137   0.9348    0.005     C
H       0.1201   0.2807   0.8827     H
H       0.1201   0.7193   0.3827     H
C       0.1214    0.266   0.9159     C
C       0.1214    0.734   0.4159     C
H       0.1224   0.4979    0.328     H
H       0.1224   0.5021    0.828     H
C       0.1252   0.2213   0.0158     C
C       0.1252   0.7787   0.5158     C
H       0.1256   0.2066   0.0489     H
H       0.1256   0.7934   0.5489     H
O       0.1302   0.3532   0.1845     O
O       0.1302   0.6468   0.6845     O
N       0.1321   0.3075   0.4794     N
N       0.1321   0.6925   0.9794     N
O       0.1358   0.2383   0.1888     O
O       0.1358   0.7617   0.6888     O
Zn     0.13651  0.09278  0.74283    Zn
Zn     0.13651  0.90722  0.24283    Zn
C       0.1376   0.2796   0.5275     C
C       0.1376   0.7204   0.0275     C
C       0.1518   0.4369   0.8859     C
C       0.1518   0.5631   0.3859     C
O       0.1522   0.1562   0.6885     O
O       0.1522   0.8438   0.1885     O
O       0.1563   0.0606   0.8177     O
O       0.1563   0.9394   0.3177     O
C       0.1572   0.3042    0.957     C
C       0.1572   0.6958    0.457     C
C       0.1593    0.478    0.846     C
C       0.1593    0.522    0.346     C
C       0.1609   0.2821   0.0072     C
C       0.1609   0.7179   0.5072     C
H       0.1709   0.1371   0.4388     H
H       0.1709   0.8629   0.9388     H
H       0.1738   0.0304     0.91     H
H       0.1738   0.9696     0.41     H
C       0.1739   0.2328    0.626     C
C       0.1739   0.7672    0.126     C
C       0.1804   0.0989   0.5109     C
C       0.1804   0.9011   0.0109     C
H       0.1808    0.378   0.4037     H
H       0.1808    0.622   0.9037     H
H       0.1836   0.0499   0.1499     H
H       0.1836   0.9501   0.6499     H
O       0.1909    0.421   0.2779     O
O       0.1909    0.579   0.7779     O
C       0.1918   0.2001   0.6774     C
C       0.1918   0.7999   0.1774     C
C       0.1928     0.34   0.4758     C
C       0.1928     0.66   0.9758     C
H       0.1964   0.1173   0.0821     H
H       0.1964   0.8827   0.5821     H
C       0.1976   0.1078   0.8345     C
C       0.1976   0.8922   0.3345     C
N       0.1985   0.3617   0.9568     N
N       0.1985   0.6383   0.4568     N
C       0.2002    0.134   0.4701     C
C       0.2002    0.866   0.9701     C
C       0.2015   0.2957   0.5562     C
C       0.2015   0.7043   0.0562     C
C       0.2042   0.0654    0.923     C
C       0.2042   0.9346    0.423     C
C        0.205   0.4022   0.9134     C
C        0.205   0.5978   0.4134     C
C       0.2057   0.3279   0.0393     C
C       0.2057   0.6721   0.5393     C
C       0.2106   0.3744   0.4346     C
C       0.2106   0.6256   0.9346     C
H       0.2112   0.0754   0.5858     H
H       0.2112   0.9246   0.0858     H
Zn     0.21277  0.34237  0.23616    Zn
Zn     0.21277  0.65763  0.73616    Zn
O        0.214   0.1536   0.8037     O
O        0.214   0.8464   0.3037     O
H       0.2156   0.0365   0.9965     H
H       0.2156   0.3032   0.1139     H
H       0.2156   0.6968   0.6139     H
H       0.2156   0.9635   0.4965     H
O       0.2171    0.026   0.7289     O
O       0.2171    0.974   0.2289     O
C       0.2194   0.2713   0.6058     C
C       0.2194   0.7287   0.1058     C
C       0.2207   0.4843    0.832     C
C       0.2207   0.5157    0.332     C
C        0.225   0.1135   0.8901     C
C        0.225   0.8865   0.3901     C
C       0.2251   0.0967   0.5584     C
C       0.2251   0.9033   0.0584     C
C       0.2255   0.0527   0.1406     C
C       0.2255   0.9473   0.6406     C
C       0.2282   0.3767   0.0065     C
C       0.2282   0.6233   0.5065     C
C       0.2283   0.0694   0.9747     C
C       0.2283   0.9306   0.4747     C
C       0.2299   0.3343   0.0915     C
C       0.2299   0.6657   0.5915     C
C        0.233    0.093   0.1004     C
C        0.233    0.907   0.6004     C
C       0.2335   0.4676   0.2905     C
C       0.2335   0.5324   0.7905     C
C       0.2361    0.336    0.523     C
C       0.2361    0.664    0.023     C
H       0.2383    0.219    0.375     H
H       0.2383    0.781    0.875     H
O       0.2472   0.2176   0.7062     O
O       0.2472   0.7824   0.2062     O
O       0.2528   0.2824   0.2938     O
O       0.2528   0.7176   0.7938     O
H       0.2617    0.281    0.625     H
H       0.2617    0.719    0.125     H
C       0.2639    0.164    0.477     C
C       0.2639    0.836    0.977     C
C       0.2665   0.0324   0.7095     C
C       0.2665   0.9676   0.2095     C
C        0.267    0.407   0.8996     C
C        0.267    0.593   0.3996     C
C       0.2701   0.1657   0.9085     C
C       0.2701   0.8343   0.4085     C
C       0.2717   0.4306   0.0253     C
C       0.2717   0.5694   0.5253     C
C       0.2718   0.1233   0.9935     C
C       0.2718   0.8767   0.4935     C
C       0.2745   0.4473   0.8594     C
C       0.2745   0.5527   0.3594     C
C       0.2749   0.4033   0.4416     C
C       0.2749   0.5967   0.9416     C
C        0.275   0.3865   0.1099     C
C        0.275   0.6135   0.6099     C
C       0.2793   0.0157    0.168     C
C       0.2793   0.9843    0.668     C
C       0.2806   0.2287   0.3942     C
C       0.2806   0.7713   0.8942     C
O       0.2829    0.474   0.2711     O
O       0.2829    0.526   0.7711     O
H       0.2844   0.1968   0.8861     H
H       0.2844   0.4635   0.0035     H
H       0.2844   0.5365   0.5035     H
H       0.2844   0.8032   0.3861     H
O        0.286   0.3464   0.1963     O
O        0.286   0.6536   0.6963     O
Zn     0.28723  0.15763  0.76384    Zn
Zn     0.28723  0.84237  0.26384    Zn
H       0.2888   0.4246   0.4142     H
H       0.2888   0.5754   0.9142     H
C       0.2894   0.1256   0.5654     C
C       0.2894   0.8744   0.0654     C
C       0.2943   0.1721   0.9607     C
C       0.2943   0.8279   0.4607     C
C        0.295   0.0978   0.0866     C
C        0.295   0.9022   0.5866     C
C       0.2958   0.4346    0.077     C
C       0.2958   0.5654    0.577     C
C       0.2985   0.2043   0.4438     C
C       0.2985   0.7957   0.9438     C
C       0.2998    0.366   0.5299     C
C       0.2998    0.634   0.0299     C
N       0.3015   0.1383   0.0432     N
N       0.3015   0.8617   0.5432     N
C       0.3024   0.3922   0.1655     C
C       0.3024   0.6078   0.6655     C
H       0.3036   0.3827   0.9179     H
H       0.3036   0.6173   0.4179     H
C       0.3072     0.16   0.5242     C
C       0.3072     0.84   0.0242     C
C       0.3082   0.2999   0.3226     C
C       0.3082   0.7001   0.8226     C
O       0.3091    0.079   0.7221     O
O       0.3091    0.921   0.2221     O
H       0.3164   0.4501   0.8501     H
H       0.3164   0.5499   0.3501     H
H       0.3192    0.122   0.5963     H
H       0.3192    0.878   0.0963     H
C       0.3196   0.4011   0.4891     C
C       0.3196   0.5989   0.9891     C
C       0.3261   0.2672    0.374     C
C       0.3261   0.7328    0.874     C
H       0.3262   0.4696     0.09     H
H       0.3262   0.5304     0.59     H
H       0.3291   0.3629   0.5612     H
H       0.3291   0.6371   0.0612     H
C       0.3391   0.2179   0.9928     C
C       0.3391   0.7821   0.4928     C
C       0.3407    0.022    0.154     C
C       0.3407    0.978    0.654     C
C       0.3428   0.1958    0.043     C
C       0.3428   0.8042    0.543     C
O       0.3437   0.4394   0.1823     O
O       0.3437   0.5606   0.6823     O
O       0.3478   0.3438   0.3115     O
O       0.3478   0.6562   0.8115     O
C       0.3482   0.0631   0.1141     C
C       0.3482   0.9369   0.6141     C
C       0.3624   0.2204   0.4725     C
C       0.3624   0.7796   0.9725     C
Zn     0.36349  0.40722  0.25717    Zn
Zn     0.36349  0.59278  0.75717    Zn
O       0.3642   0.2617   0.8112     O
O       0.3642   0.7383   0.3112     O
N       0.3679   0.1925   0.5206     N
N       0.3679   0.8075   0.0206     N
O       0.3698   0.1468   0.8155     O
O       0.3698   0.8532   0.3155     O
H       0.3744   0.2934   0.9511     H
H       0.3744   0.7066   0.4511     H
C       0.3748   0.2787   0.9842     C
C       0.3748   0.7213   0.4842     C
H       0.3776   0.0021    0.672     H
H       0.3776   0.9979    0.172     H
C       0.3786    0.234   0.0841     C
C       0.3786    0.766   0.5841     C
H       0.3799   0.2193   0.1173     H
H       0.3799   0.7807   0.6173     H
C       0.3863   0.4348    0.495     C
C       0.3863   0.5652    0.995     C
H       0.3904   0.0674   0.1056     H
H       0.3904   0.9326   0.6056     H
C       0.3906   0.2061   0.8254     C
C       0.3906   0.7939   0.3254     C
C       0.3907    0.282   0.4033     C
C       0.3907    0.718   0.9033     C
O       0.4007   0.4619   0.4557     O
O       0.4007   0.5381   0.9557     O
C       0.4095   0.3157   0.0236     C
C       0.4095   0.6843   0.5236     C
C       0.4098   0.2581   0.4526     C
C       0.4098   0.7419   0.9526     C
C       0.4117   0.2933   0.0743     C
C       0.4117   0.7067   0.5743     C
H       0.4209   0.3083    0.389     H
H       0.4209   0.6917    0.889     H
O       0.4218   0.4852   0.2945     O
O       0.4218   0.5148   0.7945     O
O       0.4223   0.4364   0.5388     O
O       0.4223   0.5636   0.0388     O
C       0.4274   0.1958   0.5594     C
C       0.4274   0.8042   0.0594     C
H       0.4344     0.09   0.5702     H
H       0.4344     0.91   0.0702     H
H       0.4355   0.4384   0.3581     H
H       0.4355   0.5616   0.8581     H
H       0.4358   0.3192   0.1011     H
H       0.4358   0.6808   0.6011     H
C         0.44   0.4813   0.3427     C
C         0.44   0.5187   0.8427     C
H       0.4413   0.2999   0.5595     H
H       0.4413   0.7001   0.0595     H
C       0.4433   0.3837    0.015     C
C       0.4433   0.6163    0.515     C
O       0.4434   0.3987   0.9693     O
O       0.4434   0.6013   0.4693     O
O       0.4451   0.3478     0.25     O
O       0.4451   0.6522     0.75     O
H       0.4525   0.2668   0.4716     H
H       0.4525   0.7332   0.9716     H
C       0.4529    0.201   0.8661     C
C       0.4529    0.799   0.3661     C
C       0.4545   0.1327   0.5803     C
C       0.4545   0.8673   0.0803     C
C       0.4588   0.2581   0.5741     C
C       0.4588   0.7419   0.0741     C
H       0.4622   0.3006   0.8787     H
H       0.4622   0.6994   0.3787     H
O       0.4628   0.4699     0.87     O
O       0.4628   0.5301     0.37     O
H       0.4678   0.0956   0.8682     H
H       0.4678   0.9044   0.3682     H
O       0.4688   0.4198   0.0529     O
O       0.4688   0.5802   0.5529     O
C       0.4822   0.2577   0.8885     C
C       0.4822   0.7423   0.3885     C
C       0.4864    0.137   0.8828     C
C       0.4864    0.863   0.3828     C
Zn     0.48663  0.48422   0.9449    Zn
Zn     0.48663  0.51578   0.4449    Zn
C          0.5   0.3744     0.25     C
H          0.5   0.4231     0.25     H
H          0.5   0.5769     0.75     H
C          0.5   0.6256     0.75     C
Zn     0.51337  0.48422   0.5551    Zn
Zn     0.51337  0.51578   0.0551    Zn
C       0.5136    0.137   0.6172     C
C       0.5136    0.863   0.1172     C
C       0.5178   0.2577   0.6115     C
C       0.5178   0.7423   0.1115     C
O       0.5312   0.4198   0.4471     O
O       0.5312   0.5802   0.9471     O
H       0.5322   0.0956   0.6318     H
H       0.5322   0.9044   0.1318     H
O       0.5372   0.4699     0.63     O
O       0.5372   0.5301     0.13     O
H       0.5378   0.3006   0.6213     H
H       0.5378   0.6994   0.1213     H
C       0.5412   0.2581   0.9259     C
C       0.5412   0.7419   0.4259     C
C       0.5455   0.1327   0.9197     C
C       0.5455   0.8673   0.4197     C
C       0.5471    0.201   0.6339     C
C       0.5471    0.799   0.1339     C
H       0.5475   0.2668   0.0284     H
H       0.5475   0.7332   0.5284     H
O       0.5549   0.3478     0.25     O
O       0.5549   0.6522     0.75     O
O       0.5566   0.3987   0.5307     O
O       0.5566   0.6013   0.0307     O
C       0.5567   0.3837    0.485     C
C       0.5567   0.6163    0.985     C
H       0.5587   0.2999   0.9405     H
H       0.5587   0.7001   0.4405     H
C         0.56   0.4813   0.1573     C
C         0.56   0.5187   0.6573     C
H       0.5642   0.3192   0.3989     H
H       0.5642   0.6808   0.8989     H
H       0.5645   0.4384   0.1419     H
H       0.5645   0.5616   0.6419     H
H       0.5656     0.09   0.9298     H
H       0.5656     0.91   0.4298     H
C       0.5726   0.1958   0.9406     C
C       0.5726   0.8042   0.4406     C
O       0.5777   0.4364   0.9612     O
O       0.5777   0.5636   0.4612     O
O       0.5782   0.4852   0.2055     O
O       0.5782   0.5148   0.7055     O
H       0.5791   0.3083    0.111     H
H       0.5791   0.6917    0.611     H
C       0.5883   0.2933   0.4257     C
C       0.5883   0.7067   0.9257     C
C       0.5902   0.2581   0.0474     C
C       0.5902   0.7419   0.5474     C
C       0.5905   0.3157   0.4764     C
C       0.5905   0.6843   0.9764     C
O       0.5993   0.4619   0.0443     O
O       0.5993   0.5381   0.5443     O
C       0.6093    0.282   0.0967     C
C       0.6093    0.718   0.5967     C
C       0.6094   0.2061   0.6746     C
C       0.6094   0.7939   0.1746     C
H       0.6096   0.0674   0.3944     H
H       0.6096   0.9326   0.8944     H
C       0.6137   0.4348    0.005     C
C       0.6137   0.5652    0.505     C
H       0.6201   0.2193   0.3827     H
H       0.6201   0.7807   0.8827     H
C       0.6214    0.234   0.4159     C
C       0.6214    0.766   0.9159     C
H       0.6224   0.0021    0.828     H
H       0.6224   0.9979    0.328     H
C       0.6252   0.2787   0.5158     C
C       0.6252   0.7213   0.0158     C
H       0.6256   0.2934   0.5489     H
H       0.6256   0.7066   0.0489     H
O       0.6302   0.1468   0.6845     O
O       0.6302   0.8532   0.1845     O
N       0.6321   0.1925   0.9794     N
N       0.6321   0.8075   0.4794     N
O       0.6358   0.2617   0.6888     O
O       0.6358   0.7383   0.1888     O
Zn     0.63651  0.40722  0.24283    Zn
Zn     0.63651  0.59278  0.74283    Zn
C       0.6376   0.2204   0.0275     C
C       0.6376   0.7796   0.5275     C
C       0.6518   0.0631   0.3859     C
C       0.6518   0.9369   0.8859     C
O       0.6522   0.3438   0.1885     O
O       0.6522   0.6562   0.6885     O
O       0.6563   0.4394   0.3177     O
O       0.6563   0.5606   0.8177     O
C       0.6572   0.1958    0.457     C
C       0.6572   0.8042    0.957     C
C       0.6593    0.022    0.346     C
C       0.6593    0.978    0.846     C
C       0.6609   0.2179   0.5072     C
C       0.6609   0.7821   0.0072     C
H       0.6709   0.3629   0.9388     H
H       0.6709   0.6371   0.4388     H
H       0.6738   0.4696     0.41     H
H       0.6738   0.5304     0.91     H
C       0.6739   0.2672    0.126     C
C       0.6739   0.7328    0.626     C
C       0.6804   0.4011   0.0109     C
C       0.6804   0.5989   0.5109     C
H       0.6808    0.122   0.9037     H
H       0.6808    0.878   0.4037     H
H       0.6836   0.4501   0.6499     H
H       0.6836   0.5499   0.1499     H
O       0.6909    0.079   0.7779     O
O       0.6909    0.921   0.2779     O
C       0.6918   0.2999   0.1774     C
C       0.6918   0.7001   0.6774     C
C       0.6928     0.16   0.9758     C
C       0.6928     0.84   0.4758     C
H       0.6964   0.3827   0.5821     H
H       0.6964   0.6173   0.0821     H
C       0.6976   0.3922   0.3345     C
C       0.6976   0.6078   0.8345     C
N       0.6985   0.1383   0.4568     N
N       0.6985   0.8617   0.9568     N
C       0.7002    0.366   0.9701     C
C       0.7002    0.634   0.4701     C
C       0.7015   0.2043   0.0562     C
C       0.7015   0.7957   0.5562     C
C       0.7042   0.4346    0.423     C
C       0.7042   0.5654    0.923     C
C        0.705   0.0978   0.4134     C
C        0.705   0.9022   0.9134     C
C       0.7057   0.1721   0.5393     C
C       0.7057   0.8279   0.0393     C
C       0.7106   0.1256   0.9346     C
C       0.7106   0.8744   0.4346     C
H       0.7112   0.4246   0.0858     H
H       0.7112   0.5754   0.5858     H
Zn     0.71277  0.15763  0.73616    Zn
Zn     0.71277  0.84237  0.23616    Zn
O        0.714   0.3464   0.3037     O
O        0.714   0.6536   0.8037     O
H       0.7156   0.1968   0.6139     H
H       0.7156   0.4635   0.4965     H
H       0.7156   0.5365   0.9965     H
H       0.7156   0.8032   0.1139     H
O       0.7171    0.474   0.2289     O
O       0.7171    0.526   0.7289     O
C       0.7194   0.2287   0.1058     C
C       0.7194   0.7713   0.6058     C
C       0.7207   0.0157    0.332     C
C       0.7207   0.9843    0.832     C
C        0.725   0.3865   0.3901     C
C        0.725   0.6135   0.8901     C
C       0.7251   0.4033   0.0584     C
C       0.7251   0.5967   0.5584     C
C       0.7255   0.4473   0.6406     C
C       0.7255   0.5527   0.1406     C
C       0.7282   0.1233   0.5065     C
C       0.7282   0.8767   0.0065     C
C       0.7283   0.4306   0.4747     C
C       0.7283   0.5694   0.9747     C
C       0.7299   0.1657   0.5915     C
C       0.7299   0.8343   0.0915     C
C        0.733    0.407   0.6004     C
C        0.733    0.593   0.1004     C
C       0.7335   0.0324   0.7905     C
C       0.7335   0.9676   0.2905     C
C       0.7361    0.164    0.023     C
C       0.7361    0.836    0.523     C
H       0.7383    0.281    0.875     H
H       0.7383    0.719    0.375     H
O       0.7472   0.2824   0.2062     O
O       0.7472   0.7176   0.7062     O
O       0.7528   0.2176   0.7938     O
O       0.7528   0.7824   0.2938     O
H       0.7617    0.219    0.125     H
H       0.7617    0.781    0.625     H
C       0.7639    0.336    0.977     C
C       0.7639    0.664    0.477     C
C       0.7665   0.4676   0.2095     C
C       0.7665   0.5324   0.7095     C
C        0.767    0.093   0.3996     C
C        0.767    0.907   0.8996     C
C       0.7701   0.3343   0.4085     C
C       0.7701   0.6657   0.9085     C
C       0.7717   0.0694   0.5253     C
C       0.7717   0.9306   0.0253     C
C       0.7718   0.3767   0.4935     C
C       0.7718   0.6233   0.9935     C
C       0.7745   0.0527   0.3594     C
C       0.7745   0.9473   0.8594     C
C       0.7749   0.0967   0.9416     C
C       0.7749   0.9033   0.4416     C
C        0.775   0.1135   0.6099     C
C        0.775   0.8865   0.1099     C
C       0.7793   0.4843    0.668     C
C       0.7793   0.5157    0.168     C
C       0.7806   0.2713   0.8942     C
C       0.7806   0.7287   0.3942     C
O       0.7829    0.026   0.7711     O
O       0.7829    0.974   0.2711     O
H       0.7844   0.0365   0.5035     H
H       0.7844   0.3032   0.3861     H
H       0.7844   0.6968   0.8861     H
H       0.7844   0.9635   0.0035     H
O        0.786   0.1536   0.6963     O
O        0.786   0.8464   0.1963     O
Zn     0.78723  0.34237  0.26384    Zn
Zn     0.78723  0.65763  0.76384    Zn
H       0.7888   0.0754   0.9142     H
H       0.7888   0.9246   0.4142     H
C       0.7894   0.3744   0.0654     C
C       0.7894   0.6256   0.5654     C
C       0.7943   0.3279   0.4607     C
C       0.7943   0.6721   0.9607     C
C        0.795   0.4022   0.5866     C
C        0.795   0.5978   0.0866     C
C       0.7958   0.0654    0.577     C
C       0.7958   0.9346    0.077     C
C       0.7985   0.2957   0.9438     C
C       0.7985   0.7043   0.4438     C
C       0.7998    0.134   0.0299     C
C       0.7998    0.866   0.5299     C
N       0.8015   0.3617   0.5432     N
N       0.8015   0.6383   0.0432     N
C       0.8024   0.1078   0.6655     C
C       0.8024   0.8922   0.1655     C
H       0.8036   0.1173   0.4179     H
H       0.8036   0.8827   0.9179     H
C       0.8072     0.34   0.0242     C
C       0.8072     0.66   0.5242     C
C       0.8082   0.2001   0.8226     C
C       0.8082   0.7999   0.3226     C
O       0.8091    0.421   0.2221     O
O       0.8091    0.579   0.7221     O
H       0.8164   0.0499   0.3501     H
H       0.8164   0.9501   0.8501     H
H       0.8192    0.378   0.0963     H
H       0.8192    0.622   0.5963     H
C       0.8196   0.0989   0.9891     C
C       0.8196   0.9011   0.4891     C
C       0.8261   0.2328    0.874     C
C       0.8261   0.7672    0.374     C
H       0.8262   0.0304     0.59     H
H       0.8262   0.9696     0.09     H
H       0.8291   0.1371   0.0612     H
H       0.8291   0.8629   0.5612     H
C       0.8391   0.2821   0.4928     C
C       0.8391   0.7179   0.9928     C
C       0.8407    0.478    0.654     C
C       0.8407    0.522    0.154     C
C       0.8428   0.3042    0.543     C
C       0.8428   0.6958    0.043     C
O       0.8437   0.0606   0.6823     O
O       0.8437   0.9394   0.1823     O
O       0.8478   0.1562   0.8115     O
O       0.8478   0.8438   0.3115     O
C       0.8482   0.4369   0.6141     C
C       0.8482   0.5631   0.1141     C
C       0.8624   0.2796   0.9725     C
C       0.8624   0.7204   0.4725     C
Zn     0.86349  0.09278  0.75717    Zn
Zn     0.86349  0.90722  0.25717    Zn
O       0.8642   0.2383   0.3112     O
O       0.8642   0.7617   0.8112     O
N       0.8679   0.3075   0.0206     N
N       0.8679   0.6925   0.5206     N
O       0.8698   0.3532   0.3155     O
O       0.8698   0.6468   0.8155     O
H       0.8744   0.2066   0.4511     H
H       0.8744   0.7934   0.9511     H
C       0.8748   0.2213   0.4842     C
C       0.8748   0.7787   0.9842     C
H       0.8776   0.4979    0.172     H
H       0.8776   0.5021    0.672     H
C       0.8786    0.266   0.5841     C
C       0.8786    0.734   0.0841     C
H       0.8799   0.2807   0.6173     H
H       0.8799   0.7193   0.1173     H
C       0.8863   0.0652    0.995     C
C       0.8863   0.9348    0.495     C
H       0.8904   0.4326   0.6056     H
H       0.8904   0.5674   0.1056     H
C       0.8906   0.2939   0.3254     C
C       0.8906   0.7061   0.8254     C
C       0.8907    0.218   0.9033     C
C       0.8907    0.782   0.4033     C
O       0.9007   0.0381   0.9557     O
O       0.9007   0.9619   0.4557     O
C       0.9095   0.1843   0.5236     C
C       0.9095   0.8157   0.0236     C
C       0.9098   0.2419   0.9526     C
C       0.9098   0.7581   0.4526     C
C       0.9117   0.2067   0.5743     C
C       0.9117   0.7933   0.0743     C
H       0.9209   0.1917    0.889     H
H       0.9209   0.8083    0.389     H
O       0.9218   0.0148   0.7945     O
O       0.9218   0.9852   0.2945     O
O       0.9223   0.0636   0.0388     O
O       0.9223   0.9364   0.5388     O
C       0.9274   0.3042   0.0594     C
C       0.9274   0.6958   0.5594     C
H       0.9344     0.41   0.0702     H
H       0.9344     0.59   0.5702     H
H       0.9355   0.0616   0.8581     H
H       0.9355   0.9384   0.3581     H
H       0.9358   0.1808   0.6011     H
H       0.9358   0.8192   0.1011     H
C         0.94   0.0187   0.8427     C
C         0.94   0.9813   0.3427     C
H       0.9413   0.2001   0.0595     H
H       0.9413   0.7999   0.5595     H
C       0.9433   0.1163    0.515     C
C       0.9433   0.8837    0.015     C
O       0.9434   0.1013   0.4693     O
O       0.9434   0.8987   0.9693     O
O       0.9451   0.1522     0.75     O
O       0.9451   0.8478     0.25     O
H       0.9525   0.2332   0.9716     H
H       0.9525   0.7668   0.4716     H
C       0.9529    0.299   0.3661     C
C       0.9529    0.701   0.8661     C
C       0.9545   0.3673   0.0803     C
C       0.9545   0.6327   0.5803     C
C       0.9588   0.2419   0.0741     C
C       0.9588   0.7581   0.5741     C
H       0.9622   0.1994   0.3787     H
H       0.9622   0.8006   0.8787     H
O       0.9628   0.0301     0.37     O
O       0.9628   0.9699     0.87     O
H       0.9678   0.4044   0.3682     H
H       0.9678   0.5956   0.8682     H
O       0.9688   0.0802   0.5529     O
O       0.9688   0.9198   0.0529     O
C       0.9822   0.2423   0.3885     C
C       0.9822   0.7577   0.8885     C
C       0.9864    0.363   0.3828     C
C       0.9864    0.637   0.8828     C
Zn     0.98663  0.01578   0.4449    Zn
Zn     0.98663  0.98422   0.9449    Zn
