data_I
_chemical_name_common  '/home/zhangsd/repos/MofS-CGCNN/ML/data/SSD/clean_cifs/HOLQIK_clean'
_cell_length_a 25.38400
_cell_length_b 25.38400
_cell_length_c 25.38400
_cell_angle_alpha 90.00000
_cell_angle_beta  90.00000
_cell_angle_gamma 90.00000
_space_group_name_H-M_alt      'P 1'


loop_
_space_group_symop_operation_xyz
  'x, y, z' 

loop_
_atom_site_label
_atom_site_fract_x
_atom_site_fract_y
_atom_site_fract_z
_atom_site_type_symbol
C       0.0032    0.249   0.7722     C
C       0.0032    0.251   0.2722     C
H       0.0049   0.1618    0.171     H
H       0.0049   0.3382    0.671     H
C         0.01   0.6836   0.3036     C
C         0.01   0.8164   0.8036     C
H       0.0175   0.1554   0.9148     H
H       0.0175   0.3446   0.4148     H
C        0.018    0.657   0.5922     C
C        0.018    0.843   0.0922     C
C       0.0212   0.2204   0.2287     C
C       0.0212   0.2796   0.7287     C
H        0.025   0.2292    0.794     H
H        0.025   0.2708    0.294     H
H       0.0258   0.5898   0.6382     H
H       0.0258   0.9102   0.1382     H
C       0.0406    0.619    0.621     C
C       0.0406    0.881    0.121     C
C        0.047    0.699   0.5725     C
C        0.047    0.801   0.0725     C
H       0.0519   0.1116   0.7531     H
H       0.0519   0.3884   0.2531     H
C       0.0546   0.7473    0.222     C
C       0.0546   0.7527    0.722     C
O       0.0563   0.6676    0.412     O
O       0.0563   0.8324    0.912     O
C       0.0634   0.6846   0.2927     C
C       0.0634   0.8154   0.7927     C
C       0.0683   0.0968   0.7823     C
C       0.0683   0.4032   0.2823     C
H       0.0715   0.7319   0.6969     H
H       0.0715   0.7681   0.1969     H
C       0.0725    0.047    0.801     C
C       0.0725    0.453    0.301     C
C       0.0806   0.2219   0.2227     C
C       0.0806   0.2781   0.7227     C
C       0.0845    0.713   0.2536     C
C       0.0845    0.787   0.7536     C
H       0.0852   0.5175   0.3446     H
H       0.0852   0.9825   0.8446     H
O        0.088   0.5563   0.6676     O
O        0.088   0.9437   0.1676     O
H       0.0898   0.6382   0.4742     H
H       0.0898   0.8618   0.9742     H
C       0.0922    0.018    0.843     C
C       0.0922    0.482    0.343     C
C       0.0922   0.6353   0.6181     C
C       0.0922   0.8647   0.1181     C
N       0.0935   0.6583   0.3321     N
N       0.0935   0.8417   0.8321     N
C       0.0967   0.6471    0.384     C
C       0.0967   0.8529    0.884     C
C       0.0968   0.7177   0.5683     C
C       0.0968   0.7823   0.0683     C
C       0.0975   0.1172   0.8234     C
C       0.0975   0.3828   0.3234     C
O        0.098   0.1831   0.1889     O
O        0.098   0.3169   0.6889     O
O       0.1032   0.2338   0.7451     O
O       0.1032   0.2662   0.2451     O
H       0.1036   0.1533   0.8221     H
H       0.1036   0.3467   0.3221     H
H       0.1116   0.7469   0.5519     H
H       0.1116   0.7531   0.0519     H
C        0.116   0.5967   0.6471     C
C        0.116   0.9033   0.1471     C
C       0.1172   0.6766   0.5975     C
C       0.1172   0.8234   0.0975     C
C       0.1181   0.0922   0.8647     C
C       0.1181   0.4078   0.3647     C
C        0.119    0.621   0.4594     C
C        0.119    0.879   0.9594     C
H       0.1201   0.6439   0.3168     H
H       0.1201   0.8561   0.8168     H
C        0.121   0.0406    0.881     C
C        0.121   0.4594    0.381     C
C       0.1353   0.6181   0.4078     C
C       0.1353   0.8819   0.9078     C
H       0.1382   0.0258   0.9102     H
H       0.1382   0.4742   0.4102     H
H       0.1439   0.1832   0.8799     H
H       0.1439   0.3168   0.3799     H
C        0.144   0.7118   0.2391     C
C        0.144   0.7882   0.7391     C
C       0.1471    0.116   0.9033     C
C       0.1471    0.384   0.4033     C
H       0.1533   0.6779   0.6036     H
H       0.1533   0.8221   0.1036     H
H       0.1554   0.5852   0.5175     H
H       0.1554   0.9148   0.0175     H
O        0.156   0.7368   0.1979     O
O        0.156   0.7632   0.6979     O
C        0.157   0.5922    0.482     C
C        0.157   0.9078    0.982     C
N       0.1583   0.1679   0.9065     N
N       0.1583   0.3321   0.4065     N
H       0.1618    0.171   0.0049     H
H       0.1618    0.329   0.5049     H
O       0.1676    0.088   0.9437     O
O       0.1676    0.412   0.4437     O
N       0.1679   0.5935   0.6583     N
N       0.1679   0.9065   0.1583     N
H        0.171   0.0049   0.1618     H
H        0.171   0.4951   0.6618     H
O       0.1723   0.6878   0.2702     O
O       0.1723   0.8122   0.7702     O
Zn     0.17336  0.17336  0.17336    Zn
Zn     0.17336  0.32664  0.67336    Zn
Zn     0.17647  0.22783  0.75066    Zn
Zn     0.17647  0.27217  0.25066    Zn
C       0.1766   0.5975   0.3828     C
C       0.1766   0.9025   0.8828     C
H       0.1779   0.6036   0.3467     H
H       0.1779   0.8964   0.8467     H
O       0.1831   0.1889    0.098     O
O       0.1831   0.3111    0.598     O
H       0.1832   0.6201   0.6439     H
H       0.1832   0.8799   0.1439     H
C       0.1836   0.1964     0.99     C
C       0.1836   0.3036     0.49     C
C       0.1846   0.2073   0.9366     C
C       0.1846   0.2927   0.4366     C
O       0.1878   0.2298   0.8277     O
O       0.1878   0.2702   0.3277     O
O       0.1889    0.098   0.1831     O
O       0.1889    0.402   0.6831     O
C       0.1964     0.51   0.6836     C
C       0.1964     0.99   0.1836     C
H       0.1969   0.0715   0.7681     H
H       0.1969   0.4285   0.2681     H
O       0.1979    0.156   0.7368     O
O       0.1979    0.344   0.2368     O
C        0.199   0.5725    0.453     C
C        0.199   0.9275    0.953     C
H        0.206    0.525   0.2708     H
H        0.206    0.975   0.7708     H
C       0.2073   0.5634   0.6846     C
C       0.2073   0.9366   0.1846     C
C       0.2118   0.2391    0.356     C
C       0.2118   0.2609    0.856     C
C        0.213   0.2464   0.9155     C
C        0.213   0.2536   0.4155     C
C       0.2177   0.5683   0.4032     C
C       0.2177   0.9317   0.9032     C
O        0.218    0.218    0.218     O
O        0.218    0.282    0.718     O
C       0.2204   0.2287   0.0212     C
C       0.2204   0.2713   0.5212     C
C       0.2219   0.2227   0.0806     C
C       0.2219   0.2773   0.5806     C
C        0.222   0.0546   0.7473     C
C        0.222   0.4454   0.2473     C
C       0.2227   0.0806   0.2219     C
C       0.2227   0.4194   0.7219     C
C       0.2278   0.5032    0.251     C
C       0.2278   0.9968    0.751     C
Zn     0.22783  0.74934  0.67647    Zn
Zn     0.22783  0.75066  0.17647    Zn
C       0.2287   0.0212   0.2204     C
C       0.2287   0.4788   0.7204     C
H       0.2292    0.706    0.525     H
H       0.2292    0.794    0.025     H
O       0.2298   0.6723   0.6878     O
O       0.2298   0.8277   0.1878     O
H       0.2319   0.6969   0.4285     H
H       0.2319   0.8031   0.9285     H
O       0.2338   0.7451   0.1032     O
O       0.2338   0.7549   0.6032     O
O       0.2368   0.1979    0.344     O
O       0.2368   0.3021    0.844     O
C       0.2391    0.144   0.7118     C
C       0.2391    0.356   0.2118     C
O       0.2451   0.1032   0.2662     O
O       0.2451   0.3968   0.7662     O
C       0.2464   0.5845    0.713     C
C       0.2464   0.9155    0.213     C
H       0.2469   0.5519   0.3884     H
H       0.2469   0.9481   0.8884     H
C       0.2473    0.222   0.4454     C
C       0.2473    0.278   0.9454     C
C        0.249   0.7278   0.5032     C
C        0.249   0.7722   0.0032     C
Zn     0.24934  0.67647  0.27217    Zn
Zn     0.24934  0.82353  0.77217    Zn
Zn     0.25066  0.17647  0.27217    Zn
Zn     0.25066  0.32353  0.77217    Zn
C        0.251   0.2278   0.5032     C
C        0.251   0.2722   0.0032     C
C       0.2527    0.722   0.4454     C
C       0.2527    0.778   0.9454     C
H       0.2531   0.0519   0.3884     H
H       0.2531   0.4481   0.8884     H
C       0.2536   0.0845    0.713     C
C       0.2536   0.4155    0.213     C
O       0.2549   0.6032   0.2662     O
O       0.2549   0.8968   0.7662     O
C       0.2609    0.644   0.7118     C
C       0.2609    0.856   0.2118     C
O       0.2632   0.6979    0.344     O
O       0.2632   0.8021    0.844     O
O       0.2662   0.2451   0.1032     O
O       0.2662   0.2549   0.6032     O
H       0.2681   0.1969   0.4285     H
H       0.2681   0.3031   0.9285     H
O       0.2702   0.1723   0.6878     O
O       0.2702   0.3277   0.1878     O
H       0.2708    0.206    0.525     H
H       0.2708    0.294    0.025     H
C       0.2713   0.5212   0.2204     C
C       0.2713   0.9788   0.7204     C
Zn     0.27217  0.24934  0.67647    Zn
Zn     0.27217  0.25066  0.17647    Zn
C       0.2722   0.0032    0.251     C
C       0.2722   0.4968    0.751     C
C       0.2773   0.5806   0.2219     C
C       0.2773   0.9194   0.7219     C
C        0.278   0.5546   0.7473     C
C        0.278   0.9454   0.2473     C
C       0.2781   0.7227   0.0806     C
C       0.2781   0.7773   0.5806     C
C       0.2796   0.7287   0.0212     C
C       0.2796   0.7713   0.5212     C
O        0.282    0.718    0.218     O
O        0.282    0.782    0.718     O
C       0.2823   0.0683   0.4032     C
C       0.2823   0.4317   0.9032     C
C        0.287   0.7464   0.9155     C
C        0.287   0.7536   0.4155     C
C       0.2882   0.7391    0.356     C
C       0.2882   0.7609    0.856     C
C       0.2927   0.0634   0.6846     C
C       0.2927   0.4366   0.1846     C
H        0.294    0.025   0.2708     H
H        0.294    0.475   0.7708     H
C        0.301   0.0725    0.453     C
C        0.301   0.4275    0.953     C
O       0.3021    0.656   0.7368     O
O       0.3021    0.844   0.2368     O
H       0.3031   0.5715   0.7681     H
H       0.3031   0.9285   0.2681     H
C       0.3036     0.01   0.6836     C
C       0.3036     0.49   0.1836     C
O       0.3111    0.598   0.1831     O
O       0.3111    0.902   0.6831     O
O       0.3122   0.7298   0.8277     O
O       0.3122   0.7702   0.3277     O
C       0.3154   0.7073   0.9366     C
C       0.3154   0.7927   0.4366     C
C       0.3164   0.6964     0.99     C
C       0.3164   0.8036     0.49     C
H       0.3168   0.1201   0.6439     H
H       0.3168   0.3799   0.1439     H
O       0.3169   0.6889    0.098     O
O       0.3169   0.8111    0.598     O
H       0.3221   0.1036   0.3467     H
H       0.3221   0.3964   0.8467     H
C       0.3234   0.0975   0.3828     C
C       0.3234   0.4025   0.8828     C
Zn     0.32353  0.72783  0.75066    Zn
Zn     0.32353  0.77217  0.25066    Zn
Zn     0.32664  0.67336  0.17336    Zn
Zn     0.32664  0.82664  0.67336    Zn
O       0.3277   0.1878   0.2702     O
O       0.3277   0.3122   0.7702     O
H        0.329   0.5049   0.1618     H
H        0.329   0.9951   0.6618     H
N       0.3321   0.0935   0.6583     N
N       0.3321   0.4065   0.1583     N
O       0.3324    0.588   0.9437     O
O       0.3324    0.912   0.4437     O
H       0.3382    0.671   0.0049     H
H       0.3382    0.829   0.5049     H
N       0.3417   0.6679   0.9065     N
N       0.3417   0.8321   0.4065     N
C        0.343   0.0922    0.482     C
C        0.343   0.4078    0.982     C
O        0.344   0.2368   0.1979     O
O        0.344   0.2632   0.6979     O
H       0.3446   0.0852   0.5175     H
H       0.3446   0.4148   0.0175     H
H       0.3467   0.1779   0.6036     H
H       0.3467   0.3221   0.1036     H
C       0.3529    0.616   0.9033     C
C       0.3529    0.884   0.4033     C
C        0.356   0.2118   0.2391     C
C        0.356   0.2882   0.7391     C
H       0.3561   0.6832   0.8799     H
H       0.3561   0.8168   0.3799     H
H       0.3618   0.5258   0.9102     H
H       0.3618   0.9742   0.4102     H
C       0.3647   0.1181   0.4078     C
C       0.3647   0.3819   0.9078     C
C        0.379   0.5406    0.881     C
C        0.379   0.9594    0.381     C
H       0.3799   0.1439   0.3168     H
H       0.3799   0.3561   0.8168     H
C        0.381    0.121   0.4594     C
C        0.381    0.379   0.9594     C
C       0.3819   0.5922   0.8647     C
C       0.3819   0.9078   0.3647     C
C       0.3828   0.1766   0.5975     C
C       0.3828   0.3234   0.0975     C
C        0.384   0.0967   0.6471     C
C        0.384   0.4033   0.1471     C
H       0.3884   0.2469   0.5519     H
H       0.3884   0.2531   0.0519     H
H       0.3964   0.6533   0.8221     H
H       0.3964   0.8467   0.3221     H
O       0.3968   0.7338   0.7451     O
O       0.3968   0.7662   0.2451     O
O        0.402   0.6831   0.1889     O
O        0.402   0.8169   0.6889     O
C       0.4025   0.6172   0.8234     C
C       0.4025   0.8828   0.3234     C
C       0.4032   0.2177   0.5683     C
C       0.4032   0.2823   0.0683     C
C       0.4033   0.1471    0.384     C
C       0.4033   0.3529    0.884     C
N       0.4065   0.1583   0.3321     N
N       0.4065   0.3417   0.8321     N
C       0.4078   0.1353   0.6181     C
C       0.4078   0.3647   0.1181     C
C       0.4078    0.518    0.843     C
C       0.4078    0.982    0.343     C
H       0.4102   0.1382   0.4742     H
H       0.4102   0.3618   0.9742     H
O        0.412   0.0563   0.6676     O
O        0.412   0.4437   0.1676     O
H       0.4148   0.0175   0.3446     H
H       0.4148   0.4825   0.8446     H
C       0.4155    0.213   0.2536     C
C       0.4155    0.287   0.7536     C
C       0.4194   0.7219   0.2227     C
C       0.4194   0.7781   0.7227     C
C       0.4275    0.547    0.801     C
C       0.4275    0.953    0.301     C
H       0.4285   0.2319   0.6969     H
H       0.4285   0.2681   0.1969     H
C       0.4317   0.5968   0.7823     C
C       0.4317   0.9032   0.2823     C
C       0.4366   0.1846   0.2927     C
C       0.4366   0.3154   0.7927     C
O       0.4437   0.1676    0.412     O
O       0.4437   0.3324    0.912     O
C       0.4454   0.2473    0.222     C
C       0.4454   0.2527    0.722     C
H       0.4481   0.6116   0.7531     H
H       0.4481   0.8884   0.2531     H
C        0.453    0.199   0.5725     C
C        0.453    0.301   0.0725     C
C       0.4594    0.119    0.621     C
C       0.4594    0.381    0.121     C
H       0.4742   0.0898   0.6382     H
H       0.4742   0.4102   0.1382     H
H        0.475   0.7292    0.794     H
H        0.475   0.7708    0.294     H
C       0.4788   0.7204   0.2287     C
C       0.4788   0.7796   0.7287     C
C        0.482    0.157   0.5922     C
C        0.482    0.343   0.0922     C
H       0.4825   0.6554   0.9148     H
H       0.4825   0.8446   0.4148     H
C         0.49   0.1836   0.3036     C
C         0.49   0.3164   0.8036     C
H       0.4951   0.6618    0.171     H
H       0.4951   0.8382    0.671     H
C       0.4968    0.749   0.7722     C
C       0.4968    0.751   0.2722     C
C       0.5032    0.249   0.7278     C
C       0.5032    0.251   0.2278     C
H       0.5049   0.1618    0.329     H
H       0.5049   0.3382    0.829     H
C         0.51   0.6836   0.1964     C
C         0.51   0.8164   0.6964     C
H       0.5175   0.1554   0.5852     H
H       0.5175   0.3446   0.0852     H
C        0.518    0.657   0.9078     C
C        0.518    0.843   0.4078     C
C       0.5212   0.2204   0.2713     C
C       0.5212   0.2796   0.7713     C
H        0.525   0.2292    0.706     H
H        0.525   0.2708    0.206     H
H       0.5258   0.5898   0.8618     H
H       0.5258   0.9102   0.3618     H
C       0.5406    0.619    0.879     C
C       0.5406    0.881    0.379     C
C        0.547    0.699   0.9275     C
C        0.547    0.801   0.4275     C
H       0.5519   0.1116   0.7469     H
H       0.5519   0.3884   0.2469     H
C       0.5546   0.7473    0.278     C
C       0.5546   0.7527    0.778     C
O       0.5563   0.6676    0.088     O
O       0.5563   0.8324    0.588     O
C       0.5634   0.6846   0.2073     C
C       0.5634   0.8154   0.7073     C
C       0.5683   0.0968   0.7177     C
C       0.5683   0.4032   0.2177     C
H       0.5715   0.7319   0.8031     H
H       0.5715   0.7681   0.3031     H
C       0.5725    0.047    0.699     C
C       0.5725    0.453    0.199     C
C       0.5806   0.2219   0.2773     C
C       0.5806   0.2781   0.7773     C
C       0.5845    0.713   0.2464     C
C       0.5845    0.787   0.7464     C
H       0.5852   0.5175   0.1554     H
H       0.5852   0.9825   0.6554     H
O        0.588   0.5563   0.8324     O
O        0.588   0.9437   0.3324     O
H       0.5898   0.6382   0.0258     H
H       0.5898   0.8618   0.5258     H
C       0.5922    0.018    0.657     C
C       0.5922    0.482    0.157     C
C       0.5922   0.6353   0.8819     C
C       0.5922   0.8647   0.3819     C
N       0.5935   0.6583   0.1679     N
N       0.5935   0.8417   0.6679     N
C       0.5967   0.6471    0.116     C
C       0.5967   0.8529    0.616     C
C       0.5968   0.7177   0.9317     C
C       0.5968   0.7823   0.4317     C
C       0.5975   0.1172   0.6766     C
C       0.5975   0.3828   0.1766     C
O        0.598   0.1831   0.3111     O
O        0.598   0.3169   0.8111     O
O       0.6032   0.2338   0.7549     O
O       0.6032   0.2662   0.2549     O
H       0.6036   0.1533   0.6779     H
H       0.6036   0.3467   0.1779     H
H       0.6116   0.7469   0.9481     H
H       0.6116   0.7531   0.4481     H
C        0.616   0.5967   0.8529     C
C        0.616   0.9033   0.3529     C
C       0.6172   0.6766   0.9025     C
C       0.6172   0.8234   0.4025     C
C       0.6181   0.0922   0.6353     C
C       0.6181   0.4078   0.1353     C
C        0.619    0.621   0.0406     C
C        0.619    0.879   0.5406     C
H       0.6201   0.6439   0.1832     H
H       0.6201   0.8561   0.6832     H
C        0.621   0.0406    0.619     C
C        0.621   0.4594    0.119     C
C       0.6353   0.6181   0.0922     C
C       0.6353   0.8819   0.5922     C
H       0.6382   0.0258   0.5898     H
H       0.6382   0.4742   0.0898     H
H       0.6439   0.1832   0.6201     H
H       0.6439   0.3168   0.1201     H
C        0.644   0.7118   0.2609     C
C        0.644   0.7882   0.7609     C
C       0.6471    0.116   0.5967     C
C       0.6471    0.384   0.0967     C
H       0.6533   0.6779   0.8964     H
H       0.6533   0.8221   0.3964     H
H       0.6554   0.5852   0.9825     H
H       0.6554   0.9148   0.4825     H
O        0.656   0.7368   0.3021     O
O        0.656   0.7632   0.8021     O
C        0.657   0.5922    0.018     C
C        0.657   0.9078    0.518     C
N       0.6583   0.1679   0.5935     N
N       0.6583   0.3321   0.0935     N
H       0.6618    0.171   0.4951     H
H       0.6618    0.329   0.9951     H
O       0.6676    0.088   0.5563     O
O       0.6676    0.412   0.0563     O
N       0.6679   0.5935   0.8417     N
N       0.6679   0.9065   0.3417     N
H        0.671   0.0049   0.3382     H
H        0.671   0.4951   0.8382     H
O       0.6723   0.6878   0.2298     O
O       0.6723   0.8122   0.7298     O
Zn     0.67336  0.17336  0.32664    Zn
Zn     0.67336  0.32664  0.82664    Zn
Zn     0.67647  0.22783  0.74934    Zn
Zn     0.67647  0.27217  0.24934    Zn
C       0.6766   0.5975   0.1172     C
C       0.6766   0.9025   0.6172     C
H       0.6779   0.6036   0.1533     H
H       0.6779   0.8964   0.6533     H
O       0.6831   0.1889    0.402     O
O       0.6831   0.3111    0.902     O
H       0.6832   0.6201   0.8561     H
H       0.6832   0.8799   0.3561     H
C       0.6836   0.1964     0.51     C
C       0.6836   0.3036     0.01     C
C       0.6846   0.2073   0.5634     C
C       0.6846   0.2927   0.0634     C
O       0.6878   0.2298   0.6723     O
O       0.6878   0.2702   0.1723     O
O       0.6889    0.098   0.3169     O
O       0.6889    0.402   0.8169     O
C       0.6964     0.51   0.8164     C
C       0.6964     0.99   0.3164     C
H       0.6969   0.0715   0.7319     H
H       0.6969   0.4285   0.2319     H
O       0.6979    0.156   0.7632     O
O       0.6979    0.344   0.2632     O
C        0.699   0.5725    0.047     C
C        0.699   0.9275    0.547     C
H        0.706    0.525   0.2292     H
H        0.706    0.975   0.7292     H
C       0.7073   0.5634   0.8154     C
C       0.7073   0.9366   0.3154     C
C       0.7118   0.2391    0.144     C
C       0.7118   0.2609    0.644     C
C        0.713   0.2464   0.5845     C
C        0.713   0.2536   0.0845     C
C       0.7177   0.5683   0.0968     C
C       0.7177   0.9317   0.5968     C
O        0.718    0.218    0.282     O
O        0.718    0.282    0.782     O
C       0.7204   0.2287   0.4788     C
C       0.7204   0.2713   0.9788     C
C       0.7219   0.2227   0.4194     C
C       0.7219   0.2773   0.9194     C
C        0.722   0.0546   0.7527     C
C        0.722   0.4454   0.2527     C
C       0.7227   0.0806   0.2781     C
C       0.7227   0.4194   0.7781     C
C       0.7278   0.5032    0.249     C
C       0.7278   0.9968    0.749     C
Zn     0.72783  0.74934  0.82353    Zn
Zn     0.72783  0.75066  0.32353    Zn
C       0.7287   0.0212   0.2796     C
C       0.7287   0.4788   0.7796     C
H       0.7292    0.706    0.975     H
H       0.7292    0.794    0.475     H
O       0.7298   0.6723   0.8122     O
O       0.7298   0.8277   0.3122     O
H       0.7319   0.6969   0.0715     H
H       0.7319   0.8031   0.5715     H
O       0.7338   0.7451   0.3968     O
O       0.7338   0.7549   0.8968     O
O       0.7368   0.1979    0.156     O
O       0.7368   0.3021    0.656     O
C       0.7391    0.144   0.7882     C
C       0.7391    0.356   0.2882     C
O       0.7451   0.1032   0.2338     O
O       0.7451   0.3968   0.7338     O
C       0.7464   0.5845    0.787     C
C       0.7464   0.9155    0.287     C
H       0.7469   0.5519   0.1116     H
H       0.7469   0.9481   0.6116     H
C       0.7473    0.222   0.0546     C
C       0.7473    0.278   0.5546     C
C        0.749   0.7278   0.9968     C
C        0.749   0.7722   0.4968     C
Zn     0.74934  0.67647  0.22783    Zn
Zn     0.74934  0.82353  0.72783    Zn
Zn     0.75066  0.17647  0.22783    Zn
Zn     0.75066  0.32353  0.72783    Zn
C        0.751   0.2278   0.9968     C
C        0.751   0.2722   0.4968     C
C       0.7527    0.722   0.0546     C
C       0.7527    0.778   0.5546     C
H       0.7531   0.0519   0.1116     H
H       0.7531   0.4481   0.6116     H
C       0.7536   0.0845    0.787     C
C       0.7536   0.4155    0.287     C
O       0.7549   0.6032   0.2338     O
O       0.7549   0.8968   0.7338     O
C       0.7609    0.644   0.7882     C
C       0.7609    0.856   0.2882     C
O       0.7632   0.6979    0.156     O
O       0.7632   0.8021    0.656     O
O       0.7662   0.2451   0.3968     O
O       0.7662   0.2549   0.8968     O
H       0.7681   0.1969   0.0715     H
H       0.7681   0.3031   0.5715     H
O       0.7702   0.1723   0.8122     O
O       0.7702   0.3277   0.3122     O
H       0.7708    0.206    0.975     H
H       0.7708    0.294    0.475     H
C       0.7713   0.5212   0.2796     C
C       0.7713   0.9788   0.7796     C
Zn     0.77217  0.24934  0.82353    Zn
Zn     0.77217  0.25066  0.32353    Zn
C       0.7722   0.0032    0.249     C
C       0.7722   0.4968    0.749     C
C       0.7773   0.5806   0.2781     C
C       0.7773   0.9194   0.7781     C
C        0.778   0.5546   0.7527     C
C        0.778   0.9454   0.2527     C
C       0.7781   0.7227   0.4194     C
C       0.7781   0.7773   0.9194     C
C       0.7796   0.7287   0.4788     C
C       0.7796   0.7713   0.9788     C
O        0.782    0.718    0.282     O
O        0.782    0.782    0.782     O
C       0.7823   0.0683   0.0968     C
C       0.7823   0.4317   0.5968     C
C        0.787   0.7464   0.5845     C
C        0.787   0.7536   0.0845     C
C       0.7882   0.7391    0.144     C
C       0.7882   0.7609    0.644     C
C       0.7927   0.0634   0.8154     C
C       0.7927   0.4366   0.3154     C
H        0.794    0.025   0.2292     H
H        0.794    0.475   0.7292     H
C        0.801   0.0725    0.047     C
C        0.801   0.4275    0.547     C
O       0.8021    0.656   0.7632     O
O       0.8021    0.844   0.2632     O
H       0.8031   0.5715   0.7319     H
H       0.8031   0.9285   0.2319     H
C       0.8036     0.01   0.8164     C
C       0.8036     0.49   0.3164     C
O       0.8111    0.598   0.3169     O
O       0.8111    0.902   0.8169     O
O       0.8122   0.7298   0.6723     O
O       0.8122   0.7702   0.1723     O
C       0.8154   0.7073   0.5634     C
C       0.8154   0.7927   0.0634     C
C       0.8164   0.6964     0.51     C
C       0.8164   0.8036     0.01     C
H       0.8168   0.1201   0.8561     H
H       0.8168   0.3799   0.3561     H
O       0.8169   0.6889    0.402     O
O       0.8169   0.8111    0.902     O
H       0.8221   0.1036   0.1533     H
H       0.8221   0.3964   0.6533     H
C       0.8234   0.0975   0.1172     C
C       0.8234   0.4025   0.6172     C
Zn     0.82353  0.72783  0.74934    Zn
Zn     0.82353  0.77217  0.24934    Zn
Zn     0.82664  0.67336  0.32664    Zn
Zn     0.82664  0.82664  0.82664    Zn
O       0.8277   0.1878   0.2298     O
O       0.8277   0.3122   0.7298     O
H        0.829   0.5049   0.3382     H
H        0.829   0.9951   0.8382     H
N       0.8321   0.0935   0.8417     N
N       0.8321   0.4065   0.3417     N
O       0.8324    0.588   0.5563     O
O       0.8324    0.912   0.0563     O
H       0.8382    0.671   0.4951     H
H       0.8382    0.829   0.9951     H
N       0.8417   0.6679   0.5935     N
N       0.8417   0.8321   0.0935     N
C        0.843   0.0922    0.018     C
C        0.843   0.4078    0.518     C
O        0.844   0.2368   0.3021     O
O        0.844   0.2632   0.8021     O
H       0.8446   0.0852   0.9825     H
H       0.8446   0.4148   0.4825     H
H       0.8467   0.1779   0.8964     H
H       0.8467   0.3221   0.3964     H
C       0.8529    0.616   0.5967     C
C       0.8529    0.884   0.0967     C
C        0.856   0.2118   0.2609     C
C        0.856   0.2882   0.7609     C
H       0.8561   0.6832   0.6201     H
H       0.8561   0.8168   0.1201     H
H       0.8618   0.5258   0.5898     H
H       0.8618   0.9742   0.0898     H
C       0.8647   0.1181   0.0922     C
C       0.8647   0.3819   0.5922     C
C        0.879   0.5406    0.619     C
C        0.879   0.9594    0.119     C
H       0.8799   0.1439   0.1832     H
H       0.8799   0.3561   0.6832     H
C        0.881    0.121   0.0406     C
C        0.881    0.379   0.5406     C
C       0.8819   0.5922   0.6353     C
C       0.8819   0.9078   0.1353     C
C       0.8828   0.1766   0.9025     C
C       0.8828   0.3234   0.4025     C
C        0.884   0.0967   0.8529     C
C        0.884   0.4033   0.3529     C
H       0.8884   0.2469   0.9481     H
H       0.8884   0.2531   0.4481     H
H       0.8964   0.6533   0.6779     H
H       0.8964   0.8467   0.1779     H
O       0.8968   0.7338   0.7549     O
O       0.8968   0.7662   0.2549     O
O        0.902   0.6831   0.3111     O
O        0.902   0.8169   0.8111     O
C       0.9025   0.6172   0.6766     C
C       0.9025   0.8828   0.1766     C
C       0.9032   0.2177   0.9317     C
C       0.9032   0.2823   0.4317     C
C       0.9033   0.1471    0.116     C
C       0.9033   0.3529    0.616     C
N       0.9065   0.1583   0.1679     N
N       0.9065   0.3417   0.6679     N
C       0.9078   0.1353   0.8819     C
C       0.9078   0.3647   0.3819     C
C       0.9078    0.518    0.657     C
C       0.9078    0.982    0.157     C
H       0.9102   0.1382   0.0258     H
H       0.9102   0.3618   0.5258     H
O        0.912   0.0563   0.8324     O
O        0.912   0.4437   0.3324     O
H       0.9148   0.0175   0.1554     H
H       0.9148   0.4825   0.6554     H
C       0.9155    0.213   0.2464     C
C       0.9155    0.287   0.7464     C
C       0.9194   0.7219   0.2773     C
C       0.9194   0.7781   0.7773     C
C       0.9275    0.547    0.699     C
C       0.9275    0.953    0.199     C
H       0.9285   0.2319   0.8031     H
H       0.9285   0.2681   0.3031     H
C       0.9317   0.5968   0.7177     C
C       0.9317   0.9032   0.2177     C
C       0.9366   0.1846   0.2073     C
C       0.9366   0.3154   0.7073     C
O       0.9437   0.1676    0.088     O
O       0.9437   0.3324    0.588     O
C       0.9454   0.2473    0.278     C
C       0.9454   0.2527    0.778     C
H       0.9481   0.6116   0.7469     H
H       0.9481   0.8884   0.2469     H
C        0.953    0.199   0.9275     C
C        0.953    0.301   0.4275     C
C       0.9594    0.119    0.879     C
C       0.9594    0.381    0.379     C
H       0.9742   0.0898   0.8618     H
H       0.9742   0.4102   0.3618     H
H        0.975   0.7292    0.706     H
H        0.975   0.7708    0.206     H
C       0.9788   0.7204   0.2713     C
C       0.9788   0.7796   0.7713     C
C        0.982    0.157   0.9078     C
C        0.982    0.343   0.4078     C
H       0.9825   0.6554   0.5852     H
H       0.9825   0.8446   0.0852     H
C         0.99   0.1836   0.1964     C
C         0.99   0.3164   0.6964     C
H       0.9951   0.6618    0.329     H
H       0.9951   0.8382    0.829     H
C       0.9968    0.749   0.7278     C
C       0.9968    0.751   0.2278     C
