data_I
_chemical_name_common  '/home/zhangsd/repos/MofS-CGCNN/ML/data/SSD/clean_cifs/HOVGIK_clean'
_cell_length_a 11.15970
_cell_length_b 22.07500
_cell_length_c 17.43400
_cell_angle_alpha 90.00000
_cell_angle_beta  99.42400
_cell_angle_gamma 90.00000
_space_group_name_H-M_alt      'P 1'


loop_
_space_group_symop_operation_xyz
  'x, y, z' 

loop_
_atom_site_label
_atom_site_fract_x
_atom_site_fract_y
_atom_site_fract_z
_atom_site_type_symbol
C       0.0062   0.6511   0.6956     C
C       0.0062   0.8489   0.1956     C
H       0.0204   0.6484   0.3085     H
H       0.0204   0.8516   0.8085     H
H       0.0229   0.5251   0.6099     H
H       0.0229   0.9749   0.1099     H
H        0.024   0.6099   0.6974     H
H        0.024   0.8901   0.1974     H
N       0.0327   0.1142    0.545     N
N       0.0327   0.3858    0.045     N
C       0.0356   0.0302   0.2478     C
C       0.0356   0.4698   0.7478     C
C       0.0357   0.0963   0.4718     C
C       0.0357   0.4037   0.9718     C
C       0.0395   0.5417   0.1505     C
C       0.0395   0.9583   0.6505     C
C       0.0429   0.2258   0.3122     C
C       0.0429   0.2742   0.8122     C
C       0.0529   0.5608   0.0717     C
C       0.0529   0.9392   0.5717     C
N       0.0561   0.0582   0.3154     N
N       0.0561   0.4418   0.8154     N
H       0.0599   0.1845   0.3156     H
H       0.0599   0.3155   0.8156     H
C       0.0625    0.596   0.9233     C
C       0.0625    0.904   0.4233     C
C       0.0643   0.7465   0.2332     C
C       0.0643   0.7535   0.7332     C
H        0.066   0.6078   0.8725     H
H        0.066   0.8922   0.3725     H
N       0.0678   0.0025   0.7589     N
N       0.0678   0.4975   0.2589     N
C       0.0882   0.0016   0.1185     C
C       0.0882   0.4984   0.6185     C
C       0.0888   0.6915    0.737     C
C       0.0888   0.8085    0.237     C
C       0.0997   0.1705   0.8475     C
C       0.0997   0.3295   0.3475     C
H       0.1013   0.1084   0.4488     H
H       0.1013   0.3916   0.9488     H
C       0.1036   0.6556   0.3163     C
C       0.1036   0.8444   0.8163     C
C       0.1114   0.0351   0.1868     C
C       0.1114   0.4649   0.6868     C
H       0.1159   0.0815   0.3335     H
H       0.1159   0.4185   0.8335     H
N       0.1177   0.5046   0.1933     N
N       0.1177   0.9954   0.6933     N
C       0.1235   0.2332    0.852     C
C       0.1235   0.2668    0.352     C
H       0.1479    0.515   0.5188     H
H       0.1479    0.985   0.0188     H
C       0.1488    0.704   0.2792     C
C       0.1488    0.796   0.7792     C
H       0.1503   0.5853   0.3903     H
H       0.1503   0.9147   0.8903     H
C       0.1512   0.5427    0.037     C
C       0.1512   0.9573    0.537     C
C        0.156   0.5606   0.9615     C
C        0.156   0.9394   0.4615     C
H       0.1597   0.6772   0.7671     H
H       0.1597   0.8228   0.2671     H
C       0.1632   0.0083   0.0638     C
C       0.1632   0.4917   0.5638     C
O        0.177  0.07166   0.8799     O
O        0.177  0.42834   0.3799     O
C       0.1818   0.6174   0.3652     C
C       0.1818   0.8826   0.8652     C
C       0.1891   0.1285   0.8902     C
C       0.1891   0.3715   0.3902     C
H       0.1946   0.2471   0.8822     H
H       0.1946   0.2529   0.3822     H
C        0.209    0.075   0.1961     C
C        0.209    0.425   0.6961     C
H       0.2127   0.5189   0.0642     H
H       0.2127   0.9811   0.5642     H
H       0.2272   0.0983   0.2409     H
H       0.2272   0.4017   0.7409     H
H       0.2369   0.5932   0.8264     H
H       0.2369   0.9068   0.3264     H
C       0.2536   0.5411   0.9194     C
C       0.2536   0.9589   0.4194     C
N       0.2562   0.0465   0.0721     N
N       0.2562   0.4535   0.5721     N
C       0.2732   0.7122   0.2884     C
C       0.2732   0.7878   0.7884     C
N       0.2749   0.5644   0.8534     N
N       0.2749   0.9356   0.3534     N
C       0.2785   0.0794   0.1374     C
C       0.2785   0.4206   0.6374     C
O       0.2786  0.15003   0.9363     O
O       0.2786  0.34997   0.4363     O
H       0.3046   0.5964   0.7098     H
H       0.3046   0.9036   0.2098     H
C       0.3051    0.627   0.3764     C
C       0.3051    0.873   0.8764     C
H       0.3052   0.7434    0.262     H
H       0.3052   0.7566    0.762     H
N       0.3334   0.0033    0.444     N
N       0.3334   0.4967    0.944     N
H       0.3398   0.5009   0.3065     H
H       0.3398   0.9991   0.8065     H
H       0.3435   0.1063   0.1437     H
H       0.3435   0.3937   0.6437     H
O        0.346   0.5435   0.4602     O
O        0.346   0.9565   0.9602     O
C       0.3503   0.6743   0.3367     C
C       0.3503   0.8257   0.8367     C
Cd     0.36763  0.05739  0.97128    Cd
Cd     0.36763  0.44261  0.47128    Cd
C       0.3719   0.5318   0.8383     C
C       0.3719   0.9682   0.3383     C
C       0.3766   0.5759   0.7074     C
C       0.3766   0.9241   0.2074     C
C       0.3879   0.5862   0.4327     C
C       0.3879   0.9138   0.9327     C
H       0.3958   0.6048   0.6009     H
H       0.3958   0.8952   0.1009     H
N       0.4102     0.01   0.3915     N
N       0.4102     0.49   0.8915     N
C       0.4125   0.0187   0.8031     C
C       0.4125   0.4813   0.3031     C
H       0.4245   0.5131   0.1967     H
H       0.4245   0.9869   0.6967     H
C       0.4289     0.54   0.7687     C
C       0.4289     0.96   0.2687     C
C       0.4324    0.581   0.6422     C
C       0.4324    0.919   0.1422     C
H       0.4338   0.6806   0.3428     H
H       0.4338   0.8194   0.8428     H
C       0.4627   0.0111   0.7371     C
C       0.4627   0.4889   0.2371     C
N       0.4636   0.0531   0.8633     N
N       0.4636   0.4469   0.3633     N
O        0.497   0.6039   0.4446     O
O        0.497   0.8961   0.9446     O
O        0.503   0.1039   0.0554     O
O        0.503   0.3961   0.5554     O
N       0.5364   0.5531   0.6367     N
N       0.5364   0.9469   0.1367     N
C       0.5373   0.5111   0.7629     C
C       0.5373   0.9889   0.2629     C
H       0.5662   0.1806   0.1572     H
H       0.5662   0.3194   0.6572     H
C       0.5676    0.081   0.8578     C
C       0.5676    0.419   0.3578     C
C       0.5711     0.04   0.7313     C
C       0.5711     0.46   0.2313     C
H       0.5755   0.0131   0.3033     H
H       0.5755   0.4869   0.8033     H
C       0.5875   0.5187   0.6969     C
C       0.5875   0.9813   0.1969     C
N       0.5898     0.51   0.1085     N
N       0.5898     0.99   0.6085     N
H       0.6042   0.1048   0.8991     H
H       0.6042   0.3952   0.3991     H
C       0.6121   0.0862   0.0673     C
C       0.6121   0.4138   0.5673     C
C       0.6234   0.0759   0.7926     C
C       0.6234   0.4241   0.2926     C
C       0.6281   0.0318   0.6617     C
C       0.6281   0.4682   0.1617     C
Cd     0.63237  0.55739  0.52872    Cd
Cd     0.63237  0.94261  0.02872    Cd
C       0.6497   0.1743   0.1633     C
C       0.6497   0.3257   0.6633     C
O        0.654   0.0435   0.0398     O
O        0.654   0.4565   0.5398     O
H       0.6565   0.6063   0.3563     H
H       0.6565   0.8937   0.8563     H
H       0.6602   0.0009   0.1935     H
H       0.6602   0.4991   0.6935     H
N       0.6666   0.5033    0.056     N
N       0.6666   0.9967    0.556     N
H       0.6948   0.2434    0.238     H
H       0.6948   0.2566    0.738     H
C       0.6949    0.127   0.1236     C
C       0.6949    0.373   0.6236     C
H       0.6954   0.0964   0.7902     H
H       0.6954   0.4036   0.2902     H
O       0.7214  0.65003   0.5637     O
O       0.7214  0.84997   0.0637     O
C       0.7215   0.5794   0.3626     C
C       0.7215   0.9206   0.8626     C
N       0.7251   0.0644   0.6466     N
N       0.7251   0.4356   0.1466     N
C       0.7268   0.2122   0.2116     C
C       0.7268   0.2878   0.7116     C
N       0.7438   0.5465   0.4279     N
N       0.7438   0.9535   0.9279     N
C       0.7464   0.0411   0.5806     C
C       0.7464   0.4589   0.0806     C
H       0.7631   0.0932   0.6736     H
H       0.7631   0.4068   0.1736     H
H       0.7728   0.5983   0.2591     H
H       0.7728   0.9017   0.7591     H
H       0.7873   0.0189   0.4358     H
H       0.7873   0.4811   0.9358     H
C        0.791    0.575   0.3039     C
C        0.791    0.925   0.8039     C
H       0.8054   0.7471   0.6178     H
H       0.8054   0.7529   0.1178     H
C       0.8109   0.6285   0.6098     C
C       0.8109   0.8715   0.1098     C
C       0.8182   0.1174   0.1348     C
C       0.8182   0.3826   0.6348     C
O        0.823  0.57166   0.6201     O
O        0.823  0.92834   0.1201     O
C       0.8368   0.5083   0.4362     C
C       0.8368   0.9917   0.9362     C
H       0.8403   0.1772   0.7329     H
H       0.8403   0.3228   0.2329     H
C        0.844   0.0606   0.5385     C
C        0.844   0.4394   0.0385     C
C       0.8488   0.0427    0.463     C
C       0.8488   0.4573    0.963     C
H       0.8497   0.0853   0.1097     H
H       0.8497   0.4147   0.6097     H
C       0.8512    0.204   0.2208     C
C       0.8512    0.296   0.7208     C
H       0.8521    0.015   0.9812     H
H       0.8521    0.485   0.4812     H
C       0.8765   0.7332    0.648     C
C       0.8765   0.7668    0.148     C
N       0.8823   0.0046   0.3067     N
N       0.8823   0.4954   0.8067     N
H       0.8841   0.5815   0.1665     H
H       0.8841   0.9185   0.6665     H
C       0.8886   0.5351   0.3132     C
C       0.8886   0.9649   0.8132     C
C       0.8964   0.1556   0.1837     C
C       0.8964   0.3444   0.6837     C
H       0.8987   0.6084   0.0512     H
H       0.8987   0.8916   0.5512     H
C       0.9003   0.6705   0.6525     C
C       0.9003   0.8295   0.1525     C
C       0.9112   0.1915    0.763     C
C       0.9112   0.3085    0.263     C
C       0.9118   0.5016   0.3815     C
C       0.9118   0.9984   0.8815     C
N       0.9322   0.5025   0.7411     N
N       0.9322   0.9975   0.2411     N
H        0.934   0.1078   0.6275     H
H        0.934   0.3922   0.1275     H
C       0.9357   0.2465   0.2668     C
C       0.9357   0.2535   0.7668     C
C       0.9375    0.096   0.5767     C
C       0.9375    0.404   0.0767     C
H       0.9401   0.6845   0.1844     H
H       0.9401   0.8155   0.6844     H
N       0.9439   0.5582   0.1846     N
N       0.9439   0.9418   0.6846     N
C       0.9471   0.0608   0.4283     C
C       0.9471   0.4392   0.9283     C
C       0.9571   0.7258   0.1878     C
C       0.9571   0.7742   0.6878     C
C       0.9605   0.0417   0.3495     C
C       0.9605   0.4583   0.8495     C
C       0.9643   0.5963   0.0282     C
C       0.9643   0.9037   0.5282     C
C       0.9644   0.5302   0.2522     C
C       0.9644   0.9698   0.7522     C
N       0.9673   0.6142    0.955     N
N       0.9673   0.8858    0.455     N
H        0.976   0.1099   0.8026     H
H        0.976   0.3901   0.3026     H
H       0.9771   0.0251   0.8901     H
H       0.9771   0.4749   0.3901     H
H       0.9796   0.1484   0.1915     H
H       0.9796   0.3516   0.6915     H
C       0.9938   0.1511   0.8044     C
C       0.9938   0.3489   0.3044     C
