data_I
_chemical_name_common  '/home/zhangsd/repos/MofS-CGCNN/ML/data/SSD/clean_cifs/HOXSAQ_clean'
_cell_length_a 15.11900
_cell_length_b  6.66120
_cell_length_c 14.34200
_cell_angle_alpha 90.00000
_cell_angle_beta  90.00000
_cell_angle_gamma 90.00000
_space_group_name_H-M_alt      'P 1'


loop_
_space_group_symop_operation_xyz
  'x, y, z' 

loop_
_atom_site_label
_atom_site_fract_x
_atom_site_fract_y
_atom_site_fract_z
_atom_site_type_symbol
C       0.0048     0.25   0.5078     C
C       0.0179     0.75    0.332     C
O       0.0191     0.75   0.1683     O
C        0.029     0.25   0.7615     C
N       0.0375     0.25   0.5937     N
O       0.0517     0.25   0.3514     O
C       0.0753     0.25   0.4332     C
C       0.0868     0.75   0.5059     C
C       0.1098     0.75   0.3474     C
O       0.1122     0.25   0.7577     O
C       0.1306     0.75   0.6027     C
N       0.1425     0.75   0.4337     N
O       0.1493   0.5837    0.635     O
O       0.1493   0.9163    0.635     O
O       0.1544     0.25   0.4623     O
C       0.1768     0.75   0.2717     C
Tb     0.20091     0.25  0.62043    Tb
O       0.2055   0.5858   0.2421     O
O       0.2055   0.9142   0.2421     O
K       0.2289     0.75   0.8091     K
K       0.2711     0.25   0.3091     K
O       0.2945   0.0858   0.7421     O
O       0.2945   0.4142   0.7421     O
Tb     0.29909     0.75  0.12043    Tb
C       0.3232     0.25   0.7717     C
O       0.3456     0.75   0.9623     O
O       0.3507   0.0837    0.135     O
O       0.3507   0.4163    0.135     O
N       0.3575     0.25   0.9337     N
C       0.3694     0.25   0.1027     C
O       0.3878     0.75   0.2577     O
C       0.3902     0.25   0.8474     C
C       0.4132     0.25   0.0059     C
C       0.4247     0.75   0.9332     C
O       0.4483     0.75   0.8514     O
N       0.4625     0.75   0.0937     N
C        0.471     0.75   0.2615     C
O       0.4809     0.25   0.6683     O
C       0.4821     0.25    0.832     C
C       0.4952     0.75   0.0078     C
C       0.5048     0.25   0.9922     C
C       0.5179     0.75    0.168     C
O       0.5191     0.75   0.3317     O
C        0.529     0.25   0.7385     C
N       0.5375     0.25   0.9063     N
O       0.5517     0.25   0.1486     O
C       0.5753     0.25   0.0668     C
C       0.5868     0.75   0.9941     C
C       0.6098     0.75   0.1526     C
O       0.6122     0.25   0.7423     O
C       0.6306     0.75   0.8973     C
N       0.6425     0.75   0.0663     N
O       0.6493   0.5837    0.865     O
O       0.6493   0.9163    0.865     O
O       0.6544     0.25   0.0377     O
C       0.6768     0.75   0.2283     C
Tb     0.70091     0.25  0.87957    Tb
O       0.7055   0.5858   0.2579     O
O       0.7055   0.9142   0.2579     O
K       0.7289     0.75   0.6909     K
K       0.7711     0.25   0.1909     K
O       0.7945   0.0858   0.7579     O
O       0.7945   0.4142   0.7579     O
Tb     0.79909     0.75  0.37957    Tb
C       0.8232     0.25   0.7283     C
O       0.8456     0.75   0.5377     O
O       0.8507   0.0837    0.365     O
O       0.8507   0.4163    0.365     O
N       0.8575     0.25   0.5663     N
C       0.8694     0.25   0.3973     C
O       0.8878     0.75   0.2423     O
C       0.8902     0.25   0.6526     C
C       0.9132     0.25   0.4941     C
C       0.9247     0.75   0.5668     C
O       0.9483     0.75   0.6486     O
N       0.9625     0.75   0.4063     N
C        0.971     0.75   0.2385     C
O       0.9809     0.25   0.8317     O
C       0.9821     0.25    0.668     C
C       0.9952     0.75   0.4922     C
