data_I
_chemical_name_common  '/home/zhangsd/repos/MofS-CGCNN/ML/data/SSD/clean_cifs/HOZTOG_clean'
_cell_length_a 26.29340
_cell_length_b 26.29340
_cell_length_c 26.29340
_cell_angle_alpha 109.47100
_cell_angle_beta  109.47100
_cell_angle_gamma 109.47100
_space_group_name_H-M_alt      'P 1'


loop_
_space_group_symop_operation_xyz
  'x, y, z' 

loop_
_atom_site_label
_atom_site_fract_x
_atom_site_fract_y
_atom_site_fract_z
_atom_site_type_symbol
I      0.00071   0.9739  0.28087     I
N      0.00206  0.69653  0.71297     N
C       0.0022   0.5518     0.53     C
N      0.00324   0.9467  0.50826     N
N      0.00502  0.44346  0.99676     N
N      0.00664  0.60827  0.55135     N
N       0.0067   0.4467   0.1324     N
C       0.0068    0.555   0.6702     C
H        0.007   0.0734   0.8978     H
H       0.0071   0.7371   0.8344     H
N      0.00826  0.00324   0.4467     N
H         0.01   0.9132    0.087     H
N      0.01644  0.80347  0.80553     N
N      0.01981    0.615  0.69787     N
S      0.02153   0.8285  0.18529     S
N      0.02168  0.70547  0.08713     N
C       0.0218     0.97   0.4722     C
C      0.02499    0.779  0.84619     C
I       0.0261  0.80697  0.02681     I
I      0.02681  0.30697   0.0261     I
C       0.0277    0.659   0.2111     C
C       0.0278   0.0496   0.9978     C
C       0.0299   0.1066   0.9385     C
C         0.03   0.0022   0.0518     C
C       0.0354   0.9549   0.1179     C
Cu     0.03628  0.78628     0.25    Cu
C       0.0437   0.7137   0.5992     C
N      0.04471  0.10163  0.99336     N
C       0.0451    0.663   0.0805     C
C       0.0482   0.4932   0.6634     C
C       0.0496   0.4978   0.5278     C
N      0.05135  0.00664  0.10827     N
C       0.0518   0.5022     0.03     C
C       0.0521   0.8687    0.841     C
H       0.0522   0.1858   0.9294     H
N       0.0533  0.06156  0.05654     N
N       0.0533     0.56   0.1857     N
C        0.055   0.5068   0.1702     C
H       0.0552   0.8962   0.8258     H
C       0.0555     0.17   0.9563     C
H        0.056   0.3829   0.6345     H
N      0.05654  0.56156   0.0533     N
N      0.05692  0.94865  0.45529     N
N         0.06   0.5533   0.6857     N
Cu     0.06036  0.93618   0.2332    Cu
C       0.0615   0.6681   0.5914     C
N      0.06156  0.55654   0.5533     N
Cu     0.06382  0.79702  0.12418    Cu
N      0.06545  0.97832  0.18379     N
C       0.0656   0.8296    0.908     C
H       0.0664   0.8908    0.493     H
C      0.06719    0.721  0.74599     C
H       0.0704   0.6742   0.2294     H
H       0.0706   0.7564   0.6228     H
H       0.0734   0.3978    0.507     H
C       0.0767   0.9086   0.4701     C
H        0.077     0.99   0.4032     H
C       0.0784   0.6704    0.736     C
H       0.0785   0.8269    0.944     H
C       0.0805    0.163   0.0451     C
C       0.0825   0.9646   0.4195     C
N      0.08287    0.885  0.90481     N
H       0.0868   0.6738   0.0968     H
H        0.087   0.4132     0.01     H
N      0.08713  0.20547  0.02168     N
C       0.0914   0.0615   0.1681     C
C        0.092   0.4216   0.6576     C
N      0.09519  0.48019  0.67806     N
H       0.0968   0.1738   0.0868     H
H       0.0973   0.7629     0.77     H
C       0.0992   0.0437   0.2137     C
N      0.10163  0.49336  0.54471     N
H       0.1022   0.6756   0.6092     H
H       0.1038   0.4296    0.159     H
C       0.1066   0.4385   0.5299     C
N      0.10827  0.50664  0.05135     N
H       0.1092   0.1022   0.1756     H
C       0.1145   0.9008   0.4445     C
N        0.115  0.51981  0.19787     N
C       0.1152    0.945   0.9518     C
H       0.1171   0.6731   0.7516     H
C       0.1179   0.4549   0.0354     C
N      0.11834  0.93455  0.41287     N
H       0.1228   0.0706   0.2564     H
Cu     0.12418  0.29702  0.06382    Cu
W        0.125    0.875     0.25     W
N       0.1257   0.9933     0.94     N
C       0.1313   0.4723   0.1834     C
N       0.1324   0.9467   0.0067     N
H       0.1336   0.8772   0.4478     H
H       0.1345    0.056   0.8829     H
S      0.14321  0.83624  0.31471     S
C      0.15381  0.43281   0.6788     C
C       0.1576    0.092   0.9216     C
C        0.159   0.5277   0.7111     C
H        0.159   0.9296   0.1038     H
C        0.163   0.5451   0.5805     C
C       0.1634   0.0482   0.9932     C
S      0.16376  0.97847  0.30697     S
H       0.1656   0.4027   0.6727     H
C       0.1681   0.5615   0.0914     C
C         0.17   0.4563   0.5555     C
C       0.1702   0.0068    0.055     C
C       0.1704   0.5784    0.236     C
S       0.1715  0.85679  0.19303     S
H       0.1727   0.1656   0.9027     H
Cu     0.17284  0.93964  0.37582    Cu
H       0.1731   0.6171   0.2516     H
H       0.1738   0.5868   0.5968     H
H       0.1742   0.5704   0.7294     H
H       0.1756   0.6022   0.1092     H
N      0.17806  0.09519  0.98019     N
C       0.1788  0.15381  0.93281     C
C       0.1834   0.9723   0.1313     C
N      0.18379  0.47832  0.06545     N
S      0.18529   0.3285  0.02153     S
N       0.1857     0.06   0.0533     N
H       0.1858   0.4294   0.5522     H
S      0.19303  0.35679   0.1715     S
I      0.19303  0.71984  0.21913     I
N      0.19447  0.49794  0.71091     N
N      0.19653  0.50206  0.21297     N
N      0.19787  0.01981    0.115     N
Cu     0.20298  0.82716   0.2668    Cu
N      0.20547  0.52168  0.58713     N
N      0.21091  0.19447  0.99794     N
C       0.2111    0.159   0.0277     C
N      0.21297  0.00206  0.19653     N
C       0.2137   0.5437   0.0992     C
Cu     0.21372  0.96372     0.25    Cu
I      0.21913  0.21984  0.19303     I
I      0.21984  0.69303  0.71913     I
C        0.221  0.56719  0.24599     C
H       0.2294   0.1742   0.0704     H
H         0.23   0.4929   0.8273     H
Cu      0.2332  0.43618  0.06036    Cu
C        0.236   0.0784   0.1704     C
H       0.2371   0.5071   0.3344     H
H       0.2436   0.3664   0.3142     H
C      0.24599  0.06719    0.221     C
H       0.2484   0.4215   0.8655     H
Cu        0.25  0.28628  0.03628    Cu
W         0.25    0.375    0.125     W
Cu        0.25  0.46372  0.21372    Cu
H       0.2516   0.1171   0.1731     H
C      0.25401  0.47501   0.8212     C
H       0.2564   0.5706   0.1228     H
H       0.2629   0.5973     0.27     H
C        0.264   0.4344   0.8424     C
Cu      0.2668  0.32716  0.20298    Cu
H         0.27   0.0973   0.2629     H
H       0.2706    0.341   0.9448     H
C        0.279  0.52499  0.34619     C
I      0.28016  0.99929  0.47319     I
I      0.28087   0.4739  0.00071     I
Cu     0.28628  0.53628     0.75    Cu
C       0.2863   0.3855     0.33     C
N      0.28703  0.48356  0.78909     N
C       0.2889   0.3166   0.9479     C
N      0.28909  0.28703  0.98356     N
N      0.29453  0.88166  0.31621     N
Cu     0.29702  0.56382  0.62418    Cu
N      0.30213  0.41713  0.82194     N
N      0.30347  0.51644  0.30553     N
N      0.30553  0.01644  0.30347     N
S      0.30697  0.47847  0.16376     S
I      0.30697   0.5261  0.52681     I
H       0.3142   0.8664   0.2436     H
N       0.3143   0.3676   0.8743     N
S      0.31471  0.33624  0.14321     S
N      0.31621  0.38166  0.29453     N
C       0.3166   0.4479   0.7889     C
C       0.3212  0.25401  0.97501     C
N      0.32194  0.30213  0.91713     N
H       0.3244   0.4336   0.4266     H
H       0.3258   0.0552   0.3962     H
H       0.3262    0.923    0.413     H
H       0.3269   0.5785    0.444     H
Cu     0.32716  0.70298   0.7668    Cu
H       0.3273     0.23   0.9929     H
S       0.3285  0.52153  0.68529     S
C       0.3296   0.5656    0.408     C
C       0.3298   0.3848   0.8366     C
C         0.33   0.8855   0.2863     C
C       0.3319   0.4233   0.3934     C
H       0.3344   0.0071   0.2371     H
S      0.33624  0.64321  0.81471     S
C       0.3366   0.3298   0.8848     C
C        0.337   0.9175   0.3821     C
C        0.341   0.0521   0.3687     C
H        0.341   0.4448   0.7706     H
C       0.3424    0.264   0.9344     C
C      0.34619  0.02499    0.279     C
S      0.35679   0.6715  0.69303     S
H       0.3655   0.2484   0.9215     H
H       0.3664   0.8142   0.7436     H
N       0.3676   0.3743   0.8143     N
C       0.3687   0.5521    0.341     C
N       0.3743   0.3143   0.8676     N
W        0.375    0.625     0.75     W
Cu     0.37582  0.43964  0.17284    Cu
H       0.3772   0.6336   0.9478     H
N      0.38166  0.79453  0.81621     N
C       0.3821   0.4175    0.337     C
H       0.3829   0.1345    0.556     H
C       0.3848   0.3366   0.8298     C
N        0.385  0.58287  0.40481     N
C       0.3855     0.83   0.7863     C
H       0.3908   0.5664    0.993     H
N      0.39173  0.44308  0.39837     N
C       0.3934   0.9233   0.3319     C
H       0.3962   0.5552   0.3258     H
H       0.3978    0.007   0.5734     H
N      0.39837  0.94308  0.39173     N
C       0.4008   0.6145   0.9445     C
H       0.4027   0.1727   0.6656     H
H       0.4032     0.49    0.077     H
N      0.40481  0.08287    0.385     N
C        0.408   0.0656   0.3296     C
C       0.4086   0.5767   0.9701     C
N      0.41287  0.43455  0.11834     N
H        0.413    0.423   0.3262     H
H       0.4132     0.51    0.587     H
N      0.41713  0.32194  0.80213     N
C       0.4175    0.837   0.8821     C
C       0.4195   0.4646   0.0825     C
H       0.4215   0.3655   0.7484     H
C       0.4216   0.1576    0.592     C
H        0.423   0.8262    0.913     H
C       0.4233   0.8934   0.8319     C
H       0.4266   0.9336   0.3244     H
H       0.4294   0.0522   0.6858     H
H       0.4296    0.659   0.6038     H
C      0.43281   0.1788  0.65381     C
H       0.4336   0.9266   0.8244     H
C       0.4344   0.3424    0.764     C
N      0.43455  0.61834  0.91287     N
Cu     0.43618  0.56036   0.7332    Cu
N      0.43844  0.99174  0.49498     N
C       0.4385   0.0299   0.6066     C
Cu     0.43964  0.67284  0.87582    Cu
N         0.44   0.1257   0.4933     N
N      0.44308  0.89837  0.89173     N
N      0.44346  0.49676  0.50502     N
H        0.444   0.0785   0.3269     H
C       0.4445   0.4008   0.1145     C
H       0.4448   0.2706    0.841     H
C        0.445   0.6152   0.4518     C
N       0.4467  0.50324  0.00826     N
N       0.4467   0.6324   0.5067     N
H       0.4478   0.3772   0.1336     H
C       0.4479   0.2889   0.8166     C
C       0.4482   0.4782   0.4504     C
N      0.44865  0.55692  0.95529     N
C       0.4504   0.9782   0.4482     C
C       0.4518   0.1152    0.445     C
C       0.4549   0.5354   0.6179     C
N      0.45529  0.44865  0.05692     N
C       0.4563   0.0555     0.67     C
Cu     0.46372  0.71372     0.75    Cu
C       0.4646   0.5825   0.9195     C
C         0.47   0.5218   0.9722     C
C       0.4701   0.4086   0.0767     C
C       0.4722     0.47   0.0218     C
C       0.4723   0.6834   0.6313     C
I      0.47319  0.49929  0.28016     I
I       0.4739  0.50071  0.78087     I
C      0.47501   0.3212  0.75401     C
C       0.4782   0.9504   0.9482     C
N      0.47832  0.56545  0.68379     N
S      0.47847  0.66376  0.80697     S
N      0.48019  0.17806  0.59519     N
N      0.48356  0.28909  0.78703     N
H         0.49    0.577   0.9032     H
N      0.49174  0.93844  0.99498     N
H       0.4929   0.3273     0.73     H
H        0.493   0.3908   0.0664     H
C       0.4932   0.1634   0.5482     C
N       0.4933   0.6257     0.44     N
N      0.49336  0.04471  0.60163     N
N      0.49498  0.49174  0.43844     N
N      0.49676  0.00502  0.94346     N
C       0.4978   0.0278   0.5496     C
N      0.49794  0.21091  0.69447     N
I      0.49929  0.78016  0.97319     I
I      0.50071  0.28087   0.9739     I
N      0.50206  0.71297  0.69653     N
C       0.5022     0.53   0.5518     C
N      0.50324  0.50826   0.9467     N
N      0.50502  0.99676  0.44346     N
N      0.50664  0.55135  0.60827     N
N       0.5067   0.1324   0.4467     N
C       0.5068   0.6702    0.555     C
H        0.507   0.8978   0.0734     H
H       0.5071   0.8344   0.7371     H
N      0.50826   0.4467  0.00324     N
H         0.51    0.087   0.9132     H
N      0.51644  0.80553  0.80347     N
N      0.51981  0.69787    0.615     N
S      0.52153  0.18529   0.8285     S
N      0.52168  0.08713  0.70547     N
C       0.5218   0.4722     0.97     C
C      0.52499  0.84619    0.779     C
I       0.5261  0.02681  0.80697     I
I      0.52681   0.0261  0.30697     I
C       0.5277   0.2111    0.659     C
C       0.5278   0.9978   0.0496     C
C       0.5299   0.9385   0.1066     C
C         0.53   0.0518   0.0022     C
C       0.5354   0.1179   0.9549     C
Cu     0.53628     0.25  0.78628    Cu
C       0.5437   0.5992   0.7137     C
N      0.54471  0.99336  0.10163     N
C       0.5451   0.0805    0.663     C
C       0.5482   0.6634   0.4932     C
C       0.5496   0.5278   0.4978     C
N      0.55135  0.10827  0.00664     N
C       0.5518     0.03   0.5022     C
C       0.5521    0.841   0.8687     C
H       0.5522   0.9294   0.1858     H
N       0.5533  0.05654  0.06156     N
N       0.5533   0.1857     0.56     N
C        0.555   0.1702   0.5068     C
H       0.5552   0.8258   0.8962     H
C       0.5555   0.9563     0.17     C
H        0.556   0.6345   0.3829     H
N      0.55654   0.0533  0.56156     N
N      0.55692  0.45529  0.94865     N
N         0.56   0.6857   0.5533     N
Cu     0.56036   0.2332  0.93618    Cu
C       0.5615   0.5914   0.6681     C
N      0.56156   0.5533  0.55654     N
Cu     0.56382  0.12418  0.79702    Cu
N      0.56545  0.18379  0.97832     N
C       0.5656    0.908   0.8296     C
H       0.5664    0.493   0.8908     H
C      0.56719  0.74599    0.721     C
H       0.5704   0.2294   0.6742     H
H       0.5706   0.6228   0.7564     H
H       0.5734    0.507   0.3978     H
C       0.5767   0.4701   0.9086     C
H        0.577   0.4032     0.99     H
C       0.5784    0.736   0.6704     C
H       0.5785    0.944   0.8269     H
C       0.5805   0.0451    0.163     C
C       0.5825   0.4195   0.9646     C
N      0.58287  0.90481    0.885     N
H       0.5868   0.0968   0.6738     H
H        0.587     0.01   0.4132     H
N      0.58713  0.02168  0.20547     N
C       0.5914   0.1681   0.0615     C
C        0.592   0.6576   0.4216     C
N      0.59519  0.67806  0.48019     N
H       0.5968   0.0868   0.1738     H
H       0.5973     0.77   0.7629     H
C       0.5992   0.2137   0.0437     C
N      0.60163  0.54471  0.49336     N
H       0.6022   0.6092   0.6756     H
H       0.6038    0.159   0.4296     H
C       0.6066   0.5299   0.4385     C
N      0.60827  0.05135  0.50664     N
H       0.6092   0.1756   0.1022     H
C       0.6145   0.4445   0.9008     C
N        0.615  0.19787  0.51981     N
C       0.6152   0.9518    0.945     C
H       0.6171   0.7516   0.6731     H
C       0.6179   0.0354   0.4549     C
N      0.61834  0.41287  0.93455     N
H       0.6228   0.2564   0.0706     H
Cu     0.62418  0.06382  0.29702    Cu
W        0.625     0.25    0.875     W
N       0.6257     0.94   0.9933     N
C       0.6313   0.1834   0.4723     C
N       0.6324   0.0067   0.9467     N
H       0.6336   0.4478   0.8772     H
H       0.6345   0.8829    0.056     H
S      0.64321  0.31471  0.83624     S
C      0.65381   0.6788  0.43281     C
C       0.6576   0.9216    0.092     C
H        0.659   0.1038   0.9296     H
C        0.659   0.7111   0.5277     C
C        0.663   0.5805   0.5451     C
C       0.6634   0.9932   0.0482     C
S      0.66376  0.30697  0.97847     S
H       0.6656   0.6727   0.4027     H
C       0.6681   0.0914   0.5615     C
C         0.67   0.5555   0.4563     C
C       0.6702    0.055   0.0068     C
C       0.6704    0.236   0.5784     C
S       0.6715  0.19303  0.85679     S
H       0.6727   0.9027   0.1656     H
Cu     0.67284  0.37582  0.93964    Cu
H       0.6731   0.2516   0.6171     H
H       0.6738   0.5968   0.5868     H
H       0.6742   0.7294   0.5704     H
H       0.6756   0.1092   0.6022     H
N      0.67806  0.98019  0.09519     N
C       0.6788  0.93281  0.15381     C
C       0.6834   0.1313   0.9723     C
N      0.68379  0.06545  0.47832     N
S      0.68529  0.02153   0.3285     S
N       0.6857   0.0533     0.06     N
H       0.6858   0.5522   0.4294     H
S      0.69303   0.1715  0.35679     S
I      0.69303  0.21913  0.71984     I
N      0.69447  0.71091  0.49794     N
N      0.69653  0.21297  0.50206     N
N      0.69787    0.115  0.01981     N
Cu     0.70298   0.2668  0.82716    Cu
N      0.70547  0.58713  0.52168     N
N      0.71091  0.99794  0.19447     N
C       0.7111   0.0277    0.159     C
N      0.71297  0.19653  0.00206     N
C       0.7137   0.0992   0.5437     C
Cu     0.71372     0.25  0.96372    Cu
I      0.71913  0.19303  0.21984     I
I      0.71984  0.71913  0.69303     I
C        0.721  0.24599  0.56719     C
H       0.7294   0.0704   0.1742     H
H         0.73   0.8273   0.4929     H
Cu      0.7332  0.06036  0.43618    Cu
C        0.736   0.1704   0.0784     C
H       0.7371   0.3344   0.5071     H
H       0.7436   0.3142   0.3664     H
C      0.74599    0.221  0.06719     C
H       0.7484   0.8655   0.4215     H
Cu        0.75  0.03628  0.28628    Cu
W         0.75    0.125    0.375     W
Cu        0.75  0.21372  0.46372    Cu
H       0.7516   0.1731   0.1171     H
C      0.75401   0.8212  0.47501     C
H       0.7564   0.1228   0.5706     H
H       0.7629     0.27   0.5973     H
C        0.764   0.8424   0.4344     C
Cu      0.7668  0.20298  0.32716    Cu
H         0.77   0.2629   0.0973     H
H       0.7706   0.9448    0.341     H
C        0.779  0.34619  0.52499     C
I      0.78016  0.47319  0.99929     I
I      0.78087  0.00071   0.4739     I
Cu     0.78628     0.75  0.53628    Cu
C       0.7863     0.33   0.3855     C
N      0.78703  0.78909  0.48356     N
C       0.7889   0.9479   0.3166     C
N      0.78909  0.98356  0.28703     N
N      0.79453  0.31621  0.88166     N
Cu     0.79702  0.62418  0.56382    Cu
N      0.80213  0.82194  0.41713     N
N      0.80347  0.30553  0.51644     N
N      0.80553  0.30347  0.01644     N
S      0.80697  0.16376  0.47847     S
I      0.80697  0.52681   0.5261     I
H       0.8142   0.2436   0.8664     H
N       0.8143   0.8743   0.3676     N
S      0.81471  0.14321  0.33624     S
N      0.81621  0.29453  0.38166     N
C       0.8166   0.7889   0.4479     C
C       0.8212  0.97501  0.25401     C
N      0.82194  0.91713  0.30213     N
H       0.8244   0.4266   0.4336     H
H       0.8258   0.3962   0.0552     H
H       0.8262    0.413    0.923     H
H       0.8269    0.444   0.5785     H
Cu     0.82716   0.7668  0.70298    Cu
H       0.8273   0.9929     0.23     H
S       0.8285  0.68529  0.52153     S
C       0.8296    0.408   0.5656     C
C       0.8298   0.8366   0.3848     C
C         0.83   0.2863   0.8855     C
C       0.8319   0.3934   0.4233     C
H       0.8344   0.2371   0.0071     H
S      0.83624  0.81471  0.64321     S
C       0.8366   0.8848   0.3298     C
C        0.837   0.3821   0.9175     C
C        0.841   0.3687   0.0521     C
H        0.841   0.7706   0.4448     H
C       0.8424   0.9344    0.264     C
C      0.84619    0.279  0.02499     C
S      0.85679  0.69303   0.6715     S
H       0.8655   0.9215   0.2484     H
H       0.8664   0.7436   0.8142     H
N       0.8676   0.8143   0.3743     N
C       0.8687    0.341   0.5521     C
N       0.8743   0.8676   0.3143     N
W        0.875     0.75    0.625     W
Cu     0.87582  0.17284  0.43964    Cu
H       0.8772   0.9478   0.6336     H
N      0.88166  0.81621  0.79453     N
C       0.8821    0.337   0.4175     C
H       0.8829    0.556   0.1345     H
C       0.8848   0.8298   0.3366     C
N        0.885  0.40481  0.58287     N
C       0.8855   0.7863     0.83     C
H       0.8908    0.993   0.5664     H
N      0.89173  0.39837  0.44308     N
C       0.8934   0.3319   0.9233     C
H       0.8962   0.3258   0.5552     H
H       0.8978   0.5734    0.007     H
N      0.89837  0.39173  0.94308     N
C       0.9008   0.9445   0.6145     C
H       0.9027   0.6656   0.1727     H
H       0.9032    0.077     0.49     H
N      0.90481    0.385  0.08287     N
C        0.908   0.3296   0.0656     C
C       0.9086   0.9701   0.5767     C
N      0.91287  0.11834  0.43455     N
H        0.913   0.3262    0.423     H
H       0.9132    0.587     0.51     H
N      0.91713  0.80213  0.32194     N
C       0.9175   0.8821    0.837     C
C       0.9195   0.0825   0.4646     C
H       0.9215   0.7484   0.3655     H
C       0.9216    0.592   0.1576     C
H        0.923    0.913   0.8262     H
C       0.9233   0.8319   0.8934     C
H       0.9266   0.3244   0.9336     H
H       0.9294   0.6858   0.0522     H
H       0.9296   0.6038    0.659     H
C      0.93281  0.65381   0.1788     C
H       0.9336   0.8244   0.9266     H
C       0.9344    0.764   0.3424     C
N      0.93455  0.91287  0.61834     N
Cu     0.93618   0.7332  0.56036    Cu
N      0.93844  0.49498  0.99174     N
C       0.9385   0.6066   0.0299     C
Cu     0.93964  0.87582  0.67284    Cu
N         0.94   0.4933   0.1257     N
N      0.94308  0.89173  0.89837     N
N      0.94346  0.50502  0.49676     N
H        0.944   0.3269   0.0785     H
C       0.9445   0.1145   0.4008     C
H       0.9448    0.841   0.2706     H
C        0.945   0.4518   0.6152     C
N       0.9467  0.00826  0.50324     N
N       0.9467   0.5067   0.6324     N
H       0.9478   0.1336   0.3772     H
C       0.9479   0.8166   0.2889     C
C       0.9482   0.4504   0.4782     C
N      0.94865  0.95529  0.55692     N
C       0.9504   0.4482   0.9782     C
C       0.9518    0.445   0.1152     C
C       0.9549   0.6179   0.5354     C
N      0.95529  0.05692  0.44865     N
C       0.9563     0.67   0.0555     C
Cu     0.96372     0.75  0.71372    Cu
C       0.9646   0.9195   0.5825     C
C         0.97   0.9722   0.5218     C
C       0.9701   0.0767   0.4086     C
C       0.9722   0.0218     0.47     C
C       0.9723   0.6313   0.6834     C
I      0.97319  0.28016  0.49929     I
I       0.9739  0.78087  0.50071     I
C      0.97501  0.75401   0.3212     C
C       0.9782   0.9482   0.9504     C
N      0.97832  0.68379  0.56545     N
S      0.97847  0.80697  0.66376     S
N      0.98019  0.59519  0.17806     N
N      0.98356  0.78703  0.28909     N
H         0.99   0.9032    0.577     H
N      0.99174  0.99498  0.93844     N
H       0.9929     0.73   0.3273     H
H        0.993   0.0664   0.3908     H
C       0.9932   0.5482   0.1634     C
N       0.9933     0.44   0.6257     N
N      0.99336  0.60163  0.04471     N
N      0.99498  0.43844  0.49174     N
N      0.99676  0.94346  0.00502     N
C       0.9978   0.5496   0.0278     C
N      0.99794  0.69447  0.21091     N
I      0.99929  0.97319  0.78016     I
