data_I
_chemical_name_common  '/home/zhangsd/repos/MofS-CGCNN/ML/data/SSD/clean_cifs/HUJGEA_clean'
_cell_length_a 17.92570
_cell_length_b 17.92570
_cell_length_c 28.06270
_cell_angle_alpha 90.00000
_cell_angle_beta  90.00000
_cell_angle_gamma 90.00000
_space_group_name_H-M_alt      'P 1'


loop_
_space_group_symop_operation_xyz
  'x, y, z' 

loop_
_atom_site_label
_atom_site_fract_x
_atom_site_fract_y
_atom_site_fract_z
_atom_site_type_symbol
C      0.00125  0.24671  0.43051     C
C      0.00125  0.25329  0.06949     C
C      0.00977  0.08422  0.04047     C
C      0.00977  0.41578  0.45953     C
C      0.01129  0.18886  0.09584     C
C      0.01129  0.31114  0.40416     C
O      0.01205  0.62051  0.98556     O
O      0.01205  0.87949  0.51444     O
C      0.01834  0.51834  0.52054     C
C      0.01834  0.98166  0.97946     C
C      0.02357   0.6177  0.57873     C
C      0.02357   0.8823  0.92127     C
C      0.02596  0.11205  0.44866     C
C      0.02596  0.38795  0.05134     C
H        0.031   0.7477   0.9574     H
H        0.031   0.7523   0.5426     H
C      0.03741  0.17994  0.41861     C
C      0.03741  0.32006  0.08139     C
Cu     0.04056  0.54056  0.02968    Cu
Cu     0.04056  0.95944  0.47032    Cu
O      0.05194  0.05585  0.56537     O
O      0.05194  0.44415  0.93463     O
H       0.0532   0.1062    0.027     H
H       0.0532   0.3938    0.473     H
O      0.05585  0.05194  0.43463     O
O      0.05585  0.44806  0.06537     O
C      0.05882  0.19054  0.13432     C
C      0.05882  0.30946  0.36568     C
H       0.0661   0.1467   0.1527     H
H       0.0661   0.3533   0.3473     H
C      0.08422  0.00977  0.95953     C
C      0.08422  0.49023  0.54047     C
C      0.08489  0.17964  0.37951     C
C      0.08489  0.32036  0.12049     C
C      0.08695  0.58695  0.59857     C
C      0.08695  0.91305  0.90143     C
C      0.09646  0.24428  0.35339     C
C      0.09646  0.25572  0.14661     C
H       0.1062   0.0532    0.973     H
H       0.1062   0.4468    0.527     H
H       0.1096   0.1349   0.3706     H
H       0.1096   0.3651   0.1294     H
C      0.11205  0.02596  0.55134     C
C      0.11205  0.47404  0.94866     C
C       0.1177  0.52357  0.57873     C
C       0.1177  0.97643  0.92127     C
O       0.1196   0.6196  0.63885     O
O       0.1196   0.8804  0.86115     O
O      0.12051  0.51205  0.98556     O
O      0.12051  0.98795  0.51444     O
H       0.1349   0.1096   0.6294     H
H       0.1349   0.3904   0.8706     H
H       0.1467   0.0661   0.8473     H
H       0.1467   0.4339   0.6527     H
H       0.1522    0.715   0.6102     H
H       0.1522    0.785   0.8898     H
C      0.15254  0.24515  0.31353     C
C      0.15254  0.25485  0.18647     C
O      0.16571  0.19299  0.20549     O
O      0.16571  0.30701  0.29451     O
C       0.1746   0.6746   0.6289     C
C       0.1746   0.8254   0.8711     C
Cu     0.17568     0.25     0.75    Cu
C      0.17964  0.08489  0.62049     C
C      0.17964  0.41511  0.87951     C
C      0.17994  0.03741  0.58139     C
C      0.17994  0.46259  0.91861     C
O      0.18158  0.18368  0.30319     O
O      0.18158  0.31632  0.19681     O
O      0.18368  0.18158  0.69681     O
O      0.18368  0.31842  0.80319     O
C      0.18886  0.01129  0.90416     C
C      0.18886  0.48871  0.59584     C
C      0.19054  0.05882  0.86568     C
C      0.19054  0.44118  0.63432     C
O      0.19299  0.16571  0.79451     O
O      0.19299  0.33429  0.70549     O
H       0.1944   0.6944   0.6589     H
H       0.1944   0.8056   0.8411     H
H        0.215   0.6522   0.6102     H
H        0.215   0.8478   0.8898     H
C      0.24428  0.09646  0.64661     C
C      0.24428  0.40354  0.85339     C
C      0.24515  0.15254  0.68647     C
C      0.24515  0.34746  0.81353     C
C      0.24671  0.00125  0.56949     C
C      0.24671  0.49875  0.93051     C
H       0.2477    0.531   0.9574     H
H       0.2477    0.969   0.5426     H
Cu        0.25  0.17568     0.25    Cu
Cu        0.25  0.32432     0.25    Cu
H       0.2523    0.531   0.5426     H
H       0.2523    0.969   0.9574     H
C      0.25329  0.00125  0.93051     C
C      0.25329  0.49875  0.56949     C
C      0.25485  0.15254  0.81353     C
C      0.25485  0.34746  0.68647     C
C      0.25572  0.09646  0.85339     C
C      0.25572  0.40354  0.64661     C
H        0.285   0.6522   0.8898     H
H        0.285   0.8478   0.6102     H
H       0.3056   0.6944   0.8411     H
H       0.3056   0.8056   0.6589     H
O      0.30701  0.16571  0.70549     O
O      0.30701  0.33429  0.79451     O
C      0.30946  0.05882  0.63432     C
C      0.30946  0.44118  0.86568     C
C      0.31114  0.01129  0.59584     C
C      0.31114  0.48871  0.90416     C
O      0.31632  0.18158  0.80319     O
O      0.31632  0.31842  0.69681     O
O      0.31842  0.18368  0.19681     O
O      0.31842  0.31632  0.30319     O
C      0.32006  0.03741  0.91861     C
C      0.32006  0.46259  0.58139     C
C      0.32036  0.08489  0.87951     C
C      0.32036  0.41511  0.62049     C
Cu     0.32432     0.25     0.75    Cu
C       0.3254   0.6746   0.8711     C
C       0.3254   0.8254   0.6289     C
O      0.33429  0.19299  0.29451     O
O      0.33429  0.30701  0.20549     O
C      0.34746  0.24515  0.18647     C
C      0.34746  0.25485  0.31353     C
H       0.3478    0.715   0.8898     H
H       0.3478    0.785   0.6102     H
H       0.3533   0.0661   0.6527     H
H       0.3533   0.4339   0.8473     H
H       0.3651   0.1096   0.8706     H
H       0.3651   0.3904   0.6294     H
O      0.37949  0.51205  0.51444     O
O      0.37949  0.98795  0.98556     O
O       0.3804   0.6196  0.86115     O
O       0.3804   0.8804  0.63885     O
C       0.3823  0.52357  0.92127     C
C       0.3823  0.97643  0.57873     C
C      0.38795  0.02596  0.94866     C
C      0.38795  0.47404  0.55134     C
H       0.3904   0.1349   0.1294     H
H       0.3904   0.3651   0.3706     H
H       0.3938   0.0532    0.527     H
H       0.3938   0.4468    0.973     H
C      0.40354  0.24428  0.14661     C
C      0.40354  0.25572  0.35339     C
C      0.41305  0.58695  0.90143     C
C      0.41305  0.91305  0.59857     C
C      0.41511  0.17964  0.12049     C
C      0.41511  0.32036  0.37951     C
C      0.41578  0.00977  0.54047     C
C      0.41578  0.49023  0.95953     C
H       0.4339   0.1467   0.3473     H
H       0.4339   0.3533   0.1527     H
C      0.44118  0.19054  0.36568     C
C      0.44118  0.30946  0.13432     C
O      0.44415  0.05194  0.06537     O
O      0.44415  0.44806  0.43463     O
H       0.4468   0.1062    0.473     H
H       0.4468   0.3938    0.027     H
O      0.44806  0.05585  0.93463     O
O      0.44806  0.44415  0.56537     O
Cu     0.45944  0.54056  0.47032    Cu
Cu     0.45944  0.95944  0.02968    Cu
C      0.46259  0.17994  0.08139     C
C      0.46259  0.32006  0.41861     C
H        0.469   0.7477   0.5426     H
H        0.469   0.7523   0.9574     H
C      0.47404  0.11205  0.05134     C
C      0.47404  0.38795  0.44866     C
C      0.47643   0.6177  0.92127     C
C      0.47643   0.8823  0.57873     C
C      0.48166  0.51834  0.97946     C
C      0.48166  0.98166  0.52054     C
O      0.48795  0.62051  0.51444     O
O      0.48795  0.87949  0.98556     O
C      0.48871  0.18886  0.40416     C
C      0.48871  0.31114  0.09584     C
C      0.49023  0.08422  0.45953     C
C      0.49023  0.41578  0.04047     C
C      0.49875  0.24671  0.06949     C
C      0.49875  0.25329  0.43051     C
C      0.50125  0.74671  0.56949     C
C      0.50125  0.75329  0.93051     C
C      0.50977  0.58422  0.95953     C
C      0.50977  0.91578  0.54047     C
C      0.51129  0.68886  0.90416     C
C      0.51129  0.81114  0.59584     C
O      0.51205  0.12051  0.01444     O
O      0.51205  0.37949  0.48556     O
C      0.51834  0.01834  0.47946     C
C      0.51834  0.48166  0.02054     C
C      0.52357   0.1177  0.42127     C
C      0.52357   0.3823  0.07873     C
C      0.52596  0.61205  0.55134     C
C      0.52596  0.88795  0.94866     C
H        0.531   0.2477   0.0426     H
H        0.531   0.2523   0.4574     H
C      0.53741  0.67994  0.58139     C
C      0.53741  0.82006  0.91861     C
Cu     0.54056  0.04056  0.97032    Cu
Cu     0.54056  0.45944  0.52968    Cu
O      0.55194  0.55585  0.43463     O
O      0.55194  0.94415  0.06537     O
H       0.5532   0.6062    0.973     H
H       0.5532   0.8938    0.527     H
O      0.55585  0.55194  0.56537     O
O      0.55585  0.94806  0.93463     O
C      0.55882  0.69054  0.86568     C
C      0.55882  0.80946  0.63432     C
H       0.5661   0.6467   0.8473     H
H       0.5661   0.8533   0.6527     H
C      0.58422  0.50977  0.04047     C
C      0.58422  0.99023  0.45953     C
C      0.58489  0.67964  0.62049     C
C      0.58489  0.82036  0.87951     C
C      0.58695  0.08695  0.40143     C
C      0.58695  0.41305  0.09857     C
C      0.59646  0.74428  0.64661     C
C      0.59646  0.75572  0.85339     C
H       0.6062   0.5532    0.027     H
H       0.6062   0.9468    0.473     H
H       0.6096   0.6349   0.6294     H
H       0.6096   0.8651   0.8706     H
C      0.61205  0.52596  0.44866     C
C      0.61205  0.97404  0.05134     C
C       0.6177  0.02357  0.42127     C
C       0.6177  0.47643  0.07873     C
O       0.6196   0.1196  0.36115     O
O       0.6196   0.3804  0.13885     O
O      0.62051  0.01205  0.01444     O
O      0.62051  0.48795  0.48556     O
H       0.6349   0.6096   0.3706     H
H       0.6349   0.8904   0.1294     H
H       0.6467   0.5661   0.1527     H
H       0.6467   0.9339   0.3473     H
H       0.6522    0.215   0.3898     H
H       0.6522    0.285   0.1102     H
C      0.65254  0.74515  0.68647     C
C      0.65254  0.75485  0.81353     C
O      0.66571  0.69299  0.79451     O
O      0.66571  0.80701  0.70549     O
C       0.6746   0.1746   0.3711     C
C       0.6746   0.3254   0.1289     C
Cu     0.67568     0.75     0.25    Cu
C      0.67964  0.58489  0.37951     C
C      0.67964  0.91511  0.12049     C
C      0.67994  0.53741  0.41861     C
C      0.67994  0.96259  0.08139     C
O      0.68158  0.68368  0.69681     O
O      0.68158  0.81632  0.80319     O
O      0.68368  0.68158  0.30319     O
O      0.68368  0.81842  0.19681     O
C      0.68886  0.51129  0.09584     C
C      0.68886  0.98871  0.40416     C
C      0.69054  0.55882  0.13432     C
C      0.69054  0.94118  0.36568     C
O      0.69299  0.66571  0.20549     O
O      0.69299  0.83429  0.29451     O
H       0.6944   0.1944   0.3411     H
H       0.6944   0.3056   0.1589     H
H        0.715   0.1522   0.3898     H
H        0.715   0.3478   0.1102     H
C      0.74428  0.59646  0.35339     C
C      0.74428  0.90354  0.14661     C
C      0.74515  0.65254  0.31353     C
C      0.74515  0.84746  0.18647     C
C      0.74671  0.50125  0.43051     C
C      0.74671  0.99875  0.06949     C
H       0.7477    0.031   0.0426     H
H       0.7477    0.469   0.4574     H
Cu        0.75  0.67568     0.75    Cu
Cu        0.75  0.82432     0.75    Cu
H       0.7523    0.031   0.4574     H
H       0.7523    0.469   0.0426     H
C      0.75329  0.50125  0.06949     C
C      0.75329  0.99875  0.43051     C
C      0.75485  0.65254  0.18647     C
C      0.75485  0.84746  0.31353     C
C      0.75572  0.59646  0.14661     C
C      0.75572  0.90354  0.35339     C
H        0.785   0.1522   0.1102     H
H        0.785   0.3478   0.3898     H
H       0.8056   0.1944   0.1589     H
H       0.8056   0.3056   0.3411     H
O      0.80701  0.66571  0.29451     O
O      0.80701  0.83429  0.20549     O
C      0.80946  0.55882  0.36568     C
C      0.80946  0.94118  0.13432     C
C      0.81114  0.51129  0.40416     C
C      0.81114  0.98871  0.09584     C
O      0.81632  0.68158  0.19681     O
O      0.81632  0.81842  0.30319     O
O      0.81842  0.68368  0.80319     O
O      0.81842  0.81632  0.69681     O
C      0.82006  0.53741  0.08139     C
C      0.82006  0.96259  0.41861     C
C      0.82036  0.58489  0.12049     C
C      0.82036  0.91511  0.37951     C
Cu     0.82432     0.75     0.25    Cu
C       0.8254   0.1746   0.1289     C
C       0.8254   0.3254   0.3711     C
O      0.83429  0.69299  0.70549     O
O      0.83429  0.80701  0.79451     O
C      0.84746  0.74515  0.81353     C
C      0.84746  0.75485  0.68647     C
H       0.8478    0.215   0.1102     H
H       0.8478    0.285   0.3898     H
H       0.8533   0.5661   0.3473     H
H       0.8533   0.9339   0.1527     H
H       0.8651   0.6096   0.1294     H
H       0.8651   0.8904   0.3706     H
O      0.87949  0.01205  0.48556     O
O      0.87949  0.48795  0.01444     O
O       0.8804   0.1196  0.13885     O
O       0.8804   0.3804  0.36115     O
C       0.8823  0.02357  0.07873     C
C       0.8823  0.47643  0.42127     C
C      0.88795  0.52596  0.05134     C
C      0.88795  0.97404  0.44866     C
H       0.8904   0.6349   0.8706     H
H       0.8904   0.8651   0.6294     H
H       0.8938   0.5532    0.473     H
H       0.8938   0.9468    0.027     H
C      0.90354  0.74428  0.85339     C
C      0.90354  0.75572  0.64661     C
C      0.91305  0.08695  0.09857     C
C      0.91305  0.41305  0.40143     C
C      0.91511  0.67964  0.87951     C
C      0.91511  0.82036  0.62049     C
C      0.91578  0.50977  0.45953     C
C      0.91578  0.99023  0.04047     C
H       0.9339   0.6467   0.6527     H
H       0.9339   0.8533   0.8473     H
C      0.94118  0.69054  0.63432     C
C      0.94118  0.80946  0.86568     C
O      0.94415  0.55194  0.93463     O
O      0.94415  0.94806  0.56537     O
H       0.9468   0.6062    0.527     H
H       0.9468   0.8938    0.973     H
O      0.94806  0.55585  0.06537     O
O      0.94806  0.94415  0.43463     O
Cu     0.95944  0.04056  0.52968    Cu
Cu     0.95944  0.45944  0.97032    Cu
C      0.96259  0.67994  0.91861     C
C      0.96259  0.82006  0.58139     C
H        0.969   0.2477   0.4574     H
H        0.969   0.2523   0.0426     H
C      0.97404  0.61205  0.94866     C
C      0.97404  0.88795  0.55134     C
C      0.97643   0.1177  0.07873     C
C      0.97643   0.3823  0.42127     C
C      0.98166  0.01834  0.02054     C
C      0.98166  0.48166  0.47946     C
O      0.98795  0.12051  0.48556     O
O      0.98795  0.37949  0.01444     O
C      0.98871  0.68886  0.59584     C
C      0.98871  0.81114  0.90416     C
C      0.99023  0.58422  0.54047     C
C      0.99023  0.91578  0.95953     C
C      0.99875  0.74671  0.93051     C
C      0.99875  0.75329  0.56949     C
