data_I
_chemical_name_common  '/home/zhangsd/repos/MofS-CGCNN/ML/data/SSD/clean_cifs/HULTEN_clean'
_cell_length_a  9.20300
_cell_length_b 15.77600
_cell_length_c 31.58700
_cell_angle_alpha 90.00000
_cell_angle_beta  90.00000
_cell_angle_gamma 90.00000
_space_group_name_H-M_alt      'P 1'


loop_
_space_group_symop_operation_xyz
  'x, y, z' 

loop_
_atom_site_label
_atom_site_fract_x
_atom_site_fract_y
_atom_site_fract_z
_atom_site_type_symbol
O       0.0128  0.04435  0.09228     O
O       0.0128  0.20565  0.15772     O
O       0.0128  0.54435  0.59228     O
O       0.0128  0.70565  0.65772     O
O       0.0221   0.3593  0.91892     O
O       0.0221   0.3907  0.83108     O
O       0.0221   0.8593  0.41892     O
O       0.0221   0.8907  0.33108     O
O       0.0525   0.3563  0.27112     O
O       0.0525   0.3937  0.47888     O
O       0.0525   0.8563  0.77112     O
O       0.0525   0.8937  0.97888     O
H        0.069    0.109    0.679     H
H        0.069    0.141    0.571     H
H        0.069    0.355   0.8943     H
H        0.069    0.395   0.8557     H
H        0.069    0.609    0.179     H
H        0.069    0.641    0.071     H
H        0.069    0.855   0.3943     H
H        0.069    0.895   0.3557     H
O       0.0787  0.02814  0.29649     O
O       0.0787  0.22186  0.95351     O
O       0.0787  0.52814  0.79649     O
O       0.0787  0.72186  0.45351     O
P      0.10185   0.3047  0.30866     P
P      0.10185   0.4453  0.44134     P
P      0.10185   0.8047  0.80866     P
P      0.10185   0.9453  0.94134     P
Zn       0.125    0.125    0.125    Zn
Zn       0.125    0.125  0.26072    Zn
Zn       0.125    0.125  0.98928    Zn
Zn       0.125    0.625  0.48928    Zn
Zn       0.125    0.625    0.625    Zn
Zn       0.125    0.625  0.76072    Zn
P      0.14815   0.3047  0.94134     P
P      0.14815   0.4453  0.80866     P
P      0.14815   0.8047  0.44134     P
P      0.14815   0.9453  0.30866     P
O       0.1713  0.02814  0.95351     O
O       0.1713  0.22186  0.29649     O
O       0.1713  0.52814  0.45351     O
O       0.1713  0.72186  0.79649     O
H        0.181    0.109    0.571     H
H        0.181    0.141    0.679     H
H        0.181    0.355   0.3557     H
H        0.181    0.395   0.3943     H
H        0.181    0.609    0.071     H
H        0.181    0.641    0.179     H
H        0.181    0.855   0.8557     H
H        0.181    0.895   0.8943     H
O       0.1975   0.3563  0.97888     O
O       0.1975   0.3937  0.77112     O
O       0.1975   0.8563  0.47888     O
O       0.1975   0.8937  0.27112     O
O       0.2279   0.3593  0.33108     O
O       0.2279   0.3907  0.41892     O
O       0.2279   0.8593  0.83108     O
O       0.2279   0.8907  0.91892     O
O       0.2372  0.04435  0.15772     O
O       0.2372  0.20565  0.09228     O
O       0.2372  0.54435  0.65772     O
O       0.2372  0.70565  0.59228     O
O       0.2628  0.29435  0.90772     O
O       0.2628  0.45565  0.84228     O
O       0.2628  0.79435  0.40772     O
O       0.2628  0.95565  0.34228     O
O       0.2721   0.1093  0.58108     O
O       0.2721   0.1407  0.66892     O
O       0.2721   0.6093  0.08108     O
O       0.2721   0.6407  0.16892     O
O       0.3025   0.1063  0.22888     O
O       0.3025   0.1437  0.02112     O
O       0.3025   0.6063  0.72888     O
O       0.3025   0.6437  0.52112     O
H        0.319    0.105   0.6057     H
H        0.319    0.145   0.6443     H
H        0.319    0.359    0.321     H
H        0.319    0.391    0.429     H
H        0.319    0.605   0.1057     H
H        0.319    0.645   0.1443     H
H        0.319    0.859    0.821     H
H        0.319    0.891    0.929     H
O       0.3287  0.27814  0.70351     O
O       0.3287  0.47186  0.04649     O
O       0.3287  0.77814  0.20351     O
O       0.3287  0.97186  0.54649     O
P      0.35185   0.0547  0.19134     P
P      0.35185   0.1953  0.05866     P
P      0.35185   0.5547  0.69134     P
P      0.35185   0.6953  0.55866     P
Zn       0.375    0.375  0.01072    Zn
Zn       0.375    0.375  0.73928    Zn
Zn       0.375    0.375    0.875    Zn
Zn       0.375    0.875  0.23928    Zn
Zn       0.375    0.875    0.375    Zn
Zn       0.375    0.875  0.51072    Zn
P      0.39815   0.0547  0.55866     P
P      0.39815   0.1953  0.69134     P
P      0.39815   0.5547  0.05866     P
P      0.39815   0.6953  0.19134     P
O       0.4213  0.27814  0.04649     O
O       0.4213  0.47186  0.70351     O
O       0.4213  0.77814  0.54649     O
O       0.4213  0.97186  0.20351     O
H        0.431    0.105   0.1443     H
H        0.431    0.145   0.1057     H
H        0.431    0.359    0.429     H
H        0.431    0.391    0.321     H
H        0.431    0.605   0.6443     H
H        0.431    0.645   0.6057     H
H        0.431    0.859    0.929     H
H        0.431    0.891    0.821     H
O       0.4475   0.1063  0.52112     O
O       0.4475   0.1437  0.72888     O
O       0.4475   0.6063  0.02112     O
O       0.4475   0.6437  0.22888     O
O       0.4779   0.1093  0.16892     O
O       0.4779   0.1407  0.08108     O
O       0.4779   0.6093  0.66892     O
O       0.4779   0.6407  0.58108     O
O       0.4872  0.29435  0.84228     O
O       0.4872  0.45565  0.90772     O
O       0.4872  0.79435  0.34228     O
O       0.4872  0.95565  0.40772     O
O       0.5128  0.04435  0.59228     O
O       0.5128  0.20565  0.65772     O
O       0.5128  0.54435  0.09228     O
O       0.5128  0.70565  0.15772     O
O       0.5221   0.3593  0.41892     O
O       0.5221   0.3907  0.33108     O
O       0.5221   0.8593  0.91892     O
O       0.5221   0.8907  0.83108     O
O       0.5525   0.3563  0.77112     O
O       0.5525   0.3937  0.97888     O
O       0.5525   0.8563  0.27112     O
O       0.5525   0.8937  0.47888     O
H        0.569    0.109    0.179     H
H        0.569    0.141    0.071     H
H        0.569    0.355   0.3943     H
H        0.569    0.395   0.3557     H
H        0.569    0.609    0.679     H
H        0.569    0.641    0.571     H
H        0.569    0.855   0.8943     H
H        0.569    0.895   0.8557     H
O       0.5787  0.02814  0.79649     O
O       0.5787  0.22186  0.45351     O
O       0.5787  0.52814  0.29649     O
O       0.5787  0.72186  0.95351     O
P      0.60185   0.3047  0.80866     P
P      0.60185   0.4453  0.94134     P
P      0.60185   0.8047  0.30866     P
P      0.60185   0.9453  0.44134     P
Zn       0.625    0.125  0.48928    Zn
Zn       0.625    0.125    0.625    Zn
Zn       0.625    0.125  0.76072    Zn
Zn       0.625    0.625    0.125    Zn
Zn       0.625    0.625  0.26072    Zn
Zn       0.625    0.625  0.98928    Zn
P      0.64815   0.3047  0.44134     P
P      0.64815   0.4453  0.30866     P
P      0.64815   0.8047  0.94134     P
P      0.64815   0.9453  0.80866     P
O       0.6713  0.02814  0.45351     O
O       0.6713  0.22186  0.79649     O
O       0.6713  0.52814  0.95351     O
O       0.6713  0.72186  0.29649     O
H        0.681    0.109    0.071     H
H        0.681    0.141    0.179     H
H        0.681    0.355   0.8557     H
H        0.681    0.395   0.8943     H
H        0.681    0.609    0.571     H
H        0.681    0.641    0.679     H
H        0.681    0.855   0.3557     H
H        0.681    0.895   0.3943     H
O       0.6975   0.3563  0.47888     O
O       0.6975   0.3937  0.27112     O
O       0.6975   0.8563  0.97888     O
O       0.6975   0.8937  0.77112     O
O       0.7279   0.3593  0.83108     O
O       0.7279   0.3907  0.91892     O
O       0.7279   0.8593  0.33108     O
O       0.7279   0.8907  0.41892     O
O       0.7372  0.04435  0.65772     O
O       0.7372  0.20565  0.59228     O
O       0.7372  0.54435  0.15772     O
O       0.7372  0.70565  0.09228     O
O       0.7628  0.29435  0.40772     O
O       0.7628  0.45565  0.34228     O
O       0.7628  0.79435  0.90772     O
O       0.7628  0.95565  0.84228     O
O       0.7721   0.1093  0.08108     O
O       0.7721   0.1407  0.16892     O
O       0.7721   0.6093  0.58108     O
O       0.7721   0.6407  0.66892     O
O       0.8025   0.1063  0.72888     O
O       0.8025   0.1437  0.52112     O
O       0.8025   0.6063  0.22888     O
O       0.8025   0.6437  0.02112     O
H        0.819    0.105   0.1057     H
H        0.819    0.145   0.1443     H
H        0.819    0.359    0.821     H
H        0.819    0.391    0.929     H
H        0.819    0.605   0.6057     H
H        0.819    0.645   0.6443     H
H        0.819    0.859    0.321     H
H        0.819    0.891    0.429     H
O       0.8287  0.27814  0.20351     O
O       0.8287  0.47186  0.54649     O
O       0.8287  0.77814  0.70351     O
O       0.8287  0.97186  0.04649     O
P      0.85185   0.0547  0.69134     P
P      0.85185   0.1953  0.55866     P
P      0.85185   0.5547  0.19134     P
P      0.85185   0.6953  0.05866     P
Zn       0.875    0.375  0.23928    Zn
Zn       0.875    0.375    0.375    Zn
Zn       0.875    0.375  0.51072    Zn
Zn       0.875    0.875  0.01072    Zn
Zn       0.875    0.875  0.73928    Zn
Zn       0.875    0.875    0.875    Zn
P      0.89815   0.0547  0.05866     P
P      0.89815   0.1953  0.19134     P
P      0.89815   0.5547  0.55866     P
P      0.89815   0.6953  0.69134     P
O       0.9213  0.27814  0.54649     O
O       0.9213  0.47186  0.20351     O
O       0.9213  0.77814  0.04649     O
O       0.9213  0.97186  0.70351     O
H        0.931    0.105   0.6443     H
H        0.931    0.145   0.6057     H
H        0.931    0.359    0.929     H
H        0.931    0.391    0.821     H
H        0.931    0.605   0.1443     H
H        0.931    0.645   0.1057     H
H        0.931    0.859    0.429     H
H        0.931    0.891    0.321     H
O       0.9475   0.1063  0.02112     O
O       0.9475   0.1437  0.22888     O
O       0.9475   0.6063  0.52112     O
O       0.9475   0.6437  0.72888     O
O       0.9779   0.1093  0.66892     O
O       0.9779   0.1407  0.58108     O
O       0.9779   0.6093  0.16892     O
O       0.9779   0.6407  0.08108     O
O       0.9872  0.29435  0.34228     O
O       0.9872  0.45565  0.40772     O
O       0.9872  0.79435  0.84228     O
O       0.9872  0.95565  0.90772     O
