data_I
_chemical_name_common  '/home/zhangsd/repos/MofS-CGCNN/ML/data/SSD/clean_cifs/HUMWIX_clean'
_cell_length_a 22.70980
_cell_length_b 22.70980
_cell_length_c 22.70980
_cell_angle_alpha 90.00000
_cell_angle_beta  90.00000
_cell_angle_gamma 90.00000
_space_group_name_H-M_alt      'P 1'


loop_
_space_group_symop_operation_xyz
  'x, y, z' 

loop_
_atom_site_label
_atom_site_fract_x
_atom_site_fract_y
_atom_site_fract_z
_atom_site_type_symbol
Mn         0.0   0.3886      0.5    Mn
Mn         0.0      0.5   0.3886    Mn
Cl         0.0      0.5      0.5    Cl
Cu         0.0      0.5   0.6114    Cu
Cu         0.0   0.6114      0.5    Cu
H       0.0433   0.3008   0.6243     H
H       0.0433   0.3757   0.3008     H
H       0.0433   0.6243   0.6992     H
H       0.0433   0.6992   0.3757     H
O      0.05242  0.36914  0.43359     O
O      0.05242  0.43359  0.63086     O
O      0.05242  0.56641  0.36914     O
O      0.05242  0.63086  0.56641     O
H       0.0579   0.2638   0.6807     H
H       0.0579   0.3193   0.2638     H
H       0.0579   0.6807   0.7362     H
H       0.0579   0.7362   0.3193     H
O      0.06952   0.3799  0.54934     O
O      0.06952  0.45066   0.3799     O
O      0.06952  0.54934   0.6201     O
O      0.06952   0.6201  0.45066     O
C        0.072    0.276   0.6428     C
C        0.072   0.3572    0.276     C
C        0.072   0.6428    0.724     C
C        0.072    0.724   0.3572     C
H       0.0788   0.2419   0.6187     H
H       0.0788   0.3813   0.2419     H
H       0.0788   0.6187   0.7581     H
H       0.0788   0.7581   0.3813     H
C      0.08111   0.3975   0.3977     C
C      0.08111   0.3977   0.6025     C
C      0.08111   0.6023   0.3975     C
C      0.08111   0.6025   0.6023     C
C       0.1295   0.3099   0.6502     C
C       0.1295   0.3498   0.3099     C
C       0.1295   0.6502   0.6901     C
C       0.1295   0.6901   0.3498     C
C        0.133   0.3685   0.3689     C
C        0.133   0.3689   0.6315     C
C        0.133   0.6311   0.3685     C
C        0.133   0.6315   0.6311     C
H       0.1511   0.1994   0.6668     H
H       0.1511   0.3332   0.1994     H
H       0.1511   0.6668   0.8006     H
H       0.1511   0.8006   0.3332     H
H       0.1526   0.4077   0.4735     H
H       0.1526   0.4735   0.5923     H
H       0.1526   0.5265   0.4077     H
H       0.1526   0.5923   0.5265     H
H       0.1534    0.219   0.7329     H
H       0.1534   0.2671    0.219     H
H       0.1534   0.7329    0.781     H
H       0.1534    0.781   0.2671     H
C       0.1732   0.2209   0.6956     C
C       0.1732   0.3044   0.2209     C
C       0.1732   0.6956   0.7791     C
C       0.1732   0.7791   0.3044     C
C       0.1788   0.2847   0.6765     C
C       0.1788   0.3235   0.2847     C
C       0.1788   0.6765   0.7153     C
C       0.1788   0.7153   0.3235     C
C       0.1846   0.3621   0.4018     C
C       0.1846   0.4018   0.6379     C
C       0.1846   0.5982   0.3621     C
C       0.1846   0.6379   0.5982     C
C       0.1874   0.3851   0.4652     C
C       0.1874   0.4652   0.6149     C
C       0.1874   0.5348   0.3851     C
C       0.1874   0.6149   0.5348     C
H       0.1898   0.3525   0.4919     H
H       0.1898   0.4919   0.6475     H
H       0.1898   0.5081   0.3525     H
H       0.1898   0.6475   0.5081     H
H       0.1994   0.1511   0.3332     H
H       0.1994   0.3332   0.8489     H
H       0.1994   0.6668   0.1511     H
H       0.1994   0.8489   0.6668     H
H       0.2039   0.2118   0.3007     H
H       0.2039   0.3007   0.7882     H
H       0.2039   0.6993   0.2118     H
H       0.2039   0.7882   0.6993     H
H       0.2118   0.2039   0.6993     H
H       0.2118   0.3007   0.2039     H
H       0.2118   0.6993   0.7961     H
H       0.2118   0.7961   0.3007     H
H        0.219   0.1534   0.2671     H
H        0.219   0.2671   0.8466     H
H        0.219   0.7329   0.1534     H
H        0.219   0.8466   0.7329     H
C       0.2209   0.1732   0.3044     C
C       0.2209   0.3044   0.8268     C
C       0.2209   0.6956   0.1732     C
C       0.2209   0.8268   0.6956     C
H       0.2215   0.4096   0.4698     H
H       0.2215   0.4698   0.5904     H
H       0.2215   0.5302   0.4096     H
H       0.2215   0.5904   0.5302     H
C      0.23028   0.3151    0.316     C
C      0.23028    0.316   0.6849     C
C      0.23028    0.684   0.3151     C
C      0.23028   0.6849    0.684     C
C       0.2328   0.3341   0.3773     C
C       0.2328   0.3773   0.6659     C
C       0.2328   0.6227   0.3341     C
C       0.2328   0.6659   0.6227     C
H       0.2419   0.0788   0.3813     H
H       0.2419   0.3813   0.9212     H
H       0.2419   0.6187   0.0788     H
H       0.2419   0.9212   0.6187     H
H       0.2638   0.0579   0.3193     H
H       0.2638   0.3193   0.9421     H
H       0.2638   0.6807   0.0579     H
H       0.2638   0.9421   0.6807     H
H       0.2671   0.1534    0.781     H
H       0.2671    0.219   0.1534     H
H       0.2671    0.781   0.8466     H
H       0.2671   0.8466    0.219     H
C        0.276    0.072   0.3572     C
C        0.276   0.3572    0.928     C
C        0.276   0.6428    0.072     C
C        0.276    0.928   0.6428     C
H       0.2779   0.3328   0.4554     H
H       0.2779   0.4554   0.6672     H
H       0.2779   0.5446   0.3328     H
H       0.2779   0.6672   0.5446     H
H        0.283   0.2984   0.5877     H
H        0.283   0.4123   0.2984     H
H        0.283   0.5877   0.7016     H
H        0.283   0.7016   0.4123     H
C       0.2847   0.1788   0.3235     C
C       0.2847   0.3235   0.8212     C
C       0.2847   0.6765   0.1788     C
C       0.2847   0.8212   0.6765     C
B       0.2866   0.2866   0.2866     B
B       0.2866   0.2866   0.7134     B
B       0.2866   0.7134   0.2866     B
B       0.2866   0.7134   0.7134     B
C       0.2869   0.3235   0.4152     C
C       0.2869   0.4152   0.6765     C
C       0.2869   0.5848   0.3235     C
C       0.2869   0.6765   0.5848     C
H       0.2984    0.283   0.4123     H
H       0.2984   0.4123    0.717     H
H       0.2984   0.5877    0.283     H
H       0.2984    0.717   0.5877     H
H       0.3007   0.2039   0.2118     H
H       0.3007   0.2118   0.7961     H
H       0.3007   0.7882   0.2039     H
H       0.3007   0.7961   0.7882     H
H       0.3008   0.0433   0.3757     H
H       0.3008   0.3757   0.9567     H
H       0.3008   0.6243   0.0433     H
H       0.3008   0.9567   0.6243     H
C       0.3044   0.1732   0.7791     C
C       0.3044   0.2209   0.1732     C
C       0.3044   0.7791   0.8268     C
C       0.3044   0.8268   0.2209     C
C       0.3099   0.1295   0.3498     C
C       0.3099   0.3498   0.8705     C
C       0.3099   0.6502   0.1295     C
C       0.3099   0.8705   0.6502     C
C       0.3151  0.23028    0.684     C
C       0.3151    0.316  0.23028     C
C       0.3151    0.684  0.76972     C
C       0.3151  0.76972    0.316     C
C        0.316  0.23028   0.3151     C
C        0.316   0.3151  0.76972     C
C        0.316   0.6849  0.23028     C
C        0.316  0.76972   0.6849     C
H       0.3185   0.3481   0.4018     H
H       0.3185   0.4018   0.6519     H
H       0.3185   0.5982   0.3481     H
H       0.3185   0.6519   0.5982     H
H       0.3193   0.0579   0.7362     H
H       0.3193   0.2638   0.0579     H
H       0.3193   0.7362   0.9421     H
H       0.3193   0.9421   0.2638     H
C       0.3235   0.1788   0.7153     C
C       0.3235   0.2847   0.1788     C
C       0.3235   0.2869   0.5848     C
C       0.3235   0.4152   0.2869     C
C       0.3235   0.5848   0.7131     C
C       0.3235   0.7131   0.4152     C
C       0.3235   0.7153   0.8212     C
C       0.3235   0.8212   0.2847     C
H       0.3328   0.2779   0.5446     H
H       0.3328   0.4554   0.2779     H
H       0.3328   0.5446   0.7221     H
H       0.3328   0.7221   0.4554     H
H       0.3332   0.1511   0.8006     H
H       0.3332   0.1994   0.1511     H
H       0.3332   0.8006   0.8489     H
H       0.3332   0.8489   0.1994     H
C       0.3341   0.2328   0.6227     C
C       0.3341   0.3773   0.2328     C
C       0.3341   0.6227   0.7672     C
C       0.3341   0.7672   0.3773     C
H       0.3481   0.3185   0.5982     H
H       0.3481   0.4018   0.3185     H
H       0.3481   0.5982   0.6815     H
H       0.3481   0.6815   0.4018     H
C       0.3498   0.1295   0.6901     C
C       0.3498   0.3099   0.1295     C
C       0.3498   0.6901   0.8705     C
C       0.3498   0.8705   0.3099     C
H       0.3525   0.1898   0.5081     H
H       0.3525   0.4919   0.1898     H
H       0.3525   0.5081   0.8102     H
H       0.3525   0.8102   0.4919     H
C       0.3572    0.072    0.724     C
C       0.3572    0.276    0.072     C
C       0.3572    0.724    0.928     C
C       0.3572    0.928    0.276     C
C       0.3621   0.1846   0.5982     C
C       0.3621   0.4018   0.1846     C
C       0.3621   0.5982   0.8154     C
C       0.3621   0.8154   0.4018     C
C       0.3685    0.133   0.6311     C
C       0.3685   0.3689    0.133     C
C       0.3685   0.6311    0.867     C
C       0.3685    0.867   0.3689     C
C       0.3689    0.133   0.3685     C
C       0.3689   0.3685    0.867     C
C       0.3689   0.6315    0.133     C
C       0.3689    0.867   0.6315     C
O      0.36914  0.05242  0.56641     O
O      0.36914  0.43359  0.05242     O
O      0.36914  0.56641  0.94758     O
O      0.36914  0.94758  0.43359     O
H       0.3757   0.0433   0.6992     H
H       0.3757   0.3008   0.0433     H
H       0.3757   0.6992   0.9567     H
H       0.3757   0.9567   0.3008     H
C       0.3773   0.2328   0.3341     C
C       0.3773   0.3341   0.7672     C
C       0.3773   0.6659   0.2328     C
C       0.3773   0.7672   0.6659     C
O       0.3799  0.06952  0.45066     O
O       0.3799  0.45066  0.93048     O
O       0.3799  0.54934  0.06952     O
O       0.3799  0.93048  0.54934     O
H       0.3813   0.0788   0.7581     H
H       0.3813   0.2419   0.0788     H
H       0.3813   0.7581   0.9212     H
H       0.3813   0.9212   0.2419     H
C       0.3851   0.1874   0.5348     C
C       0.3851   0.4652   0.1874     C
C       0.3851   0.5348   0.8126     C
C       0.3851   0.8126   0.4652     C
Mn      0.3886      0.0      0.5    Mn
Mn      0.3886      0.5      0.0    Mn
C       0.3975  0.08111   0.6023     C
C       0.3975   0.3977  0.08111     C
C       0.3975   0.6023  0.91889     C
C       0.3975  0.91889   0.3977     C
C       0.3977  0.08111   0.3975     C
C       0.3977   0.3975  0.91889     C
C       0.3977   0.6025  0.08111     C
C       0.3977  0.91889   0.6025     C
C       0.4018   0.1846   0.3621     C
H       0.4018   0.3185   0.3481     H
H       0.4018   0.3481   0.6815     H
C       0.4018   0.3621   0.8154     C
C       0.4018   0.6379   0.1846     C
H       0.4018   0.6519   0.3185     H
H       0.4018   0.6815   0.6519     H
C       0.4018   0.8154   0.6379     C
H       0.4077   0.1526   0.5265     H
H       0.4077   0.4735   0.1526     H
H       0.4077   0.5265   0.8474     H
H       0.4077   0.8474   0.4735     H
H       0.4096   0.2215   0.5302     H
H       0.4096   0.4698   0.2215     H
H       0.4096   0.5302   0.7785     H
H       0.4096   0.7785   0.4698     H
H       0.4123    0.283   0.7016     H
H       0.4123   0.2984    0.283     H
H       0.4123   0.7016    0.717     H
H       0.4123    0.717   0.2984     H
C       0.4152   0.2869   0.3235     C
C       0.4152   0.3235   0.7131     C
C       0.4152   0.6765   0.2869     C
C       0.4152   0.7131   0.6765     C
O      0.43359  0.05242  0.36914     O
O      0.43359  0.36914  0.94758     O
O      0.43359  0.63086  0.05242     O
O      0.43359  0.94758  0.63086     O
O      0.45066  0.06952   0.6201     O
O      0.45066   0.3799  0.06952     O
O      0.45066   0.6201  0.93048     O
O      0.45066  0.93048   0.3799     O
H       0.4554   0.2779   0.3328     H
H       0.4554   0.3328   0.7221     H
H       0.4554   0.6672   0.2779     H
H       0.4554   0.7221   0.6672     H
C       0.4652   0.1874   0.3851     C
C       0.4652   0.3851   0.8126     C
C       0.4652   0.6149   0.1874     C
C       0.4652   0.8126   0.6149     C
H       0.4698   0.2215   0.4096     H
H       0.4698   0.4096   0.7785     H
H       0.4698   0.5904   0.2215     H
H       0.4698   0.7785   0.5904     H
H       0.4735   0.1526   0.4077     H
H       0.4735   0.4077   0.8474     H
H       0.4735   0.5923   0.1526     H
H       0.4735   0.8474   0.5923     H
H       0.4919   0.1898   0.3525     H
H       0.4919   0.3525   0.8102     H
H       0.4919   0.6475   0.1898     H
H       0.4919   0.8102   0.6475     H
Cu         0.5      0.0   0.3886    Cu
Cl         0.5      0.0      0.5    Cl
Mn         0.5      0.0   0.6114    Mn
Mn         0.5   0.3886      0.0    Mn
Cl         0.5      0.5      0.0    Cl
Cu         0.5   0.6114      0.0    Cu
H       0.5081   0.1898   0.6475     H
H       0.5081   0.3525   0.1898     H
H       0.5081   0.6475   0.8102     H
H       0.5081   0.8102   0.3525     H
H       0.5265   0.1526   0.5923     H
H       0.5265   0.4077   0.1526     H
H       0.5265   0.5923   0.8474     H
H       0.5265   0.8474   0.4077     H
H       0.5302   0.2215   0.5904     H
H       0.5302   0.4096   0.2215     H
H       0.5302   0.5904   0.7785     H
H       0.5302   0.7785   0.4096     H
C       0.5348   0.1874   0.6149     C
C       0.5348   0.3851   0.1874     C
C       0.5348   0.6149   0.8126     C
C       0.5348   0.8126   0.3851     C
H       0.5446   0.2779   0.6672     H
H       0.5446   0.3328   0.2779     H
H       0.5446   0.6672   0.7221     H
H       0.5446   0.7221   0.3328     H
O      0.54934  0.06952   0.3799     O
O      0.54934   0.3799  0.93048     O
O      0.54934   0.6201  0.06952     O
O      0.54934  0.93048   0.6201     O
O      0.56641  0.05242  0.63086     O
O      0.56641  0.36914  0.05242     O
O      0.56641  0.63086  0.94758     O
O      0.56641  0.94758  0.36914     O
C       0.5848   0.2869   0.6765     C
C       0.5848   0.3235   0.2869     C
C       0.5848   0.6765   0.7131     C
C       0.5848   0.7131   0.3235     C
H       0.5877    0.283   0.2984     H
H       0.5877   0.2984    0.717     H
H       0.5877   0.7016    0.283     H
H       0.5877    0.717   0.7016     H
H       0.5904   0.2215   0.4698     H
H       0.5904   0.4698   0.7785     H
H       0.5904   0.5302   0.2215     H
H       0.5904   0.7785   0.5302     H
H       0.5923   0.1526   0.4735     H
H       0.5923   0.4735   0.8474     H
H       0.5923   0.5265   0.1526     H
H       0.5923   0.8474   0.5265     H
C       0.5982   0.1846   0.6379     C
H       0.5982   0.3185   0.6519     H
H       0.5982   0.3481   0.3185     H
C       0.5982   0.3621   0.1846     C
C       0.5982   0.6379   0.8154     C
H       0.5982   0.6519   0.6815     H
H       0.5982   0.6815   0.3481     H
C       0.5982   0.8154   0.3621     C
C       0.6023  0.08111   0.6025     C
C       0.6023   0.3975  0.08111     C
C       0.6023   0.6025  0.91889     C
C       0.6023  0.91889   0.3975     C
C       0.6025  0.08111   0.3977     C
C       0.6025   0.3977  0.91889     C
C       0.6025   0.6023  0.08111     C
C       0.6025  0.91889   0.6023     C
Cu      0.6114      0.0      0.5    Cu
Cu      0.6114      0.5      0.0    Cu
C       0.6149   0.1874   0.4652     C
C       0.6149   0.4652   0.8126     C
C       0.6149   0.5348   0.1874     C
C       0.6149   0.8126   0.5348     C
H       0.6187   0.0788   0.2419     H
H       0.6187   0.2419   0.9212     H
H       0.6187   0.7581   0.0788     H
H       0.6187   0.9212   0.7581     H
O       0.6201  0.06952  0.54934     O
O       0.6201  0.45066  0.06952     O
O       0.6201  0.54934  0.93048     O
O       0.6201  0.93048  0.45066     O
C       0.6227   0.2328   0.6659     C
C       0.6227   0.3341   0.2328     C
C       0.6227   0.6659   0.7672     C
C       0.6227   0.7672   0.3341     C
H       0.6243   0.0433   0.3008     H
H       0.6243   0.3008   0.9567     H
H       0.6243   0.6992   0.0433     H
H       0.6243   0.9567   0.6992     H
O      0.63086  0.05242  0.43359     O
O      0.63086  0.43359  0.94758     O
O      0.63086  0.56641  0.05242     O
O      0.63086  0.94758  0.56641     O
C       0.6311    0.133   0.6315     C
C       0.6311   0.3685    0.133     C
C       0.6311   0.6315    0.867     C
C       0.6311    0.867   0.3685     C
C       0.6315    0.133   0.3689     C
C       0.6315   0.3689    0.867     C
C       0.6315   0.6311    0.133     C
C       0.6315    0.867   0.6311     C
C       0.6379   0.1846   0.4018     C
C       0.6379   0.4018   0.8154     C
C       0.6379   0.5982   0.1846     C
C       0.6379   0.8154   0.5982     C
C       0.6428    0.072    0.276     C
C       0.6428    0.276    0.928     C
C       0.6428    0.724    0.072     C
C       0.6428    0.928    0.724     C
H       0.6475   0.1898   0.4919     H
H       0.6475   0.4919   0.8102     H
H       0.6475   0.5081   0.1898     H
H       0.6475   0.8102   0.5081     H
C       0.6502   0.1295   0.3099     C
C       0.6502   0.3099   0.8705     C
C       0.6502   0.6901   0.1295     C
C       0.6502   0.8705   0.6901     C
H       0.6519   0.3185   0.4018     H
H       0.6519   0.4018   0.6815     H
H       0.6519   0.5982   0.3185     H
H       0.6519   0.6815   0.5982     H
C       0.6659   0.2328   0.3773     C
C       0.6659   0.3773   0.7672     C
C       0.6659   0.6227   0.2328     C
C       0.6659   0.7672   0.6227     C
H       0.6668   0.1511   0.1994     H
H       0.6668   0.1994   0.8489     H
H       0.6668   0.8006   0.1511     H
H       0.6668   0.8489   0.8006     H
H       0.6672   0.2779   0.4554     H
H       0.6672   0.4554   0.7221     H
H       0.6672   0.5446   0.2779     H
H       0.6672   0.7221   0.5446     H
C       0.6765   0.1788   0.2847     C
C       0.6765   0.2847   0.8212     C
C       0.6765   0.2869   0.4152     C
C       0.6765   0.4152   0.7131     C
C       0.6765   0.5848   0.2869     C
C       0.6765   0.7131   0.5848     C
C       0.6765   0.7153   0.1788     C
C       0.6765   0.8212   0.7153     C
H       0.6807   0.0579   0.2638     H
H       0.6807   0.2638   0.9421     H
H       0.6807   0.7362   0.0579     H
H       0.6807   0.9421   0.7362     H
H       0.6815   0.3481   0.5982     H
H       0.6815   0.4018   0.3481     H
H       0.6815   0.5982   0.6519     H
H       0.6815   0.6519   0.4018     H
C        0.684  0.23028   0.6849     C
C        0.684   0.3151  0.23028     C
C        0.684   0.6849  0.76972     C
C        0.684  0.76972   0.3151     C
C       0.6849  0.23028    0.316     C
C       0.6849    0.316  0.76972     C
C       0.6849    0.684  0.23028     C
C       0.6849  0.76972    0.684     C
C       0.6901   0.1295   0.6502     C
C       0.6901   0.3498   0.1295     C
C       0.6901   0.6502   0.8705     C
C       0.6901   0.8705   0.3498     C
C       0.6956   0.1732   0.2209     C
C       0.6956   0.2209   0.8268     C
C       0.6956   0.7791   0.1732     C
C       0.6956   0.8268   0.7791     C
H       0.6992   0.0433   0.6243     H
H       0.6992   0.3757   0.0433     H
H       0.6992   0.6243   0.9567     H
H       0.6992   0.9567   0.3757     H
H       0.6993   0.2039   0.7882     H
H       0.6993   0.2118   0.2039     H
H       0.6993   0.7882   0.7961     H
H       0.6993   0.7961   0.2118     H
H       0.7016    0.283   0.5877     H
H       0.7016   0.4123    0.283     H
H       0.7016   0.5877    0.717     H
H       0.7016    0.717   0.4123     H
C       0.7131   0.3235   0.5848     C
C       0.7131   0.4152   0.3235     C
C       0.7131   0.5848   0.6765     C
C       0.7131   0.6765   0.4152     C
B       0.7134   0.2866   0.2866     B
B       0.7134   0.2866   0.7134     B
B       0.7134   0.7134   0.2866     B
B       0.7134   0.7134   0.7134     B
C       0.7153   0.1788   0.6765     C
C       0.7153   0.3235   0.1788     C
C       0.7153   0.6765   0.8212     C
C       0.7153   0.8212   0.3235     C
H        0.717   0.2984   0.4123     H
H        0.717   0.4123   0.7016     H
H        0.717   0.5877   0.2984     H
H        0.717   0.7016   0.5877     H
H       0.7221   0.3328   0.5446     H
H       0.7221   0.4554   0.3328     H
H       0.7221   0.5446   0.6672     H
H       0.7221   0.6672   0.4554     H
C        0.724    0.072   0.6428     C
C        0.724   0.3572    0.072     C
C        0.724   0.6428    0.928     C
C        0.724    0.928   0.3572     C
H       0.7329   0.1534    0.219     H
H       0.7329    0.219   0.8466     H
H       0.7329    0.781   0.1534     H
H       0.7329   0.8466    0.781     H
H       0.7362   0.0579   0.6807     H
H       0.7362   0.3193   0.0579     H
H       0.7362   0.6807   0.9421     H
H       0.7362   0.9421   0.3193     H
H       0.7581   0.0788   0.6187     H
H       0.7581   0.3813   0.0788     H
H       0.7581   0.6187   0.9212     H
H       0.7581   0.9212   0.3813     H
C       0.7672   0.3341   0.6227     C
C       0.7672   0.3773   0.3341     C
C       0.7672   0.6227   0.6659     C
C       0.7672   0.6659   0.3773     C
C      0.76972   0.3151    0.684     C
C      0.76972    0.316   0.3151     C
C      0.76972    0.684   0.6849     C
C      0.76972   0.6849    0.316     C
H       0.7785   0.4096   0.5302     H
H       0.7785   0.4698   0.4096     H
H       0.7785   0.5302   0.5904     H
H       0.7785   0.5904   0.4698     H
C       0.7791   0.1732   0.6956     C
C       0.7791   0.3044   0.1732     C
C       0.7791   0.6956   0.8268     C
C       0.7791   0.8268   0.3044     C
H        0.781   0.1534   0.7329     H
H        0.781   0.2671   0.1534     H
H        0.781   0.7329   0.8466     H
H        0.781   0.8466   0.2671     H
H       0.7882   0.2039   0.3007     H
H       0.7882   0.3007   0.7961     H
H       0.7882   0.6993   0.2039     H
H       0.7882   0.7961   0.6993     H
H       0.7961   0.2118   0.6993     H
H       0.7961   0.3007   0.2118     H
H       0.7961   0.6993   0.7882     H
H       0.7961   0.7882   0.3007     H
H       0.8006   0.1511   0.6668     H
H       0.8006   0.3332   0.1511     H
H       0.8006   0.6668   0.8489     H
H       0.8006   0.8489   0.3332     H
H       0.8102   0.3525   0.5081     H
H       0.8102   0.4919   0.3525     H
H       0.8102   0.5081   0.6475     H
H       0.8102   0.6475   0.4919     H
C       0.8126   0.3851   0.5348     C
C       0.8126   0.4652   0.3851     C
C       0.8126   0.5348   0.6149     C
C       0.8126   0.6149   0.4652     C
C       0.8154   0.3621   0.5982     C
C       0.8154   0.4018   0.3621     C
C       0.8154   0.5982   0.6379     C
C       0.8154   0.6379   0.4018     C
C       0.8212   0.2847   0.3235     C
C       0.8212   0.3235   0.7153     C
C       0.8212   0.6765   0.2847     C
C       0.8212   0.7153   0.6765     C
C       0.8268   0.2209   0.3044     C
C       0.8268   0.3044   0.7791     C
C       0.8268   0.6956   0.2209     C
C       0.8268   0.7791   0.6956     C
H       0.8466    0.219   0.2671     H
H       0.8466   0.2671    0.781     H
H       0.8466   0.7329    0.219     H
H       0.8466    0.781   0.7329     H
H       0.8474   0.4077   0.5265     H
H       0.8474   0.4735   0.4077     H
H       0.8474   0.5265   0.5923     H
H       0.8474   0.5923   0.4735     H
H       0.8489   0.1994   0.3332     H
H       0.8489   0.3332   0.8006     H
H       0.8489   0.6668   0.1994     H
H       0.8489   0.8006   0.6668     H
C        0.867   0.3685   0.6311     C
C        0.867   0.3689   0.3685     C
C        0.867   0.6311   0.6315     C
C        0.867   0.6315   0.3689     C
C       0.8705   0.3099   0.3498     C
C       0.8705   0.3498   0.6901     C
C       0.8705   0.6502   0.3099     C
C       0.8705   0.6901   0.6502     C
C      0.91889   0.3975   0.6023     C
C      0.91889   0.3977   0.3975     C
C      0.91889   0.6023   0.6025     C
C      0.91889   0.6025   0.3977     C
H       0.9212   0.2419   0.3813     H
H       0.9212   0.3813   0.7581     H
H       0.9212   0.6187   0.2419     H
H       0.9212   0.7581   0.6187     H
C        0.928    0.276   0.3572     C
C        0.928   0.3572    0.724     C
C        0.928   0.6428    0.276     C
C        0.928    0.724   0.6428     C
O      0.93048   0.3799  0.45066     O
O      0.93048  0.45066   0.6201     O
O      0.93048  0.54934   0.3799     O
O      0.93048   0.6201  0.54934     O
H       0.9421   0.2638   0.3193     H
H       0.9421   0.3193   0.7362     H
H       0.9421   0.6807   0.2638     H
H       0.9421   0.7362   0.6807     H
O      0.94758  0.36914  0.56641     O
O      0.94758  0.43359  0.36914     O
O      0.94758  0.56641  0.63086     O
O      0.94758  0.63086  0.43359     O
H       0.9567   0.3008   0.3757     H
H       0.9567   0.3757   0.6992     H
H       0.9567   0.6243   0.3008     H
H       0.9567   0.6992   0.6243     H
