data_I
_chemical_name_common  '/home/zhangsd/repos/MofS-CGCNN/ML/data/SSD/clean_cifs/HUYXUV_clean'
_cell_length_a 17.88400
_cell_length_b 11.79700
_cell_length_c 20.24300
_cell_angle_alpha 90.00000
_cell_angle_beta  111.77000
_cell_angle_gamma 90.00000
_space_group_name_H-M_alt      'P 1'


loop_
_space_group_symop_operation_xyz
  'x, y, z' 

loop_
_atom_site_label
_atom_site_fract_x
_atom_site_fract_y
_atom_site_fract_z
_atom_site_type_symbol
H       0.0016   0.5264   0.6479     H
H       0.0016   0.9736   0.1479     H
H       0.0042   0.0848   0.6592     H
H       0.0042   0.4152   0.1592     H
H       0.0137   0.1746   0.3333     H
H       0.0137   0.2487    0.001     H
H       0.0137   0.2513    0.501     H
H       0.0137   0.3254   0.8333     H
C       0.0282   0.7156   0.7483     C
C       0.0282   0.7844   0.2483     C
C       0.0304   0.6052   0.4197     C
C       0.0304   0.8948   0.9197     C
C        0.031   0.7182   0.1925     C
C        0.031   0.7818   0.6925     C
C       0.0401   0.5244   0.3739     C
C       0.0401   0.9756   0.8739     C
C       0.0445   0.2096    0.732     C
C       0.0445   0.2904    0.232     C
C       0.0449   0.1132    0.065     C
C       0.0449   0.3868    0.565     C
C       0.0487   0.1304   0.6823     C
C       0.0487   0.3696   0.1823     C
C        0.055   0.1967   0.0213     C
C        0.055   0.3033   0.5213     C
H       0.0895   0.7348   0.4812     H
H       0.0895   0.7652   0.9812     H
C       0.0939   0.6794   0.4502     C
C       0.0939   0.8206   0.9502     C
C       0.0975    0.653   0.7846     C
C       0.0975    0.847   0.2846     C
H       0.0976   0.6699   0.1364     H
H       0.0976   0.8301   0.6364     H
C       0.0978   0.7152    0.174     C
C       0.0978   0.7848    0.674     C
H       0.0986   0.6089    0.823     H
H       0.0986   0.8911    0.323     H
H        0.105   0.5177   0.6247     H
H        0.105   0.9823   0.1247     H
C       0.1088   0.0392   0.0942     C
C       0.1088   0.4608   0.5942     C
C       0.1098   0.5171   0.3596     C
C       0.1098   0.9829   0.8596     C
H       0.1107   0.1677   0.2962     H
H       0.1107   0.3323   0.7962     H
C       0.1119   0.2225   0.2636     C
C       0.1119   0.2775   0.7636     C
H       0.1146   0.0379   0.8284     H
H       0.1146   0.4621   0.3284     H
C        0.117   0.1179   0.6667     C
C        0.117   0.3821   0.1667     C
H       0.1182   0.0643   0.6334     H
H       0.1182   0.4357   0.1334     H
C       0.1236   0.2058   0.0069     C
C       0.1236   0.2942   0.5069     C
H       0.1281   0.2366   0.4772     H
H       0.1281   0.2634   0.9772     H
C       0.1635   0.6738   0.4361     C
C       0.1635   0.8262   0.9361     C
C       0.1639   0.6534   0.7662     C
C       0.1639   0.8466   0.2662     C
C       0.1648    0.721   0.7112     C
C       0.1648    0.779   0.2112     C
C       0.1717   0.5911   0.3915     C
C       0.1717   0.9089   0.8915     C
C       0.1782   0.0476   0.0794     C
C       0.1782   0.4524   0.5794     C
C       0.1805   0.2337   0.2482     C
C       0.1805   0.2663   0.7482     C
C       0.1834   0.1849   0.7004     C
C       0.1834   0.3151   0.2004     C
C       0.1855   0.1311   0.0357     C
C       0.1855   0.3689   0.5357     C
H       0.2037   0.6829   0.0996     H
H       0.2037   0.8171   0.5996     H
H       0.2047   0.7259   0.4566     H
H       0.2047   0.7741   0.9566     H
H       0.2081   0.6082   0.7907     H
H       0.2081   0.8918   0.2907     H
H       0.2095   0.5235   0.2742     H
H       0.2095   0.9765   0.7742     H
H       0.2183   0.2296   0.9238     H
H       0.2183   0.2704   0.4238     H
H       0.2199   0.5038   0.5993     H
H       0.2199   0.9962   0.0993     H
H       0.2205   0.0728   0.5926     H
H       0.2205   0.4272   0.0926     H
H       0.2246   0.1866   0.2699     H
H       0.2246   0.3134   0.7699     H
N       0.2349   0.7251   0.6928     N
N       0.2349   0.7749   0.1928     N
C       0.2436   0.7212    0.136     C
C       0.2436   0.7788    0.636     C
N       0.2442   0.5847   0.3766     N
N       0.2442   0.9153   0.8766     N
C       0.2512   0.5474   0.3152     C
C       0.2512   0.9526   0.8152     C
N       0.2558   0.1656   0.6863     N
N       0.2558   0.3344   0.1863     N
N       0.2564   0.1406   0.0182     N
N       0.2564   0.3594   0.5182     N
C       0.2605    0.194   0.9597     C
C       0.2605    0.306   0.4597     C
C       0.2625   0.1043   0.6306     C
C       0.2625   0.3957   0.1306     C
C       0.3082    0.681   0.7312     C
C       0.3082    0.819   0.2312     C
C       0.3188   0.6076   0.4219     C
C       0.3188   0.8924   0.9219     C
H       0.3191   0.6392   0.7727     H
H       0.3191   0.8608   0.2727     H
C       0.3207   0.7343   0.1429     C
C       0.3207   0.7657   0.6429     C
C       0.3298   0.5519   0.3255     C
C       0.3298   0.9481   0.8255     C
C       0.3312    0.102   0.0551     C
C       0.3312    0.398   0.5551     C
H       0.3312   0.6333   0.4681     H
H       0.3312   0.8667   0.9681     H
C       0.3318   0.1959   0.7281     C
C       0.3318   0.3041   0.2281     C
C       0.3367   0.1854   0.9637     C
C       0.3367   0.3146   0.4637     C
C        0.341   0.0991   0.6419     C
C        0.341   0.4009   0.1419     C
H       0.3429   0.7057   0.1115     H
H       0.3429   0.7943   0.6115     H
H       0.3448   0.2391   0.7692     H
H       0.3448   0.2609   0.2692     H
H       0.3456   0.0623   0.0978     H
H       0.3456   0.4377   0.5978     H
H       0.3517   0.5325   0.2919     H
H       0.3517   0.9675   0.7919     H
H       0.3563   0.2146   0.9306     H
H       0.3563   0.2854   0.4306     H
N       0.3622    0.704   0.7029     N
N       0.3622    0.796   0.2029     N
H       0.3627   0.0621   0.6125     H
H       0.3627   0.4379   0.1125     H
N       0.3725   0.5895   0.3929     N
N       0.3725   0.9105   0.8929     N
N       0.3812   0.1272   0.0236     N
N       0.3812   0.3728   0.5236     N
N       0.3849   0.1561    0.703     N
N       0.3849   0.3439    0.203     N
O       0.4695   0.5114  0.78348     O
O       0.4695   0.9886  0.28348     O
H        0.481   0.5741   0.2657     H
H        0.481   0.9259   0.7657     H
H       0.4815   0.6026   0.8917     H
H       0.4815   0.8974   0.3917     H
O       0.4839   0.7199  0.95492     O
O       0.4839   0.7801  0.45492     O
C        0.484   0.6808   0.8977     C
C        0.484   0.8192   0.3977     C
O       0.4872   0.7403   0.8481     O
O       0.4872   0.7597   0.3481     O
O       0.4874   0.5915  0.65377     O
O       0.4874   0.9085  0.15377     O
Co     0.48784  0.67272  0.74903    Co
Co     0.48784  0.82728  0.24903    Co
C       0.4903   0.6318   0.5988     C
C       0.4903   0.8682   0.0988     C
O       0.4904   0.1737  0.29166     O
O       0.4904   0.3263  0.79166     O
H       0.4907   0.7102   0.5944     H
H       0.4907   0.7898   0.0944     H
O       0.4929   0.5714  0.54769     O
O       0.4929   0.9286  0.04769     O
C       0.4946   0.0786   0.2676     C
C       0.4946   0.4214   0.7676     C
Co     0.49565  0.60795  0.44652    Co
Co     0.49565  0.89205  0.94652    Co
Co     0.50435  0.10795  0.05348    Co
Co     0.50435  0.39205  0.55348    Co
C       0.5054   0.5786   0.2324     C
C       0.5054   0.9214   0.7324     C
O       0.5071   0.0714  0.95231     O
O       0.5071   0.4286  0.45231     O
H       0.5093   0.2102   0.9056     H
H       0.5093   0.2898   0.4056     H
O       0.5096   0.6737  0.20834     O
O       0.5096   0.8263  0.70834     O
C       0.5097   0.1318   0.9012     C
C       0.5097   0.3682   0.4012     C
Co     0.51216  0.17272  0.75097    Co
Co     0.51216  0.32728  0.25097    Co
O       0.5126   0.0915  0.84623     O
O       0.5126   0.4085  0.34623     O
O       0.5128   0.2403   0.6519     O
O       0.5128   0.2597   0.1519     O
C        0.516   0.1808   0.6023     C
C        0.516   0.3192   0.1023     C
O       0.5161   0.2199  0.54508     O
O       0.5161   0.2801  0.04508     O
H       0.5185   0.1026   0.6083     H
H       0.5185   0.3974   0.1083     H
H        0.519   0.0741   0.2343     H
H        0.519   0.4259   0.7343     H
O       0.5305   0.0114  0.71652     O
O       0.5305   0.4886  0.21652     O
N       0.6151   0.6561    0.797     N
N       0.6151   0.8439    0.297     N
N       0.6188   0.6272   0.4764     N
N       0.6188   0.8728   0.9764     N
N       0.6275   0.0895   0.1071     N
N       0.6275   0.4105   0.6071     N
H       0.6373   0.5621   0.8875     H
H       0.6373   0.9379   0.3875     H
N       0.6378    0.204   0.7971     N
N       0.6378    0.296   0.2971     N
H       0.6437   0.7146   0.5694     H
H       0.6437   0.7854   0.0694     H
H       0.6483   0.0325   0.2081     H
H       0.6483   0.4675   0.7081     H
H       0.6544   0.5623   0.4022     H
H       0.6544   0.9377   0.9022     H
H       0.6552   0.7391   0.7308     H
H       0.6552   0.7609   0.2308     H
H       0.6571   0.2057   0.3885     H
H       0.6571   0.2943   0.8885     H
C        0.659   0.5991   0.8581     C
C        0.659   0.9009   0.3581     C
C       0.6633   0.6854   0.5363     C
C       0.6633   0.8146   0.0363     C
C       0.6682   0.6959   0.7719     C
C       0.6682   0.8041   0.2719     C
H       0.6688   0.1333   0.0319     H
H       0.6688   0.3667   0.5319     H
C       0.6688    0.602   0.4449     C
C       0.6688    0.898   0.9449     C
C       0.6702   0.0519   0.1745     C
C       0.6702   0.4481   0.6745     C
C       0.6793   0.2343   0.3571     C
C       0.6793   0.2657   0.8571     C
H       0.6809   0.1392   0.7273     H
H       0.6809   0.3608   0.2273     H
C       0.6812   0.1076   0.0781     C
C       0.6812   0.3924   0.5781     C
C       0.6918    0.181   0.7688     C
C       0.6918    0.319   0.2688     C
C       0.7375   0.6043   0.8694     C
C       0.7375   0.8957   0.3694     C
C       0.7395    0.694   0.5403     C
C       0.7395    0.806   0.0403     C
N       0.7436   0.6406   0.4818     N
N       0.7436   0.8594   0.9818     N
N       0.7442   0.6656   0.8137     N
N       0.7442   0.8344   0.3137     N
C       0.7488   0.0474   0.1848     C
C       0.7488   0.4526   0.6848     C
N       0.7558   0.0847   0.1234     N
N       0.7558   0.4153   0.6234     N
C       0.7564   0.2212    0.364     C
C       0.7564   0.2788    0.864     C
N       0.7651   0.2251   0.8072     N
N       0.7651   0.2749   0.3072     N
H       0.7754   0.6866   0.2301     H
H       0.7754   0.8134   0.7301     H
H       0.7795   0.5728   0.9074     H
H       0.7795   0.9272   0.4074     H
H       0.7801   0.0038   0.9007     H
H       0.7801   0.4962   0.4007     H
H       0.7817   0.7296   0.5762     H
H       0.7817   0.7704   0.0762     H
H       0.7905   0.0235   0.2258     H
H       0.7905   0.4765   0.7258     H
H       0.7919   0.1082   0.7093     H
H       0.7919   0.3918   0.2093     H
H       0.7953   0.2259   0.0434     H
H       0.7953   0.2741   0.5434     H
H       0.7963   0.1829   0.4004     H
H       0.7963   0.3171   0.9004     H
C       0.8145   0.6311   0.4643     C
C       0.8145   0.8689   0.9643     C
C       0.8166   0.6849   0.7996     C
C       0.8166   0.8151   0.2996     C
C       0.8195   0.7337   0.2518     C
C       0.8195   0.7663   0.7518     C
C       0.8218   0.5476   0.4206     C
C       0.8218   0.9524   0.9206     C
C       0.8283   0.0911   0.1085     C
C       0.8283   0.4089   0.6085     C
C       0.8352    0.221   0.7888     C
C       0.8352    0.279   0.2888     C
C       0.8361   0.1534   0.7338     C
C       0.8361   0.3466   0.2338     C
C       0.8365   0.1738   0.0639     C
C       0.8365   0.3262   0.5639     C
H       0.8719   0.7366   0.0228     H
H       0.8719   0.7634   0.5228     H
C       0.8764   0.7058   0.4931     C
C       0.8764   0.7942   0.9931     C
H       0.8818   0.5643   0.8666     H
H       0.8818   0.9357   0.3666     H
C        0.883   0.6179   0.8333     C
C        0.883   0.8821   0.3333     C
H       0.8854   0.5379   0.6716     H
H       0.8854   0.9621   0.1716     H
C       0.8881   0.7225   0.2364     C
C       0.8881   0.7775   0.7364     C
H       0.8893   0.6677   0.2038     H
H       0.8893   0.8323   0.7038     H
C       0.8902   0.0171   0.1404     C
C       0.8902   0.4829   0.6404     C
C       0.8912   0.5392   0.4058     C
C       0.8912   0.9608   0.9058     C
H        0.895   0.0177   0.8753     H
H        0.895   0.4823   0.3753     H
H       0.9014   0.1089    0.677     H
H       0.9014   0.3911    0.177     H
C       0.9022   0.2152    0.326     C
C       0.9022   0.2848    0.826     C
H       0.9024   0.1699   0.3636     H
H       0.9024   0.3301   0.8636     H
C       0.9025    0.153   0.7154     C
C       0.9025    0.347   0.2154     C
C       0.9061   0.1794   0.0498     C
C       0.9061   0.3206   0.5498     C
H       0.9105   0.2348   0.0188     H
H       0.9105   0.2652   0.5188     H
C        0.945   0.6967   0.4787     C
C        0.945   0.8033   0.9787     C
C       0.9513   0.6304   0.8177     C
C       0.9513   0.8696   0.3177     C
C       0.9551   0.6132    0.435     C
C       0.9551   0.8868    0.935     C
C       0.9555   0.7096    0.768     C
C       0.9555   0.7904    0.268     C
C       0.9599   0.0244   0.1261     C
C       0.9599   0.4756   0.6261     C
C        0.969   0.2182   0.3075     C
C        0.969   0.2818   0.8075     C
C       0.9696   0.1052   0.0803     C
C       0.9696   0.3948   0.5803     C
C       0.9718   0.2156   0.7517     C
C       0.9718   0.2844   0.2517     C
H       0.9863   0.6746   0.1667     H
H       0.9863   0.7487    0.499     H
H       0.9863   0.7513    0.999     H
H       0.9863   0.8254   0.6667     H
H       0.9958   0.5848   0.8408     H
H       0.9958   0.9152   0.3408     H
H       0.9984   0.0264   0.8521     H
H       0.9984   0.4736   0.3521     H
