data_I
_chemical_name_common  '/home/zhangsd/repos/MofS-CGCNN/ML/data/SSD/clean_cifs/ICAROV_clean'
_cell_length_a 27.56000
_cell_length_b 27.56000
_cell_length_c 27.56000
_cell_angle_alpha 90.00000
_cell_angle_beta  90.00000
_cell_angle_gamma 90.00000
_space_group_name_H-M_alt      'P 1'


loop_
_space_group_symop_operation_xyz
  'x, y, z' 

loop_
_atom_site_label
_atom_site_fract_x
_atom_site_fract_y
_atom_site_fract_z
_atom_site_type_symbol
H          0.0   0.4265   0.4629     H
H          0.0   0.4265   0.5371     H
H          0.0   0.4292   0.3788     H
H          0.0   0.4292   0.6212     H
C          0.0   0.4561  0.44679     C
C          0.0   0.4561  0.55321     C
C          0.0   0.4581  0.39617     C
C          0.0   0.4581  0.60383     C
C          0.0      0.5  0.02724     C
N          0.0      0.5   0.1284     N
Ni         0.0      0.5  0.20156    Ni
Ni         0.0      0.5  0.29844    Ni
N          0.0      0.5   0.3716     N
C          0.0      0.5  0.47276     C
C          0.0      0.5  0.52724     C
N          0.0      0.5   0.6284     N
Ni         0.0      0.5  0.70156    Ni
Ni         0.0      0.5  0.79844    Ni
N          0.0      0.5   0.8716     N
C          0.0      0.5  0.97276     C
C          0.0   0.5419  0.39617     C
C          0.0   0.5419  0.60383     C
C          0.0   0.5439  0.44679     C
C          0.0   0.5439  0.55321     C
H          0.0   0.5708   0.3788     H
H          0.0   0.5708   0.6212     H
H          0.0   0.5735   0.4629     H
H          0.0   0.5735   0.5371     H
C      0.02724      0.0      0.5     C
H       0.0371   0.0735      0.5     H
H       0.0371   0.9265      0.5     H
C       0.0419      0.5  0.10383     C
C       0.0419      0.5  0.89617     C
C       0.0439      0.5  0.05321     C
C       0.0439      0.5  0.94679     C
O      0.05081  0.44884  0.29041     O
O      0.05081  0.44884  0.70959     O
O      0.05081  0.55116  0.29041     O
O      0.05081  0.55116  0.70959     O
O      0.05116  0.44919  0.20959     O
O      0.05116  0.44919  0.79041     O
O      0.05116  0.55081  0.20959     O
O      0.05116  0.55081  0.79041     O
C      0.05321   0.0439      0.5     C
C      0.05321   0.9561      0.5     C
C      0.06562  0.43438     0.25     C
C      0.06562  0.43438     0.75     C
C      0.06562  0.56562     0.25     C
C      0.06562  0.56562     0.75     C
H       0.0708      0.5   0.1212     H
H       0.0708      0.5   0.8788     H
H       0.0735      0.5   0.0371     H
H       0.0735      0.5   0.9629     H
C      0.10383   0.0419      0.5     C
C      0.10383   0.9581      0.5     C
C      0.10409  0.39591     0.25     C
C      0.10409  0.39591     0.75     C
C      0.10409  0.60409     0.25     C
C      0.10409  0.60409     0.75     C
H       0.1098   0.3888   0.3226     H
H       0.1098   0.3888   0.6774     H
H       0.1098   0.6112   0.3226     H
H       0.1098   0.6112   0.6774     H
H       0.1112   0.3902   0.1774     H
H       0.1112   0.3902   0.8226     H
H       0.1112   0.6098   0.1774     H
H       0.1112   0.6098   0.8226     H
H       0.1212   0.0708      0.5     H
H       0.1212   0.9292      0.5     H
C      0.12179  0.37731  0.29318     C
C      0.12179  0.37731  0.70682     C
C      0.12179  0.62269  0.29318     C
C      0.12179  0.62269  0.70682     C
C      0.12269  0.37821  0.20682     C
C      0.12269  0.37821  0.79318     C
C      0.12269  0.62179  0.20682     C
C      0.12269  0.62179  0.79318     C
N       0.1284      0.0      0.5     N
C        0.157  0.34182  0.29284     C
C        0.157  0.34182  0.70716     C
C        0.157  0.65818  0.29284     C
C        0.157  0.65818  0.70716     C
C      0.15818    0.343  0.20716     C
C      0.15818    0.343  0.79284     C
C      0.15818    0.657  0.20716     C
C      0.15818    0.657  0.79284     C
H       0.1683   0.3295   0.3221     H
H       0.1683   0.3295   0.6779     H
H       0.1683   0.6705   0.3221     H
H       0.1683   0.6705   0.6779     H
H       0.1705   0.3317   0.1779     H
H       0.1705   0.3317   0.8221     H
H       0.1705   0.6683   0.1779     H
H       0.1705   0.6683   0.8221     H
C      0.17579  0.32421     0.25     C
C      0.17579  0.32421     0.75     C
C      0.17579  0.67579     0.25     C
C      0.17579  0.67579     0.75     C
H       0.1774   0.1112   0.3902     H
H       0.1774   0.1112   0.6098     H
H       0.1774   0.8888   0.3902     H
H       0.1774   0.8888   0.6098     H
H       0.1779   0.1705   0.3317     H
H       0.1779   0.1705   0.6683     H
H       0.1779   0.8295   0.3317     H
H       0.1779   0.8295   0.6683     H
H       0.1907     0.25   0.3093     H
H       0.1907     0.25   0.6907     H
H       0.1907     0.75   0.3093     H
H       0.1907     0.75   0.6907     H
Ni     0.20156      0.0      0.5    Ni
C      0.20682  0.12269  0.37821     C
C      0.20682  0.12269  0.62179     C
C      0.20682  0.87731  0.37821     C
C      0.20682  0.87731  0.62179     C
C      0.20716  0.15818    0.343     C
C      0.20716  0.15818    0.657     C
C      0.20716  0.84182    0.343     C
C      0.20716  0.84182    0.657     C
O      0.20959  0.05116  0.44919     O
O      0.20959  0.05116  0.55081     O
O      0.20959  0.94884  0.44919     O
O      0.20959  0.94884  0.55081     O
C      0.21404  0.28596     0.25     C
C      0.21404  0.28596     0.75     C
C      0.21404  0.71404     0.25     C
C      0.21404  0.71404     0.75     C
C      0.21457     0.25  0.28543     C
C      0.21457     0.25  0.71457     C
C      0.21457     0.75  0.28543     C
C      0.21457     0.75  0.71457     C
C         0.25  0.06562  0.43438     C
C         0.25  0.06562  0.56562     C
C         0.25  0.10409  0.39591     C
C         0.25  0.10409  0.60409     C
C         0.25  0.17579  0.32421     C
C         0.25  0.17579  0.67579     C
C         0.25  0.21404  0.28596     C
C         0.25  0.21404  0.71404     C
C         0.25  0.28543  0.21457     C
C         0.25  0.28543  0.78543     C
H         0.25   0.3093   0.1907     H
H         0.25   0.3093   0.8093     H
H         0.25   0.6907   0.1907     H
H         0.25   0.6907   0.8093     H
C         0.25  0.71457  0.21457     C
C         0.25  0.71457  0.78543     C
C         0.25  0.78596  0.28596     C
C         0.25  0.78596  0.71404     C
C         0.25  0.82421  0.32421     C
C         0.25  0.82421  0.67579     C
C         0.25  0.89591  0.39591     C
C         0.25  0.89591  0.60409     C
C         0.25  0.93438  0.43438     C
C         0.25  0.93438  0.56562     C
C      0.28543  0.21457     0.25     C
C      0.28543  0.21457     0.75     C
C      0.28543  0.78543     0.25     C
C      0.28543  0.78543     0.75     C
C      0.28596     0.25  0.21404     C
C      0.28596     0.25  0.78596     C
C      0.28596     0.75  0.21404     C
C      0.28596     0.75  0.78596     C
O      0.29041  0.05081  0.44884     O
O      0.29041  0.05081  0.55116     O
O      0.29041  0.94919  0.44884     O
O      0.29041  0.94919  0.55116     O
C      0.29284    0.157  0.34182     C
C      0.29284    0.157  0.65818     C
C      0.29284    0.843  0.34182     C
C      0.29284    0.843  0.65818     C
C      0.29318  0.12179  0.37731     C
C      0.29318  0.12179  0.62269     C
C      0.29318  0.87821  0.37731     C
C      0.29318  0.87821  0.62269     C
Ni     0.29844      0.0      0.5    Ni
H       0.3093   0.1907     0.25     H
H       0.3093   0.1907     0.75     H
H       0.3093   0.8093     0.25     H
H       0.3093   0.8093     0.75     H
H       0.3221   0.1683   0.3295     H
H       0.3221   0.1683   0.6705     H
H       0.3221   0.8317   0.3295     H
H       0.3221   0.8317   0.6705     H
H       0.3226   0.1098   0.3888     H
H       0.3226   0.1098   0.6112     H
H       0.3226   0.8902   0.3888     H
H       0.3226   0.8902   0.6112     H
C      0.32421     0.25  0.17579     C
C      0.32421     0.25  0.82421     C
C      0.32421     0.75  0.17579     C
C      0.32421     0.75  0.82421     C
H       0.3295   0.3221   0.1683     H
H       0.3295   0.3221   0.8317     H
H       0.3295   0.6779   0.1683     H
H       0.3295   0.6779   0.8317     H
H       0.3317   0.1779   0.1705     H
H       0.3317   0.1779   0.8295     H
H       0.3317   0.8221   0.1705     H
H       0.3317   0.8221   0.8295     H
C      0.34182  0.29284    0.157     C
C      0.34182  0.29284    0.843     C
C      0.34182  0.70716    0.157     C
C      0.34182  0.70716    0.843     C
C        0.343  0.20716  0.15818     C
C        0.343  0.20716  0.84182     C
C        0.343  0.79284  0.15818     C
C        0.343  0.79284  0.84182     C
N       0.3716      0.0      0.5     N
C      0.37731  0.29318  0.12179     C
C      0.37731  0.29318  0.87821     C
C      0.37731  0.70682  0.12179     C
C      0.37731  0.70682  0.87821     C
C      0.37821  0.20682  0.12269     C
C      0.37821  0.20682  0.87731     C
C      0.37821  0.79318  0.12269     C
C      0.37821  0.79318  0.87731     C
H       0.3788      0.0   0.4292     H
H       0.3788      0.0   0.5708     H
H       0.3888   0.3226   0.1098     H
H       0.3888   0.3226   0.8902     H
H       0.3888   0.6774   0.1098     H
H       0.3888   0.6774   0.8902     H
H       0.3902   0.1774   0.1112     H
H       0.3902   0.1774   0.8888     H
H       0.3902   0.8226   0.1112     H
H       0.3902   0.8226   0.8888     H
C      0.39591     0.25  0.10409     C
C      0.39591     0.25  0.89591     C
C      0.39591     0.75  0.10409     C
C      0.39591     0.75  0.89591     C
C      0.39617      0.0   0.4581     C
C      0.39617      0.0   0.5419     C
H       0.4265   0.4629      0.0     H
H       0.4265   0.5371      0.0     H
H       0.4292   0.3788      0.0     H
H       0.4292   0.6212      0.0     H
C      0.43438     0.25  0.06562     C
C      0.43438     0.25  0.93438     C
C      0.43438     0.75  0.06562     C
C      0.43438     0.75  0.93438     C
C      0.44679      0.0   0.4561     C
C      0.44679      0.0   0.5439     C
O      0.44884  0.29041  0.05081     O
O      0.44884  0.29041  0.94919     O
O      0.44884  0.70959  0.05081     O
O      0.44884  0.70959  0.94919     O
O      0.44919  0.20959  0.05116     O
O      0.44919  0.20959  0.94884     O
O      0.44919  0.79041  0.05116     O
O      0.44919  0.79041  0.94884     O
C       0.4561  0.44679      0.0     C
C       0.4561  0.55321      1.0     C
C       0.4581  0.39617      1.0     C
C       0.4581  0.60383      0.0     C
H       0.4629      0.0   0.4265     H
H       0.4629      0.0   0.5735     H
C      0.47276      0.0      0.5     C
C          0.5  0.02724      0.0     C
H          0.5   0.0371   0.0735     H
H          0.5   0.0371   0.9265     H
C          0.5  0.05321   0.0439     C
C          0.5  0.05321   0.9561     C
C          0.5  0.10383   0.0419     C
C          0.5  0.10383   0.9581     C
H          0.5   0.1212   0.0708     H
H          0.5   0.1212   0.9292     H
N          0.5   0.1284      0.0     N
Ni         0.5  0.20156      1.0    Ni
Ni         0.5  0.29844      1.0    Ni
N          0.5   0.3716      0.0     N
C          0.5  0.47276      1.0     C
C          0.5  0.52724      1.0     C
N          0.5   0.6284      0.0     N
Ni         0.5  0.70156      0.0    Ni
Ni         0.5  0.79844      0.0    Ni
N          0.5   0.8716      0.0     N
H          0.5   0.8788   0.0708     H
H          0.5   0.8788   0.9292     H
C          0.5  0.89617   0.0419     C
C          0.5  0.89617   0.9581     C
C          0.5  0.94679   0.0439     C
C          0.5  0.94679   0.9561     C
H          0.5   0.9629   0.0735     H
H          0.5   0.9629   0.9265     H
C          0.5  0.97276      0.0     C
C      0.52724      0.0      0.5     C
H       0.5371      0.0   0.4265     H
H       0.5371      0.0   0.5735     H
C       0.5419  0.39617      1.0     C
C       0.5419  0.60383      0.0     C
C       0.5439  0.44679      0.0     C
C       0.5439  0.55321      0.0     C
O      0.55081  0.20959  0.05116     O
O      0.55081  0.20959  0.94884     O
O      0.55081  0.79041  0.05116     O
O      0.55081  0.79041  0.94884     O
O      0.55116  0.29041  0.05081     O
O      0.55116  0.29041  0.94919     O
O      0.55116  0.70959  0.05081     O
O      0.55116  0.70959  0.94919     O
C      0.55321      0.0   0.4561     C
C      0.55321      0.0   0.5439     C
C      0.56562     0.25  0.06562     C
C      0.56562     0.25  0.93438     C
C      0.56562     0.75  0.06562     C
C      0.56562     0.75  0.93438     C
H       0.5708   0.3788      0.0     H
H       0.5708   0.6212      0.0     H
H       0.5735   0.4629      1.0     H
H       0.5735   0.5371      0.0     H
C      0.60383      0.0   0.4581     C
C      0.60383      0.0   0.5419     C
C      0.60409     0.25  0.10409     C
C      0.60409     0.25  0.89591     C
C      0.60409     0.75  0.10409     C
C      0.60409     0.75  0.89591     C
H       0.6098   0.1774   0.1112     H
H       0.6098   0.1774   0.8888     H
H       0.6098   0.8226   0.1112     H
H       0.6098   0.8226   0.8888     H
H       0.6112   0.3226   0.1098     H
H       0.6112   0.3226   0.8902     H
H       0.6112   0.6774   0.1098     H
H       0.6112   0.6774   0.8902     H
H       0.6212      0.0   0.4292     H
H       0.6212      0.0   0.5708     H
C      0.62179  0.20682  0.12269     C
C      0.62179  0.20682  0.87731     C
C      0.62179  0.79318  0.12269     C
C      0.62179  0.79318  0.87731     C
C      0.62269  0.29318  0.12179     C
C      0.62269  0.29318  0.87821     C
C      0.62269  0.70682  0.12179     C
C      0.62269  0.70682  0.87821     C
N       0.6284      0.0      0.5     N
C        0.657  0.20716  0.15818     C
C        0.657  0.20716  0.84182     C
C        0.657  0.79284  0.15818     C
C        0.657  0.79284  0.84182     C
C      0.65818  0.29284    0.157     C
C      0.65818  0.29284    0.843     C
C      0.65818  0.70716    0.157     C
C      0.65818  0.70716    0.843     C
H       0.6683   0.1779   0.1705     H
H       0.6683   0.1779   0.8295     H
H       0.6683   0.8221   0.1705     H
H       0.6683   0.8221   0.8295     H
H       0.6705   0.3221   0.1683     H
H       0.6705   0.3221   0.8317     H
H       0.6705   0.6779   0.1683     H
H       0.6705   0.6779   0.8317     H
C      0.67579     0.25  0.17579     C
C      0.67579     0.25  0.82421     C
C      0.67579     0.75  0.17579     C
C      0.67579     0.75  0.82421     C
H       0.6774   0.1098   0.3888     H
H       0.6774   0.1098   0.6112     H
H       0.6774   0.8902   0.3888     H
H       0.6774   0.8902   0.6112     H
H       0.6779   0.1683   0.3295     H
H       0.6779   0.1683   0.6705     H
H       0.6779   0.8317   0.3295     H
H       0.6779   0.8317   0.6705     H
H       0.6907   0.1907     0.25     H
H       0.6907   0.1907     0.75     H
H       0.6907   0.8093     0.25     H
H       0.6907   0.8093     0.75     H
Ni     0.70156      0.0      0.5    Ni
C      0.70682  0.12179  0.37731     C
C      0.70682  0.12179  0.62269     C
C      0.70682  0.87821  0.37731     C
C      0.70682  0.87821  0.62269     C
C      0.70716    0.157  0.34182     C
C      0.70716    0.157  0.65818     C
C      0.70716    0.843  0.34182     C
C      0.70716    0.843  0.65818     C
O      0.70959  0.05081  0.44884     O
O      0.70959  0.05081  0.55116     O
O      0.70959  0.94919  0.44884     O
O      0.70959  0.94919  0.55116     O
C      0.71404     0.25  0.21404     C
C      0.71404     0.25  0.78596     C
C      0.71404     0.75  0.21404     C
C      0.71404     0.75  0.78596     C
C      0.71457  0.21457     0.25     C
C      0.71457  0.21457     0.75     C
C      0.71457  0.78543     0.25     C
C      0.71457  0.78543     0.75     C
C         0.75  0.06562  0.43438     C
C         0.75  0.06562  0.56562     C
C         0.75  0.10409  0.39591     C
C         0.75  0.10409  0.60409     C
C         0.75  0.17579  0.32421     C
C         0.75  0.17579  0.67579     C
C         0.75  0.21404  0.28596     C
C         0.75  0.21404  0.71404     C
C         0.75  0.28543  0.21457     C
C         0.75  0.28543  0.78543     C
H         0.75   0.3093   0.1907     H
H         0.75   0.3093   0.8093     H
H         0.75   0.6907   0.1907     H
H         0.75   0.6907   0.8093     H
C         0.75  0.71457  0.21457     C
C         0.75  0.71457  0.78543     C
C         0.75  0.78596  0.28596     C
C         0.75  0.78596  0.71404     C
C         0.75  0.82421  0.32421     C
C         0.75  0.82421  0.67579     C
C         0.75  0.89591  0.39591     C
C         0.75  0.89591  0.60409     C
C         0.75  0.93438  0.43438     C
C         0.75  0.93438  0.56562     C
C      0.78543     0.25  0.28543     C
C      0.78543     0.25  0.71457     C
C      0.78543     0.75  0.28543     C
C      0.78543     0.75  0.71457     C
C      0.78596  0.28596     0.25     C
C      0.78596  0.28596     0.75     C
C      0.78596  0.71404     0.25     C
C      0.78596  0.71404     0.75     C
O      0.79041  0.05116  0.44919     O
O      0.79041  0.05116  0.55081     O
O      0.79041  0.94884  0.44919     O
O      0.79041  0.94884  0.55081     O
C      0.79284  0.15818    0.343     C
C      0.79284  0.15818    0.657     C
C      0.79284  0.84182    0.343     C
C      0.79284  0.84182    0.657     C
C      0.79318  0.12269  0.37821     C
C      0.79318  0.12269  0.62179     C
C      0.79318  0.87731  0.37821     C
C      0.79318  0.87731  0.62179     C
Ni     0.79844      0.0      0.5    Ni
H       0.8093     0.25   0.3093     H
H       0.8093     0.25   0.6907     H
H       0.8093     0.75   0.3093     H
H       0.8093     0.75   0.6907     H
H       0.8221   0.1705   0.3317     H
H       0.8221   0.1705   0.6683     H
H       0.8221   0.8295   0.3317     H
H       0.8221   0.8295   0.6683     H
H       0.8226   0.1112   0.3902     H
H       0.8226   0.1112   0.6098     H
H       0.8226   0.8888   0.3902     H
H       0.8226   0.8888   0.6098     H
C      0.82421  0.32421     0.25     C
C      0.82421  0.32421     0.75     C
C      0.82421  0.67579     0.25     C
C      0.82421  0.67579     0.75     C
H       0.8295   0.3317   0.1779     H
H       0.8295   0.3317   0.8221     H
H       0.8295   0.6683   0.1779     H
H       0.8295   0.6683   0.8221     H
H       0.8317   0.3295   0.3221     H
H       0.8317   0.3295   0.6779     H
H       0.8317   0.6705   0.3221     H
H       0.8317   0.6705   0.6779     H
C      0.84182    0.343  0.20716     C
C      0.84182    0.343  0.79284     C
C      0.84182    0.657  0.20716     C
C      0.84182    0.657  0.79284     C
C        0.843  0.34182  0.29284     C
C        0.843  0.34182  0.70716     C
C        0.843  0.65818  0.29284     C
C        0.843  0.65818  0.70716     C
N       0.8716      0.0      0.5     N
C      0.87731  0.37821  0.20682     C
C      0.87731  0.37821  0.79318     C
C      0.87731  0.62179  0.20682     C
C      0.87731  0.62179  0.79318     C
C      0.87821  0.37731  0.29318     C
C      0.87821  0.37731  0.70682     C
C      0.87821  0.62269  0.29318     C
C      0.87821  0.62269  0.70682     C
H       0.8788   0.0708      0.5     H
H       0.8788   0.9292      0.5     H
H       0.8888   0.3902   0.1774     H
H       0.8888   0.3902   0.8226     H
H       0.8888   0.6098   0.1774     H
H       0.8888   0.6098   0.8226     H
H       0.8902   0.3888   0.3226     H
H       0.8902   0.3888   0.6774     H
H       0.8902   0.6112   0.3226     H
H       0.8902   0.6112   0.6774     H
C      0.89591  0.39591     0.25     C
C      0.89591  0.39591     0.75     C
C      0.89591  0.60409     0.25     C
C      0.89591  0.60409     0.75     C
C      0.89617   0.0419      0.5     C
C      0.89617   0.9581      0.5     C
H       0.9265      0.5   0.0371     H
H       0.9265      0.5   0.9629     H
H       0.9292      0.5   0.1212     H
H       0.9292      0.5   0.8788     H
C      0.93438  0.43438     0.25     C
C      0.93438  0.43438     0.75     C
C      0.93438  0.56562     0.25     C
C      0.93438  0.56562     0.75     C
C      0.94679   0.0439      0.5     C
C      0.94679   0.9561      0.5     C
O      0.94884  0.44919  0.20959     O
O      0.94884  0.44919  0.79041     O
O      0.94884  0.55081  0.20959     O
O      0.94884  0.55081  0.79041     O
O      0.94919  0.44884  0.29041     O
O      0.94919  0.44884  0.70959     O
O      0.94919  0.55116  0.29041     O
O      0.94919  0.55116  0.70959     O
C       0.9561      0.5  0.05321     C
C       0.9561      0.5  0.94679     C
C       0.9581      0.5  0.10383     C
C       0.9581      0.5  0.89617     C
H       0.9629   0.0735      0.5     H
H       0.9629   0.9265      0.5     H
C      0.97276      0.0      0.5     C
