data_I
_chemical_name_common  '/home/zhangsd/repos/MofS-CGCNN/ML/data/SSD/clean_cifs/ICEGED_clean'
_cell_length_a 11.84000
_cell_length_b 12.32470
_cell_length_c 13.73620
_cell_angle_alpha 92.61500
_cell_angle_beta  112.67500
_cell_angle_gamma 109.04000
_space_group_name_H-M_alt      'P 1'


loop_
_space_group_symop_operation_xyz
  'x, y, z' 

loop_
_atom_site_label
_atom_site_fract_x
_atom_site_fract_y
_atom_site_fract_z
_atom_site_type_symbol
Cd         0.0      0.5      0.5    Cd
C       0.0197   0.4695   0.0998     C
N       0.0313  0.50614  0.28098     N
C       0.0407   0.4413   0.2066     C
N       0.0521   0.4507  0.36279     N
C       0.0635   0.4705   0.9432     C
N       0.0669  0.34794  0.23966     N
N       0.0729  0.35663  0.33897     N
C       0.0823    0.439   0.0418     C
N      0.08357  0.79039  0.52711     N
H       0.1078   0.4511   0.9044     H
Cd     0.11509  0.23332  0.46084    Cd
N      0.11887  0.70063  0.51675     N
H       0.1378   0.3966   0.0699     H
N       0.1751  0.88791  0.52608     N
N       0.1839  0.46988  0.63012     N
N      0.20958  0.37639  0.61302     N
N       0.2337  0.73726  0.50938     N
N       0.2541  0.52277  0.73326     N
C       0.2661   0.8528   0.5155     C
N       0.2971  0.36488  0.70498     N
C       0.3223   0.4556  0.77697     C
H       0.3405    0.075   0.4936     H
C       0.3861   0.9294   0.5081     C
H       0.3993   0.6312    0.934     H
C       0.4053   0.0442   0.4963     C
C       0.4133   0.4784  0.89155     C
C       0.4403   0.5775   0.9606     C
H       0.4553    0.331   0.8847     H
H       0.4691   0.8073   0.5189     H
C       0.4733   0.3998   0.9313     C
C       0.4816   0.8861   0.5113     C
C       0.5184   0.1139   0.4887     C
C       0.5267   0.6002   0.0687     C
H       0.5309   0.1927   0.4811     H
H       0.5447    0.669   0.1153     H
C       0.5597   0.4225   0.0394     C
C       0.5867   0.5216  0.10845     C
C       0.5947   0.9558   0.5037     C
H       0.6007   0.3688    0.066     H
C       0.6139   0.0706   0.4919     C
H       0.6595    0.925   0.5064     H
C       0.6777   0.5444  0.22303     C
N       0.7029  0.63512  0.29502     N
C       0.7339   0.1472   0.4845     C
N       0.7459  0.47723  0.26674     N
N       0.7663  0.26274  0.49062     N
N      0.79042  0.62361  0.38698     N
N       0.8161  0.53012  0.36988     N
N       0.8249  0.11209  0.47392     N
H       0.8622   0.6034   0.9301     H
N      0.88113  0.29937  0.48325     N
Cd     0.88491  0.76668  0.53916    Cd
H       0.8922   0.5489   0.0956     H
N      0.91643  0.20961  0.47289     N
C       0.9177    0.561   0.9582     C
N       0.9271  0.64337  0.66103     N
N       0.9331  0.65206  0.76034     N
C       0.9365   0.5295   0.0568     C
N       0.9479   0.5493  0.63721     N
C       0.9593   0.5587   0.7934     C
N       0.9687  0.49386  0.71902     N
C       0.9803   0.5305   0.9002     C
