data_I
_chemical_name_common  '/home/zhangsd/repos/MofS-CGCNN/ML/data/SSD/clean_cifs/ICITEU_charged'
_cell_length_a 27.23000
_cell_length_b 27.23000
_cell_length_c 27.23000
_cell_angle_alpha 60.00000
_cell_angle_beta  60.00000
_cell_angle_gamma 60.00000
_space_group_name_H-M_alt      'P 1'


loop_
_space_group_symop_operation_xyz
  'x, y, z' 

loop_
_atom_site_label
_atom_site_fract_x
_atom_site_fract_y
_atom_site_fract_z
_atom_site_type_symbol
C        0.033   0.5298    0.614     C
C        0.033   0.5298   0.8232     C
C        0.033    0.614   0.5298     C
C        0.033    0.614   0.8232     C
C        0.033   0.8232   0.5298     C
C        0.033   0.8232    0.614     C
H       0.0499   0.5009   0.6439     H
H       0.0499   0.5009   0.8053     H
H       0.0499   0.6439   0.5009     H
H       0.0499   0.6439   0.8053     H
H       0.0499   0.8053   0.5009     H
H       0.0499   0.8053   0.6439     H
C       0.0583   0.5719   0.5719     C
C       0.0583   0.5719   0.7979     C
C       0.0583   0.7979   0.5719     C
C       0.1085   0.5757   0.5757     C
C       0.1085   0.5757   0.7401     C
C       0.1085   0.7401   0.5757     C
O       0.1292   0.5364   0.6168     O
O       0.1292   0.5364   0.7176     O
O       0.1292   0.6168   0.5364     O
O       0.1292   0.6168   0.7176     O
O       0.1292   0.7176   0.5364     O
O       0.1292   0.7176   0.6168     O
H       0.1912    0.421    0.627     H
H       0.1912    0.421   0.7608     H
H       0.1912    0.627    0.421     H
H       0.1912    0.627   0.7608     H
H       0.1912   0.7608    0.421     H
H       0.1912   0.7608    0.627     H
N       0.1921   0.4313   0.6883     N
N       0.1921   0.6883   0.4313     N
N       0.1921   0.6883   0.6883     N
C       0.1936   0.4002   0.6656     C
C       0.1936   0.4002   0.7406     C
C       0.1936   0.6656   0.4002     C
C       0.1936   0.6656   0.7406     C
C       0.1936   0.7406   0.4002     C
C       0.1936   0.7406   0.6656     C
Fe     0.19514  0.52042  0.64222    Fe
Fe     0.19514  0.64222  0.52042    Fe
Fe     0.19514  0.64222  0.64222    Fe
C       0.1955   0.3095   0.7475     C
C       0.1955   0.7475   0.3095     C
C       0.1955   0.7475   0.7475     C
C       0.1964   0.2424   0.7806     C
O       0.1964   0.6012   0.6012     O
C       0.1964   0.7806   0.2424     C
C       0.1964   0.7806   0.7806     C
C       0.1985   0.3347   0.6897     C
C       0.1985   0.3347   0.7771     C
C       0.1985   0.6897   0.3347     C
C       0.1985   0.6897   0.7771     C
C       0.1985   0.7771   0.3347     C
C       0.1985   0.7771   0.6897     C
H       0.2031   0.3147   0.6675     H
H       0.2031   0.3147   0.8147     H
H       0.2031   0.6675   0.3147     H
H       0.2031   0.6675   0.8147     H
H       0.2031   0.8147   0.3147     H
H       0.2031   0.8147   0.6675     H
O       0.2387   0.4959   0.4959     O
O       0.2387   0.4959   0.7695     O
O       0.2387   0.7695   0.4959     O
C       0.2424   0.1964   0.7806     C
C       0.2424   0.7806   0.1964     C
C       0.2424   0.7806   0.7806     C
O       0.2589   0.4883   0.5761     O
O       0.2589   0.4883   0.6767     O
O       0.2589   0.5761   0.4883     O
O       0.2589   0.5761   0.6767     O
O       0.2589   0.6767   0.4883     O
O       0.2589   0.6767   0.5761     O
S      0.27385  0.51009  0.51009     S
S      0.27385  0.51009  0.70597     S
S      0.27385  0.70597  0.51009     S
C       0.3095   0.1955   0.7475     C
C       0.3095   0.7475   0.1955     C
C       0.3095   0.7475   0.7475     C
H       0.3147   0.2031   0.6675     H
H       0.3147   0.2031   0.8147     H
H       0.3147   0.6675   0.2031     H
H       0.3147   0.6675   0.8147     H
H       0.3147   0.8147   0.2031     H
H       0.3147   0.8147   0.6675     H
C       0.3347   0.1985   0.6897     C
C       0.3347   0.1985   0.7771     C
C       0.3347   0.6897   0.1985     C
C       0.3347   0.6897   0.7771     C
C       0.3347   0.7771   0.1985     C
C       0.3347   0.7771   0.6897     C
O       0.3375   0.4831   0.4831     O
O       0.3375   0.4831   0.6963     O
O       0.3375   0.6963   0.4831     O
C       0.4002   0.1936   0.6656     C
C       0.4002   0.1936   0.7406     C
C       0.4002   0.6656   0.1936     C
C       0.4002   0.6656   0.7406     C
C       0.4002   0.7406   0.1936     C
C       0.4002   0.7406   0.6656     C
H        0.421   0.1912    0.627     H
H        0.421   0.1912   0.7608     H
H        0.421    0.627   0.1912     H
H        0.421    0.627   0.7608     H
H        0.421   0.7608   0.1912     H
H        0.421   0.7608    0.627     H
N       0.4313   0.1921   0.6883     N
N       0.4313   0.6883   0.1921     N
N       0.4313   0.6883   0.6883     N
O       0.4831   0.3375   0.4831     O
O       0.4831   0.3375   0.6963     O
O       0.4831   0.4831   0.3375     O
O       0.4831   0.4831   0.6963     O
O       0.4831   0.6963   0.3375     O
O       0.4831   0.6963   0.4831     O
O       0.4883   0.2589   0.5761     O
O       0.4883   0.2589   0.6767     O
O       0.4883   0.5761   0.2589     O
O       0.4883   0.5761   0.6767     O
O       0.4883   0.6767   0.2589     O
O       0.4883   0.6767   0.5761     O
O       0.4959   0.2387   0.4959     O
O       0.4959   0.2387   0.7695     O
O       0.4959   0.4959   0.2387     O
O       0.4959   0.4959   0.7695     O
O       0.4959   0.7695   0.2387     O
O       0.4959   0.7695   0.4959     O
H       0.4965   0.6437   0.8937     H
H       0.4965   0.6437   0.9661     H
H       0.4965   0.8937   0.6437     H
H       0.4965   0.8937   0.9661     H
H       0.4965   0.9661   0.6437     H
H       0.4965   0.9661   0.8937     H
H       0.5009   0.0499   0.6439     H
H       0.5009   0.0499   0.8053     H
H       0.5009   0.6439   0.0499     H
H       0.5009   0.6439   0.8053     H
H       0.5009   0.8053   0.0499     H
H       0.5009   0.8053   0.6439     H
S      0.51009  0.27385  0.51009     S
S      0.51009  0.27385  0.70597     S
S      0.51009  0.51009  0.27385     S
S      0.51009  0.51009  0.70597     S
S      0.51009  0.70597  0.27385     S
S      0.51009  0.70597  0.51009     S
Fe     0.52042  0.19514  0.64222    Fe
Fe     0.52042  0.64222  0.19514    Fe
Fe     0.52042  0.64222  0.64222    Fe
C       0.5273   0.6151   0.8759     C
C       0.5273   0.6151   0.9817     C
C       0.5273   0.8759   0.6151     C
C       0.5273   0.8759   0.9817     C
C       0.5273   0.9817   0.6151     C
C       0.5273   0.9817   0.8759     C
C       0.5298    0.033    0.614     C
C       0.5298    0.033   0.8232     C
C       0.5298    0.614    0.033     C
C       0.5298    0.614   0.8232     C
C       0.5298   0.8232    0.033     C
C       0.5298   0.8232    0.614     C
O       0.5364   0.1292   0.6168     O
O       0.5364   0.1292   0.7176     O
O       0.5364   0.6168   0.1292     O
O       0.5364   0.6168   0.7176     O
O       0.5364   0.7176   0.1292     O
O       0.5364   0.7176   0.6168     O
C       0.5719   0.0583   0.5719     C
C       0.5719   0.0583   0.7979     C
C       0.5719   0.5719   0.0583     C
C       0.5719   0.5719   0.7979     C
C       0.5719   0.7979   0.0583     C
C       0.5719   0.7979   0.5719     C
C       0.5721   0.5721   0.8993     C
C       0.5721   0.5721   0.9565     C
C       0.5721   0.8993   0.5721     C
C       0.5721   0.8993   0.9565     C
C       0.5721   0.9565   0.5721     C
C       0.5721   0.9565   0.8993     C
C       0.5757   0.1085   0.5757     C
C       0.5757   0.1085   0.7401     C
C       0.5757   0.5757   0.1085     C
C       0.5757   0.5757   0.7401     C
C       0.5757   0.7401   0.1085     C
C       0.5757   0.7401   0.5757     C
O       0.5761   0.2589   0.4883     O
O       0.5761   0.2589   0.6767     O
O       0.5761   0.4883   0.2589     O
O       0.5761   0.4883   0.6767     O
O       0.5761   0.6767   0.2589     O
O       0.5761   0.6767   0.4883     O
O       0.6012   0.1964   0.6012     O
O       0.6012   0.6012   0.1964     O
O       0.6012   0.6012   0.6012     O
C        0.614    0.033   0.5298     C
C        0.614    0.033   0.8232     C
C        0.614   0.5298    0.033     C
C        0.614   0.5298   0.8232     C
C        0.614   0.8232    0.033     C
C        0.614   0.8232   0.5298     C
C       0.6151   0.5273   0.8759     C
C       0.6151   0.5273   0.9817     C
C       0.6151   0.8759   0.5273     C
C       0.6151   0.8759   0.9817     C
C       0.6151   0.9817   0.5273     C
C       0.6151   0.9817   0.8759     C
O       0.6168   0.1292   0.5364     O
O       0.6168   0.1292   0.7176     O
O       0.6168   0.5364   0.1292     O
O       0.6168   0.5364   0.7176     O
O       0.6168   0.7176   0.1292     O
O       0.6168   0.7176   0.5364     O
H        0.627   0.1912    0.421     H
H        0.627   0.1912   0.7608     H
H        0.627    0.421   0.1912     H
H        0.627    0.421   0.7608     H
H        0.627   0.7608   0.1912     H
H        0.627   0.7608    0.421     H
Fe     0.64222  0.19514  0.52042    Fe
Fe     0.64222  0.19514  0.64222    Fe
Fe     0.64222  0.52042  0.19514    Fe
Fe     0.64222  0.52042  0.64222    Fe
Fe     0.64222  0.64222  0.19514    Fe
Fe     0.64222  0.64222  0.52042    Fe
H       0.6437   0.4965   0.8937     H
H       0.6437   0.4965   0.9661     H
H       0.6437   0.8937   0.4965     H
H       0.6437   0.8937   0.9661     H
H       0.6437   0.9661   0.4965     H
H       0.6437   0.9661   0.8937     H
H       0.6439   0.0499   0.5009     H
H       0.6439   0.0499   0.8053     H
H       0.6439   0.5009   0.0499     H
H       0.6439   0.5009   0.8053     H
H       0.6439   0.8053   0.0499     H
H       0.6439   0.8053   0.5009     H
C       0.6656   0.1936   0.4002     C
C       0.6656   0.1936   0.7406     C
C       0.6656   0.4002   0.1936     C
C       0.6656   0.4002   0.7406     C
C       0.6656   0.7406   0.1936     C
C       0.6656   0.7406   0.4002     C
H       0.6675   0.2031   0.3147     H
H       0.6675   0.2031   0.8147     H
H       0.6675   0.3147   0.2031     H
H       0.6675   0.3147   0.8147     H
H       0.6675   0.8147   0.2031     H
H       0.6675   0.8147   0.3147     H
O       0.6767   0.2589   0.4883     O
O       0.6767   0.2589   0.5761     O
O       0.6767   0.4883   0.2589     O
O       0.6767   0.4883   0.5761     O
O       0.6767   0.5761   0.2589     O
O       0.6767   0.5761   0.4883     O
N       0.6883   0.1921   0.4313     N
N       0.6883   0.1921   0.6883     N
N       0.6883   0.4313   0.1921     N
N       0.6883   0.4313   0.6883     N
N       0.6883   0.6883   0.1921     N
N       0.6883   0.6883   0.4313     N
C       0.6897   0.1985   0.3347     C
C       0.6897   0.1985   0.7771     C
C       0.6897   0.3347   0.1985     C
C       0.6897   0.3347   0.7771     C
C       0.6897   0.7771   0.1985     C
C       0.6897   0.7771   0.3347     C
O       0.6963   0.3375   0.4831     O
O       0.6963   0.4831   0.3375     O
O       0.6963   0.4831   0.4831     O
S      0.70597  0.27385  0.51009     S
S      0.70597  0.51009  0.27385     S
S      0.70597  0.51009  0.51009     S
O       0.7176   0.1292   0.5364     O
O       0.7176   0.1292   0.6168     O
O       0.7176   0.5364   0.1292     O
O       0.7176   0.5364   0.6168     O
O       0.7176   0.6168   0.1292     O
O       0.7176   0.6168   0.5364     O
C       0.7401   0.1085   0.5757     C
C       0.7401   0.5757   0.1085     C
C       0.7401   0.5757   0.5757     C
C       0.7406   0.1936   0.4002     C
C       0.7406   0.1936   0.6656     C
C       0.7406   0.4002   0.1936     C
C       0.7406   0.4002   0.6656     C
C       0.7406   0.6656   0.1936     C
C       0.7406   0.6656   0.4002     C
C       0.7475   0.1955   0.3095     C
C       0.7475   0.1955   0.7475     C
C       0.7475   0.3095   0.1955     C
C       0.7475   0.3095   0.7475     C
C       0.7475   0.7475   0.1955     C
C       0.7475   0.7475   0.3095     C
H       0.7608   0.1912    0.421     H
H       0.7608   0.1912    0.627     H
H       0.7608    0.421   0.1912     H
H       0.7608    0.421    0.627     H
H       0.7608    0.627   0.1912     H
H       0.7608    0.627    0.421     H
O       0.7695   0.2387   0.4959     O
O       0.7695   0.4959   0.2387     O
O       0.7695   0.4959   0.4959     O
C       0.7771   0.1985   0.3347     C
C       0.7771   0.1985   0.6897     C
C       0.7771   0.3347   0.1985     C
C       0.7771   0.3347   0.6897     C
C       0.7771   0.6897   0.1985     C
C       0.7771   0.6897   0.3347     C
C       0.7806   0.1964   0.2424     C
C       0.7806   0.1964   0.7806     C
C       0.7806   0.2424   0.1964     C
C       0.7806   0.2424   0.7806     C
C       0.7806   0.7806   0.1964     C
C       0.7806   0.7806   0.2424     C
C       0.7979   0.0583   0.5719     C
C       0.7979   0.5719   0.0583     C
C       0.7979   0.5719   0.5719     C
H       0.8053   0.0499   0.5009     H
H       0.8053   0.0499   0.6439     H
H       0.8053   0.5009   0.0499     H
H       0.8053   0.5009   0.6439     H
H       0.8053   0.6439   0.0499     H
H       0.8053   0.6439   0.5009     H
H       0.8147   0.2031   0.3147     H
H       0.8147   0.2031   0.6675     H
H       0.8147   0.3147   0.2031     H
H       0.8147   0.3147   0.6675     H
H       0.8147   0.6675   0.2031     H
H       0.8147   0.6675   0.3147     H
C       0.8232    0.033   0.5298     C
C       0.8232    0.033    0.614     C
C       0.8232   0.5298    0.033     C
C       0.8232   0.5298    0.614     C
C       0.8232    0.614    0.033     C
C       0.8232    0.614   0.5298     C
C       0.8759   0.5273   0.6151     C
C       0.8759   0.5273   0.9817     C
C       0.8759   0.6151   0.5273     C
C       0.8759   0.6151   0.9817     C
C       0.8759   0.9817   0.5273     C
C       0.8759   0.9817   0.6151     C
H       0.8937   0.4965   0.6437     H
H       0.8937   0.4965   0.9661     H
H       0.8937   0.6437   0.4965     H
H       0.8937   0.6437   0.9661     H
H       0.8937   0.9661   0.4965     H
H       0.8937   0.9661   0.6437     H
C       0.8993   0.5721   0.5721     C
C       0.8993   0.5721   0.9565     C
C       0.8993   0.9565   0.5721     C
C       0.9565   0.5721   0.5721     C
C       0.9565   0.5721   0.8993     C
C       0.9565   0.8993   0.5721     C
H       0.9661   0.4965   0.6437     H
H       0.9661   0.4965   0.8937     H
H       0.9661   0.6437   0.4965     H
H       0.9661   0.6437   0.8937     H
H       0.9661   0.8937   0.4965     H
H       0.9661   0.8937   0.6437     H
C       0.9817   0.5273   0.6151     C
C       0.9817   0.5273   0.8759     C
C       0.9817   0.6151   0.5273     C
C       0.9817   0.6151   0.8759     C
C       0.9817   0.8759   0.5273     C
C       0.9817   0.8759   0.6151     C
