data_I
_chemical_name_common  '/home/zhangsd/repos/MofS-CGCNN/ML/data/SSD/clean_cifs/IDAGUR_clean'
_cell_length_a  7.36200
_cell_length_b 13.90800
_cell_length_c 18.01500
_cell_angle_alpha 90.00000
_cell_angle_beta  90.00000
_cell_angle_gamma 90.52000
_space_group_name_H-M_alt      'P 1'


loop_
_space_group_symop_operation_xyz
  'x, y, z' 

loop_
_atom_site_label
_atom_site_fract_x
_atom_site_fract_y
_atom_site_fract_z
_atom_site_type_symbol
C       0.0178    0.491   0.5396     C
C       0.0178    0.991   0.9604     C
H       0.0252   0.1287   0.9243     H
H       0.0252   0.6287   0.5757     H
H       0.0291   0.3448   0.5362     H
H       0.0291   0.8448   0.9638     H
C       0.0352   0.0652   0.9088     C
C       0.0352   0.5652   0.5912     C
C       0.0376   0.3976   0.5678     C
C       0.0376   0.8976   0.9322     C
C       0.0672   0.0454   0.8346     C
C       0.0672   0.5454   0.6654     C
C       0.0692   0.3849   0.6411     C
C       0.0692   0.8849   0.8589     C
H       0.0802   0.0966   0.8018     H
H       0.0802   0.5966   0.6982     H
N       0.0803   0.4558   0.6921     N
N       0.0803   0.9558   0.8079     N
H       0.0845   0.3222   0.6577     H
H       0.0845   0.8222   0.8423     H
N       0.0973   0.1956   0.2955     N
N       0.0973   0.6956   0.2045     N
Mn     0.10103     0.42  0.81409    Mn
Mn     0.10103     0.92  0.68591    Mn
N       0.1228   0.4763   0.1676     N
N       0.1228   0.9763   0.3324     N
C       0.2022   0.2399   0.2626     C
C       0.2022   0.7399   0.2374     C
C       0.2204   0.4157   0.1831     C
C       0.2204   0.9157   0.3169     C
N       0.2952   0.0418   0.6694     N
N       0.2952   0.5418   0.8306     N
N       0.3251   0.3252   0.7816     N
N       0.3251   0.8252   0.7184     N
N       0.3782    0.261   0.1341     N
N       0.3782    0.761   0.3659     N
Mn     0.39429  0.31249  0.20829    Mn
Mn     0.39429  0.81249  0.29171    Mn
C       0.4063   0.0973   0.6829     C
C       0.4063   0.5973   0.8171     C
H       0.4184   0.2716   0.3857     H
H       0.4184   0.7716   0.1143     H
N       0.4192   0.3889   0.3245     N
N       0.4192   0.8889   0.1755     N
H       0.4221   0.0219   0.2107     H
H       0.4221   0.5219   0.2893     H
C       0.4259   0.2747   0.7543     C
C       0.4259   0.7747   0.7457     C
C       0.4321   0.3381   0.3885     C
C       0.4321   0.8381   0.1115     C
C       0.4336   0.4843   0.3317     C
C       0.4336   0.9843   0.1683     C
C       0.4636   0.3775   0.4564     C
C       0.4636   0.8775   0.0436     C
C       0.4648   0.0303   0.1013     C
C       0.4648   0.5303   0.3987     C
H        0.473   0.3381   0.4979     H
H        0.473   0.8381   0.0021     H
H       0.4745   0.0969   0.0998     H
H       0.4745   0.5969   0.4002     H
C       0.4819   0.4774   0.4639     C
C       0.4819   0.9774   0.0361     C
C       0.5181   0.0226   0.9639     C
C       0.5181   0.5226   0.5361     C
H       0.5255   0.4031   0.5998     H
H       0.5255   0.9031   0.9002     H
H        0.527   0.1619   0.9979     H
H        0.527   0.6619   0.5021     H
C       0.5352   0.4697   0.6013     C
C       0.5352   0.9697   0.8987     C
C       0.5364   0.1225   0.9564     C
C       0.5364   0.6225   0.5436     C
C       0.5664   0.0157   0.8317     C
C       0.5664   0.5157   0.6683     C
C       0.5679   0.1619   0.8885     C
C       0.5679   0.6619   0.6115     C
C       0.5741   0.2253   0.2543     C
C       0.5741   0.7253   0.2457     C
H       0.5779   0.4781   0.7107     H
H       0.5779   0.9781   0.7893     H
N       0.5808   0.1111   0.8245     N
N       0.5808   0.6111   0.6755     N
H       0.5816   0.2284   0.8857     H
H       0.5816   0.7284   0.6143     H
C       0.5937   0.4027   0.1829     C
C       0.5937   0.9027   0.3171     C
Mn     0.60571  0.18751  0.70829    Mn
Mn     0.60571  0.68751  0.79171    Mn
N       0.6218    0.239   0.6341     N
N       0.6218    0.739   0.8659     N
N       0.6749   0.1748   0.2816     N
N       0.6749   0.6748   0.2184     N
N       0.7048   0.4582   0.1694     N
N       0.7048   0.9582   0.3306     N
C       0.7796   0.0843   0.6831     C
C       0.7796   0.5843   0.8169     C
C       0.7978   0.2601   0.7626     C
C       0.7978   0.7601   0.7374     C
N       0.8772   0.0237   0.6676     N
N       0.8772   0.5237   0.8324     N
Mn     0.89897     0.08  0.31409    Mn
Mn     0.89897     0.58  0.18591    Mn
N       0.9027   0.3044   0.7955     N
N       0.9027   0.8044   0.7045     N
H       0.9155   0.1778   0.1577     H
H       0.9155   0.6778   0.3423     H
N       0.9197   0.0442   0.1921     N
N       0.9197   0.5442   0.3079     N
H       0.9198   0.4034   0.3018     H
H       0.9198   0.9034   0.1982     H
C       0.9308   0.1151   0.1411     C
C       0.9308   0.6151   0.3589     C
C       0.9328   0.4546   0.3346     C
C       0.9328   0.9546   0.1654     C
C       0.9624   0.1024   0.0678     C
C       0.9624   0.6024   0.4322     C
C       0.9648   0.4348   0.4088     C
C       0.9648   0.9348   0.0912     C
H       0.9709   0.1552   0.0362     H
H       0.9709   0.6552   0.4638     H
H       0.9748   0.3713   0.4243     H
H       0.9748   0.8713   0.0757     H
C       0.9822    0.009   0.0396     C
C       0.9822    0.509   0.4604     C
