data_I
_chemical_name_common  '/home/zhangsd/repos/MofS-CGCNN/ML/data/SSD/clean_cifs/IDORIE_clean'
_cell_length_a 18.17700
_cell_length_b 23.86700
_cell_length_c 22.42500
_cell_angle_alpha 90.00000
_cell_angle_beta  90.00000
_cell_angle_gamma 90.00000
_space_group_name_H-M_alt      'P 1'


loop_
_space_group_symop_operation_xyz
  'x, y, z' 

loop_
_atom_site_label
_atom_site_fract_x
_atom_site_fract_y
_atom_site_fract_z
_atom_site_type_symbol
N       0.0034   0.0484   0.8965     N
N       0.0037   0.6794   0.0717     N
C       0.0054   0.9645    0.453     C
N       0.0082   0.8338   0.3926     N
N       0.0089   0.7319   0.0952     N
N       0.0119   0.4376   0.5556     N
C       0.0147   0.4569   0.5005     C
H        0.015    0.055   0.9849     H
N        0.017   0.7857   0.3603     N
N        0.024   0.4955   0.9953     N
H       0.0281   0.5301   0.8852     H
C       0.0295   0.9928    0.364     C
C         0.03   0.5241   0.0871     C
H       0.0302   0.9955   0.3226     H
C       0.0305    0.464   0.9405     C
C       0.0314   0.4912   0.8867     C
H       0.0359   0.4774   0.7965     H
C       0.0372   0.4594   0.8333     C
C       0.0398   0.4056   0.9442     C
H       0.0402   0.4398   0.4695     H
H       0.0403   0.5262   0.1276     H
H       0.0411   0.3875    0.981     H
N       0.0429   0.3997    0.727     N
C       0.0446   0.4016    0.836     C
C       0.0468   0.3758    0.892     C
N       0.0489   0.0109   0.4582     N
C       0.0502   0.3727   0.7792     C
N       0.0523    0.362   0.6852     N
H       0.0532   0.3372   0.8939     H
C       0.0538   0.4833   0.0502     C
N       0.0549   0.8349   0.4357     N
N       0.0598   0.6712   0.0339     N
C       0.0618   0.0302   0.4039     C
N        0.062   0.3121   0.7087     N
N        0.062   0.3167   0.7688     N
C       0.0621   0.0381   0.5146     C
H       0.0645    0.119   0.4845     H
C       0.0657   0.0969   0.5186     C
C       0.0672   0.7543   0.0712     C
C       0.0686   0.0065   0.5653     C
N       0.0694   0.0853   0.7357     N
C       0.0699   0.0318   0.6214     C
N         0.07   0.1705   0.6971     N
C       0.0703     0.09   0.6272     C
Cu     0.07032  0.24238  0.65523    Cu
Cu     0.07052  0.24565  0.81064    Cu
H       0.0706   0.0095   0.6554     H
C       0.0707   0.1151   0.6857     C
N       0.0707   0.1242   0.7797     N
C       0.0709   0.1205   0.5737     C
N       0.0711   0.1749   0.7573     N
H       0.0723   0.9677   0.5622     H
Cu     0.07277  0.10966  0.87472    Cu
Cu     0.07319  0.37806  0.59275    Cu
C       0.0742   0.7605   0.3862     C
H       0.0751   0.1593   0.5761     H
H       0.0755   0.0302   0.0962     H
H       0.0841   0.4532   0.0599     H
H       0.0876   0.0626   0.3942     H
C       0.0919   0.8119   0.0772     C
H       0.0945   0.8172   0.1686     H
H       0.0959   0.8263   0.9883     H
H       0.0965   0.7262   0.2764     H
N       0.0974   0.7891   0.4324     N
N       0.0988   0.7183   0.0326     N
C       0.1029   0.8373   0.1337     C
C       0.1041   0.8428   0.0253     C
C       0.1053   0.7063   0.3642     C
C        0.111   0.6982   0.3028     C
H       0.1172   0.5329   0.2326     H
H       0.1195    0.505   0.5725     H
H       0.1223   0.9816   0.8952     H
C        0.124   0.0279   0.0832     C
H       0.1248   0.6734   0.4437     H
C       0.1265   0.8929   0.1364     C
C       0.1277   0.6664   0.4029     C
C       0.1285   0.8983   0.0282     C
H       0.1323   0.9107    0.173     H
H       0.1359    0.919   0.9936     H
C       0.1383   0.6483    0.282     C
C       0.1414   0.9217   0.0831     C
H       0.1424    0.642   0.2412     H
N       0.1459   0.1732   0.8969     N
N       0.1483   0.2236   0.8725     N
N       0.1487   0.4354   0.6122     N
C       0.1524   0.4879   0.5986     C
C       0.1548   0.6154   0.3833     C
N       0.1554   0.3194   0.5803     N
C       0.1554   0.5223   0.2579     C
N       0.1566   0.0561   0.8657     N
N       0.1569   0.2657   0.6028     N
C       0.1598   0.6074   0.3223     C
C       0.1605   0.0019    0.878     C
N       0.1656    0.072   0.0593     N
N       0.1683   0.9798    0.084     N
H        0.169   0.5876     0.41     H
Cu     0.17242  0.77648  0.48855    Cu
H        0.181    0.442   0.2321     H
N       0.1855   0.5544   0.3021     N
H       0.1869   0.5199   0.8228     H
N         0.19   0.1708   0.9433     N
Cu     0.19023  0.72243   0.9938    Cu
C       0.1911    0.472   0.2572     C
C        0.198   0.2522   0.9026     C
C        0.206   0.4272   0.6522     C
N       0.2068   0.5156   0.6248     N
N       0.2091   0.3253   0.5415     N
Cu      0.2107   0.1168   0.9998    Cu
H       0.2112   0.3376   0.9788     H
C       0.2142   0.2411   0.5784     C
H       0.2175    0.568    0.525     H
C       0.2178   0.3117    0.893     C
H       0.2182   0.3934   0.6703     H
H       0.2184   0.9847   0.6857     H
C       0.2197   0.3495     0.94     C
H       0.2227   0.4702    0.056     H
C       0.2237    0.068   0.8395     C
N       0.2242   0.2202   0.9475     N
C       0.2246   0.5721   0.6153     C
H       0.2257   0.5716   0.0288     H
N       0.2262   0.9795   0.8627     N
C       0.2274   0.5921   0.5566     C
H       0.2289   0.3044   0.8032     H
H       0.2291   0.1864   0.6835     H
C       0.2322   0.3296   0.8346     C
H       0.2335   0.4313   0.9591     H
C       0.2344   0.5223    0.838     C
C       0.2345   0.1838   0.5914     C
C       0.2345   0.4054   0.9281     C
H       0.2352   0.8978   0.7856     H
C       0.2357   0.0512   0.0453     C
H       0.2359   0.0359   0.3594     H
C       0.2362   0.5243   0.3269     C
C       0.2374   0.9942   0.0606     C
H       0.2376   0.1029    0.825     H
H       0.2379   0.5965   0.6997     H
C       0.2394    0.163   0.6514     C
C       0.2408   0.6093   0.6606     C
C       0.2418   0.4779   0.6607     C
H       0.2426   0.6607   0.5068     H
N       0.2438   0.4736   0.2996     N
C       0.2448   0.6473   0.5457     C
N       0.2476   0.2764   0.5409     N
C       0.2484   0.8858   0.8236     C
C       0.2498   0.9231   0.8722     C
C       0.2502   0.4231   0.8722     C
C       0.2516   0.3858   0.8236     C
N       0.2524   0.7764   0.5409     N
C       0.2552   0.1473   0.5457     C
N       0.2562   0.9736   0.2996     N
H       0.2574   0.1607   0.5068     H
C       0.2582   0.9779   0.6607     C
C       0.2592   0.1093   0.6606     C
C       0.2606    0.663   0.6514     C
H       0.2621   0.0965   0.6997     H
H       0.2624   0.6029    0.825     H
C       0.2626   0.4942   0.0606     C
C       0.2638   0.0243   0.3269     C
H       0.2641   0.5359   0.3594     H
C       0.2643   0.5512   0.0453     C
H       0.2648   0.3978   0.7856     H
C       0.2655   0.6838   0.5914     C
C       0.2655   0.9054   0.9281     C
C       0.2656   0.0223    0.838     C
H       0.2665   0.9313   0.9591     H
C       0.2678   0.8296   0.8346     C
H       0.2709   0.6864   0.6835     H
H       0.2711   0.8044   0.8032     H
C       0.2726   0.0921   0.5566     C
N       0.2738   0.4795   0.8627     N
H       0.2743   0.0716   0.0288     H
C       0.2754   0.0721   0.6153     C
N       0.2758   0.7202   0.9475     N
C       0.2763    0.568   0.8395     C
H       0.2773   0.9702    0.056     H
C       0.2803   0.8495     0.94     C
H       0.2816   0.4847   0.6857     H
H       0.2818   0.8934   0.6703     H
C       0.2822   0.8117    0.893     C
H       0.2825    0.068    0.525     H
C       0.2858   0.7411   0.5784     C
H       0.2888   0.8376   0.9788     H
Cu      0.2893   0.6168   0.9998    Cu
N       0.2909   0.8253   0.5415     N
N       0.2932   0.0156   0.6248     N
C        0.294   0.9272   0.6522     C
C        0.302   0.7522   0.9026     C
C       0.3089    0.972   0.2572     C
Cu     0.30977  0.22243   0.9938    Cu
N         0.31   0.6708   0.9433     N
H       0.3131   0.0199   0.8228     H
N       0.3145   0.0544   0.3021     N
H        0.319    0.942   0.2321     H
Cu     0.32758  0.27648  0.48855    Cu
H        0.331   0.0876     0.41     H
N       0.3317   0.4798    0.084     N
N       0.3344    0.572   0.0593     N
C       0.3395   0.5019    0.878     C
C       0.3402   0.1074   0.3223     C
N       0.3431   0.7657   0.6028     N
N       0.3434   0.5561   0.8657     N
C       0.3446   0.0223   0.2579     C
N       0.3446   0.8194   0.5803     N
C       0.3452   0.1154   0.3833     C
C       0.3476   0.9879   0.5986     C
N       0.3513   0.9354   0.6122     N
N       0.3517   0.7236   0.8725     N
N       0.3541   0.6732   0.8969     N
H       0.3576    0.142   0.2412     H
C       0.3586   0.4217   0.0831     C
C       0.3617   0.1483    0.282     C
H       0.3641    0.419   0.9936     H
H       0.3677   0.4107    0.173     H
C       0.3715   0.3983   0.0282     C
C       0.3723   0.1664   0.4029     C
C       0.3735   0.3929   0.1364     C
H       0.3752   0.1734   0.4437     H
C        0.376   0.5279   0.0832     C
H       0.3777   0.4816   0.8952     H
H       0.3805    0.005   0.5725     H
H       0.3828   0.0329   0.2326     H
C        0.389   0.1982   0.3028     C
C       0.3947   0.2063   0.3642     C
C       0.3959   0.3428   0.0253     C
C       0.3971   0.3373   0.1337     C
N       0.4012   0.2183   0.0326     N
N       0.4026   0.2891   0.4324     N
H       0.4035   0.2262   0.2764     H
H       0.4041   0.3263   0.9883     H
H       0.4055   0.3172   0.1686     H
C       0.4081   0.3119   0.0772     C
H       0.4124   0.5626   0.3942     H
H       0.4159   0.9532   0.0599     H
H       0.4245   0.5302   0.0962     H
H       0.4249   0.6593   0.5761     H
C       0.4258   0.2605   0.3862     C
Cu     0.42681  0.87806  0.59275    Cu
Cu     0.42723  0.60966  0.87472    Cu
H       0.4277   0.4677   0.5622     H
N       0.4289   0.6749   0.7573     N
C       0.4291   0.6205   0.5737     C
C       0.4293   0.6151   0.6857     C
N       0.4293   0.6242   0.7797     N
H       0.4294   0.5095   0.6554     H
Cu     0.42948  0.74565  0.81064    Cu
Cu     0.42968  0.74238  0.65523    Cu
C       0.4297     0.59   0.6272     C
N         0.43   0.6705   0.6971     N
C       0.4301   0.5318   0.6214     C
N       0.4306   0.5853   0.7357     N
C       0.4314   0.5065   0.5653     C
C       0.4328   0.2543   0.0712     C
C       0.4343   0.5969   0.5186     C
H       0.4355    0.619   0.4845     H
C       0.4379   0.5381   0.5146     C
N        0.438   0.8121   0.7087     N
N        0.438   0.8167   0.7688     N
C       0.4382   0.5302   0.4039     C
N       0.4402   0.1712   0.0339     N
N       0.4451   0.3349   0.4357     N
C       0.4462   0.9833   0.0502     C
H       0.4468   0.8372   0.8939     H
N       0.4477    0.862   0.6852     N
C       0.4498   0.8727   0.7792     C
N       0.4511   0.5109   0.4582     N
C       0.4532   0.8758    0.892     C
C       0.4554   0.9016    0.836     C
N       0.4571   0.8997    0.727     N
H       0.4589   0.8875    0.981     H
H       0.4597   0.0262   0.1276     H
H       0.4598   0.9398   0.4695     H
C       0.4602   0.9056   0.9442     C
C       0.4628   0.9594   0.8333     C
H       0.4641   0.9774   0.7965     H
C       0.4686   0.9912   0.8867     C
C       0.4695    0.964   0.9405     C
H       0.4698   0.4955   0.3226     H
C         0.47   0.0241   0.0871     C
C       0.4705   0.4928    0.364     C
H       0.4719   0.0301   0.8852     H
N        0.476   0.9955   0.9953     N
N        0.483   0.2857   0.3603     N
H        0.485    0.555   0.9849     H
C       0.4853   0.9569   0.5005     C
N       0.4881   0.9376   0.5556     N
N       0.4911   0.2319   0.0952     N
N       0.4918   0.3338   0.3926     N
C       0.4946   0.4645    0.453     C
N       0.4963   0.1794   0.0717     N
N       0.4966   0.5484   0.8965     N
N       0.5034   0.4516   0.3965     N
N       0.5037   0.8206   0.5717     N
C       0.5054   0.5355    0.953     C
N       0.5082   0.6662   0.8926     N
N       0.5089   0.7681   0.5952     N
N       0.5119   0.0624   0.0556     N
C       0.5147   0.0431   0.0005     C
H        0.515    0.445   0.4849     H
N        0.517   0.7143   0.8603     N
N        0.524   0.0045   0.4953     N
H       0.5281   0.9699   0.3852     H
C       0.5295   0.5072    0.864     C
C         0.53   0.9759   0.5871     C
H       0.5302   0.5045   0.8226     H
C       0.5305    0.036   0.4405     C
C       0.5314   0.0088   0.3867     C
H       0.5359   0.0226   0.2965     H
C       0.5372   0.0406   0.3333     C
C       0.5398   0.0944   0.4442     C
H       0.5402   0.0602   0.9695     H
H       0.5403   0.9738   0.6276     H
H       0.5411   0.1125    0.481     H
N       0.5429   0.1003    0.227     N
C       0.5446   0.0984    0.336     C
C       0.5468   0.1242    0.392     C
N       0.5489   0.4891   0.9582     N
C       0.5502   0.1273   0.2792     C
N       0.5523    0.138   0.1852     N
H       0.5532   0.1628   0.3939     H
C       0.5538   0.0167   0.5502     C
N       0.5549   0.6651   0.9357     N
N       0.5598   0.8288   0.5339     N
C       0.5618   0.4698   0.9039     C
N        0.562   0.1833   0.2688     N
N        0.562   0.1879   0.2087     N
C       0.5621   0.4619   0.0146     C
H       0.5645    0.381   0.9845     H
C       0.5657   0.4031   0.0186     C
C       0.5672   0.7457   0.5712     C
C       0.5686   0.4935   0.0653     C
N       0.5694   0.4147   0.2357     N
C       0.5699   0.4682   0.1214     C
N         0.57   0.3295   0.1971     N
C       0.5703     0.41   0.1272     C
Cu     0.57032  0.25762  0.15523    Cu
Cu     0.57052  0.25435  0.31064    Cu
H       0.5706   0.4905   0.1554     H
N       0.5707   0.3758   0.2797     N
C       0.5707   0.3849   0.1857     C
C       0.5709   0.3795   0.0737     C
N       0.5711   0.3251   0.2573     N
H       0.5723   0.5323   0.0622     H
Cu     0.57277  0.39034  0.37472    Cu
Cu     0.57319  0.12194  0.09275    Cu
C       0.5742   0.7395   0.8862     C
H       0.5751   0.3407   0.0761     H
H       0.5755   0.4698   0.5962     H
H       0.5841   0.0468   0.5599     H
H       0.5876   0.4374   0.8942     H
C       0.5919   0.6881   0.5772     C
H       0.5945   0.6828   0.6686     H
H       0.5959   0.6737   0.4883     H
H       0.5965   0.7738   0.7764     H
N       0.5974   0.7109   0.9324     N
N       0.5988   0.7817   0.5326     N
C       0.6029   0.6627   0.6337     C
C       0.6041   0.6572   0.5253     C
C       0.6053   0.7937   0.8642     C
C        0.611   0.8018   0.8028     C
H       0.6172   0.9671   0.7326     H
H       0.6195    0.995   0.0725     H
H       0.6223   0.5184   0.3952     H
C        0.624   0.4721   0.5832     C
H       0.6248   0.8266   0.9437     H
C       0.6265   0.6071   0.6364     C
C       0.6277   0.8336   0.9029     C
C       0.6285   0.6017   0.5282     C
H       0.6323   0.5893    0.673     H
H       0.6359    0.581   0.4936     H
C       0.6383   0.8517    0.782     C
C       0.6414   0.5783   0.5831     C
H       0.6424    0.858   0.7412     H
N       0.6459   0.3268   0.3969     N
N       0.6483   0.2764   0.3725     N
N       0.6487   0.0646   0.1122     N
C       0.6524   0.0121   0.0986     C
C       0.6548   0.8846   0.8833     C
N       0.6554   0.1806   0.0803     N
C       0.6554   0.9777   0.7579     C
N       0.6566   0.4439   0.3657     N
N       0.6569   0.2343   0.1028     N
C       0.6598   0.8926   0.8223     C
C       0.6605   0.4981    0.378     C
N       0.6656    0.428   0.5593     N
N       0.6683   0.5202    0.584     N
H        0.669   0.9124     0.91     H
Cu     0.67242  0.72352  0.98855    Cu
H        0.681    0.058   0.7321     H
N       0.6855   0.9456   0.8021     N
H       0.6869   0.9801   0.3228     H
N         0.69   0.3292   0.4433     N
Cu     0.69023  0.77757   0.4938    Cu
C       0.6911    0.028   0.7572     C
C        0.698   0.2478   0.4026     C
C        0.706   0.0728   0.1522     C
N       0.7068   0.9844   0.1248     N
N       0.7091   0.1747   0.0415     N
Cu      0.7107   0.3832   0.4998    Cu
H       0.7112   0.1624   0.4788     H
C       0.7142   0.2589   0.0784     C
H       0.7175    0.932    0.025     H
C       0.7178   0.1883    0.393     C
H       0.7182   0.1066   0.1703     H
H       0.7184   0.5153   0.1857     H
C       0.7197   0.1505     0.44     C
H       0.7227   0.0298    0.556     H
C       0.7237    0.432   0.3395     C
N       0.7242   0.2798   0.4475     N
C       0.7246   0.9279   0.1153     C
H       0.7257   0.9284   0.5288     H
N       0.7262   0.5205   0.3627     N
C       0.7274   0.9079   0.0566     C
H       0.7289   0.1956   0.3032     H
H       0.7291   0.3136   0.1835     H
C       0.7322   0.1704   0.3346     C
H       0.7335   0.0687   0.4591     H
C       0.7344   0.9777    0.338     C
C       0.7345   0.0946   0.4281     C
C       0.7345   0.3162   0.0914     C
H       0.7352   0.6022   0.2856     H
C       0.7357   0.4488   0.5453     C
H       0.7359   0.4641   0.8594     H
C       0.7362   0.9757   0.8269     C
C       0.7374   0.5058   0.5606     C
H       0.7376   0.3971    0.325     H
H       0.7379   0.9035   0.1997     H
C       0.7394    0.337   0.1514     C
C       0.7408   0.8907   0.1606     C
C       0.7418   0.0221   0.1607     C
H       0.7426   0.8393   0.0068     H
N       0.7438   0.0264   0.7996     N
C       0.7448   0.8527   0.0457     C
N       0.7476   0.2236   0.0409     N
C       0.7484   0.6142   0.3236     C
C       0.7498   0.5769   0.3722     C
C       0.7502   0.0769   0.3722     C
C       0.7516   0.1142   0.3236     C
N       0.7524   0.7236   0.0409     N
C       0.7552   0.3527   0.0457     C
N       0.7562   0.5264   0.7996     N
H       0.7574   0.3393   0.0068     H
C       0.7582   0.5221   0.1607     C
C       0.7592   0.3907   0.1606     C
C       0.7606    0.837   0.1514     C
H       0.7621   0.4035   0.1997     H
H       0.7624   0.8971    0.325     H
C       0.7626   0.0058   0.5606     C
C       0.7638   0.4757   0.8269     C
H       0.7641   0.9641   0.8594     H
C       0.7643   0.9488   0.5453     C
H       0.7648   0.1022   0.2856     H
C       0.7655   0.5946   0.4281     C
C       0.7655   0.8162   0.0914     C
C       0.7656   0.4777    0.338     C
H       0.7665   0.5687   0.4591     H
C       0.7678   0.6704   0.3346     C
H       0.7709   0.8136   0.1835     H
H       0.7711   0.6956   0.3032     H
C       0.7726   0.4079   0.0566     C
N       0.7738   0.0205   0.3627     N
H       0.7743   0.4284   0.5288     H
C       0.7754   0.4279   0.1153     C
N       0.7758   0.7798   0.4475     N
C       0.7763    0.932   0.3395     C
H       0.7773   0.5298    0.556     H
C       0.7803   0.6505     0.44     C
H       0.7816   0.0153   0.1857     H
H       0.7818   0.6066   0.1703     H
C       0.7822   0.6883    0.393     C
H       0.7825    0.432    0.025     H
C       0.7858   0.7589   0.0784     C
H       0.7888   0.6624   0.4788     H
Cu      0.7893   0.8832   0.4998    Cu
N       0.7909   0.6747   0.0415     N
N       0.7932   0.4844   0.1248     N
C        0.794   0.5728   0.1522     C
C        0.802   0.7478   0.4026     C
C       0.8089    0.528   0.7572     C
Cu     0.80977  0.27757   0.4938    Cu
N         0.81   0.8292   0.4433     N
H       0.8131   0.4801   0.3228     H
N       0.8145   0.4456   0.8021     N
H        0.819    0.558   0.7321     H
Cu     0.82758  0.22352  0.98855    Cu
H        0.831   0.4124     0.91     H
N       0.8317   0.0202    0.584     N
N       0.8344    0.928   0.5593     N
C       0.8395   0.9981    0.378     C
C       0.8402   0.3926   0.8223     C
N       0.8431   0.7343   0.1028     N
N       0.8434   0.9439   0.3657     N
C       0.8446   0.4777   0.7579     C
N       0.8446   0.6806   0.0803     N
C       0.8452   0.3846   0.8833     C
C       0.8476   0.5121   0.0986     C
N       0.8513   0.5646   0.1122     N
N       0.8517   0.7764   0.3725     N
N       0.8541   0.8268   0.3969     N
H       0.8576    0.358   0.7412     H
C       0.8586   0.0783   0.5831     C
C       0.8617   0.3517    0.782     C
H       0.8641    0.081   0.4936     H
H       0.8677   0.0893    0.673     H
C       0.8715   0.1017   0.5282     C
C       0.8723   0.3336   0.9029     C
C       0.8735   0.1071   0.6364     C
H       0.8752   0.3266   0.9437     H
C        0.876   0.9721   0.5832     C
H       0.8777   0.0184   0.3952     H
H       0.8805    0.495   0.0725     H
H       0.8828   0.4671   0.7326     H
C        0.889   0.3018   0.8028     C
C       0.8947   0.2937   0.8642     C
C       0.8959   0.1572   0.5253     C
C       0.8971   0.1627   0.6337     C
N       0.9012   0.2817   0.5326     N
N       0.9026   0.2109   0.9324     N
H       0.9035   0.2738   0.7764     H
H       0.9041   0.1737   0.4883     H
H       0.9055   0.1828   0.6686     H
C       0.9081   0.1881   0.5772     C
H       0.9124   0.9374   0.8942     H
H       0.9159   0.5468   0.5599     H
H       0.9245   0.9698   0.5962     H
H       0.9249   0.8407   0.0761     H
C       0.9258   0.2395   0.8862     C
Cu     0.92681  0.62194  0.09275    Cu
Cu     0.92723  0.89034  0.37472    Cu
H       0.9277   0.0323   0.0622     H
N       0.9289   0.8251   0.2573     N
C       0.9291   0.8795   0.0737     C
N       0.9293   0.8758   0.2797     N
C       0.9293   0.8849   0.1857     C
H       0.9294   0.9905   0.1554     H
Cu     0.92948  0.75435  0.31064    Cu
Cu     0.92968  0.75762  0.15523    Cu
C       0.9297     0.91   0.1272     C
N         0.93   0.8295   0.1971     N
C       0.9301   0.9682   0.1214     C
N       0.9306   0.9147   0.2357     N
C       0.9314   0.9935   0.0653     C
C       0.9328   0.2457   0.5712     C
C       0.9343   0.9031   0.0186     C
H       0.9355    0.881   0.9845     H
C       0.9379   0.9619   0.0146     C
N        0.938   0.6833   0.2688     N
N        0.938   0.6879   0.2087     N
C       0.9382   0.9698   0.9039     C
N       0.9402   0.3288   0.5339     N
N       0.9451   0.1651   0.9357     N
C       0.9462   0.5167   0.5502     C
H       0.9468   0.6628   0.3939     H
N       0.9477    0.638   0.1852     N
C       0.9498   0.6273   0.2792     C
N       0.9511   0.9891   0.9582     N
C       0.9532   0.6242    0.392     C
C       0.9554   0.5984    0.336     C
N       0.9571   0.6003    0.227     N
H       0.9589   0.6125    0.481     H
H       0.9597   0.4738   0.6276     H
H       0.9598   0.5602   0.9695     H
C       0.9602   0.5944   0.4442     C
C       0.9628   0.5406   0.3333     C
H       0.9641   0.5226   0.2965     H
C       0.9686   0.5088   0.3867     C
C       0.9695    0.536   0.4405     C
H       0.9698   0.0045   0.8226     H
C         0.97   0.4759   0.5871     C
C       0.9705   0.0072    0.864     C
H       0.9719   0.4699   0.3852     H
N        0.976   0.5045   0.4953     N
N        0.983   0.2143   0.8603     N
H        0.985    0.945   0.4849     H
C       0.9853   0.5431   0.0005     C
N       0.9881   0.5624   0.0556     N
N       0.9911   0.2681   0.5952     N
N       0.9918   0.1662   0.8926     N
C       0.9946   0.0355    0.953     C
N       0.9963   0.3206   0.5717     N
N       0.9966   0.9516   0.3965     N
