data_I
_chemical_name_common  '/home/zhangsd/repos/MofS-CGCNN/ML/data/SSD/clean_cifs/IFENOY_clean'
_cell_length_a  5.14620
_cell_length_b 18.97980
_cell_length_c 18.97980
_cell_angle_alpha 88.94690
_cell_angle_beta  82.20840
_cell_angle_gamma 82.20830
_space_group_name_H-M_alt      'P 1'


loop_
_space_group_symop_operation_xyz
  'x, y, z' 

loop_
_atom_site_label
_atom_site_fract_x
_atom_site_fract_y
_atom_site_fract_z
_atom_site_type_symbol
C      0.00373   0.3661  0.20684     C
C      0.00408  0.30857  0.16767     C
C      0.00784  0.80961  0.97411     C
C      0.00903  0.86342  0.72272     C
C      0.01805  0.97411  0.19039     C
H       0.0273   0.0597   0.8149     H
H        0.034   0.0122   0.0882     H
C       0.0474   0.4376   0.1742     C
H       0.0495   0.3105   0.1175     H
H       0.0553   0.9509   0.2933     H
O      0.06964  0.48807  0.21725     O
N      0.07145  0.69558  0.18392     N
C      0.07257  0.62637  0.16449     C
O      0.07825  0.44459  0.11231     O
C      0.09612  0.01766   0.1325     C
C      0.10901   0.9803  0.25448     C
C      0.12755  0.27728  0.86342     C
C      0.13378  0.33484   0.9098     C
H       0.1344   0.9878   0.9118     H
O      0.14756  0.52882  0.97046     O
N      0.14779  0.89002   0.6066     N
H       0.1578   0.8149   0.9403     H
H       0.1808   0.0596   0.5274     H
C      0.18255  0.02589  0.80961     C
Zn     0.19842  0.94087  0.51214    Zn
N      0.23297  0.81608  0.69558     N
N      0.24561   0.6066  0.10998     N
C      0.24628  0.98234   0.8675     C
C      0.25873  0.06725  0.13889     C
H       0.2675   0.1742   0.8388     H
C      0.26825  0.72272  0.13658     C
C      0.27555  0.21251  0.86959     C
H       0.2805   0.8258   0.1612     H
C      0.28397   0.0309  0.26296     C
Zn     0.28945  0.51214  0.05912    Zn
H       0.2918   0.5274   0.9404     H
C      0.29575  0.32862  0.96208     C
H       0.2995   0.0491   0.7067     H
C      0.30106  0.83551  0.62637     C
H       0.3012   0.3675   0.9925     H
H       0.3088    0.096   0.0992     H
O      0.32362  0.02954  0.52882     O
H       0.3313   0.0075   0.3675     H
H       0.3385   0.7976    0.827     H
C      0.34379   0.0197  0.74552     C
C      0.35259  0.75455  0.72867     C
C      0.35496  0.07665  0.20483     C
C      0.35765  0.78749  0.13041     C
C      0.37563  0.03792  0.32862     C
C      0.37842  0.66516   0.0902     C
C      0.38304   0.7549  0.80022     C
C      0.44021  0.20483  0.92335     C
O      0.44229  0.78275  0.48807     O
H       0.4463   0.8115   0.5959     H
C      0.45307  0.26296   0.9691     C
C       0.4556   0.6979   0.6875     C
H       0.4605   0.7012   0.6374     H
C      0.46487  0.93275  0.86111     C
O      0.47716  0.88769  0.44459     O
H       0.4775   0.6895   0.8825     H
C      0.48032  0.69143  0.83233     C
H        0.504    0.904   0.9008     H
C      0.51194  0.13041  0.21251     C
C        0.515   0.8258   0.4376     C
C      0.53138   0.0902  0.33484     C
C       0.5551   0.6345   0.7183     C
H       0.5583   0.1612   0.1742     H
C      0.56839  0.79517  0.07665     C
C      0.57667   0.6339  0.79316     C
C      0.57783   0.9691  0.73704     C
C      0.58645  0.67138  0.03792     C
H        0.592   0.0992    0.904     H
C      0.59517  0.13658  0.27728     C
H       0.5952   0.9008    0.096     H
C      0.60238  0.13889  0.93275     C
H       0.6075   0.5926   0.6906     H
C      0.63017  0.79316   0.3661     C
O      0.63515  0.55541  0.88769     O
C      0.63644  0.92335  0.79517     C
C      0.63651  0.25448   0.0197     C
H         0.64   0.8825   0.3105     H
N      0.64441  0.10998   0.3934     N
O      0.64684  0.47118  0.02954     O
H       0.6514   0.2933   0.0491     H
Zn     0.65142  0.05913  0.48786    Zn
C       0.6592   0.5624   0.8258     C
H       0.6612   0.6325   0.0075     H
C      0.67402  0.86111  0.06725     C
C      0.68513  0.73704   0.0309     C
C      0.68735  0.83233  0.30857     C
H       0.7019   0.6906   0.4074     H
H       0.7063   0.9925   0.6325     H
O      0.71311  0.21725  0.51193     O
C       0.7266   0.7183   0.3655     C
C      0.74217  0.96208  0.67138     C
H       0.7422   0.4041   0.8115     H
N      0.74463  0.18392  0.30442     N
H       0.7596   0.4726   0.0596     H
C      0.76294  0.16449  0.37363     C
H       0.7678   0.9404   0.4726     H
C      0.77138   0.1325  0.98234     C
O      0.77496  0.51193  0.78275     O
C       0.7784   0.1742   0.5624     C
C      0.78943  0.20684   0.6339     C
C      0.79156  0.19039  0.02589     C
H       0.7991   0.2988   0.3626     H
H       0.7999   0.3094   0.5926     H
O      0.80944  0.11231  0.55541     O
C       0.8104   0.2817   0.6345     C
C      0.81674  0.80022   0.2451     C
C      0.82825  0.16767  0.69143     C
H        0.833   0.1175   0.6895     H
H       0.8345    0.827   0.2024     H
C      0.83581  0.24545  0.27133     C
H       0.8383   0.3626   0.7012     H
C        0.841   0.3021   0.3125     C
C       0.8465   0.3125   0.6979     C
H       0.8537   0.1885   0.4041     H
C      0.85486  0.86959  0.78749     C
C       0.8569   0.6875   0.3021     C
Zn     0.86071  0.48786  0.94088    Zn
C      0.86206  0.19978   0.7549     C
C      0.86343  0.37363  0.83551     C
H       0.8639    0.173   0.7976     H
H       0.8778   0.0882   0.9878     H
O      0.88198  0.97046  0.47118     O
C      0.88622   0.8675  0.01766     C
H       0.8907   0.4074   0.3094     H
C      0.89286  0.27133  0.75455     C
H       0.8937   0.8388   0.8258     H
H       0.9019   0.9403   0.1851     H
H       0.9021   0.6374   0.2988     H
C       0.9079   0.3655   0.2817     C
C      0.91069  0.74552   0.9803     C
H        0.913   0.1851   0.0597     H
C      0.91874  0.72867  0.24545     C
C      0.93816   0.2451  0.19978     C
N      0.95095  0.30442  0.81608     N
H       0.9538   0.9118   0.0122     H
C      0.95642   0.9098  0.66516     C
H       0.9578   0.5959   0.1885     H
N      0.96219   0.3934  0.89002     N
H       0.9631   0.2024    0.173     H
H       0.9938   0.7067   0.9509     H
