data_I
_chemical_name_common  '/home/zhangsd/repos/MofS-CGCNN/ML/data/SSD/clean_cifs/IFENOY03_SL'
_cell_length_a 26.43660
_cell_length_b 26.43660
_cell_length_c  5.32870
_cell_angle_alpha 90.00000
_cell_angle_beta  90.00000
_cell_angle_gamma 90.00000
_space_group_name_H-M_alt      'P 1'


loop_
_space_group_symop_operation_xyz
  'x, y, z' 

loop_
_atom_site_label
_atom_site_fract_x
_atom_site_fract_y
_atom_site_fract_z
_atom_site_type_symbol
H       0.0006   0.5999   0.6536     H
C       0.0008    0.192    0.354     C
H       0.0065    0.668   0.9689     H
C      0.01149  0.75843   0.3266     C
H       0.0144   0.3116   0.3932     H
H       0.0214   0.8321   0.2906     H
C       0.0226   0.2774    0.401     C
C       0.0345   0.6049   0.6136     C
H       0.0376    0.552   0.3492     H
C      0.04038  0.67226   0.9276     C
C       0.0423   0.1763    0.464     C
H        0.047   0.1425   0.5073     H
H        0.052   0.4624   0.1508     H
C       0.0566   0.5766   0.4311     C
N      0.05987  0.74413   0.2254     N
C       0.0633  0.64214   0.7438     C
H       0.0649   0.3787   0.2663     H
C      0.06947   0.7084   0.0457     C
C       0.0709   0.2619    0.491     C
C       0.0766   0.4434   0.0689     C
C      0.08113    0.215   0.5164     C
C       0.0837   0.3928   0.1364     C
H       0.0951   0.2861   0.5317     H
H       0.0999   0.4994   0.8464     H
C      0.10402   0.7686   0.2723     C
C       0.1049   0.4655   0.8864     C
H       0.1071   0.7954   0.3844     H
C       0.1072   0.5837   0.3636     C
C       0.1156  0.64723   0.6852     C
C       0.1184    0.364   0.0114     C
H       0.1213   0.5649   0.2337     H
C        0.122  0.71267   0.9942     C
H       0.1229   0.3303   0.0571     H
C       0.1308   0.1959    0.603     C
C        0.136   0.6184   0.4886     C
N      0.14139  0.75053   0.1436     N
O       0.1421   0.1553    0.682     O
C      0.14214   0.4367   0.7562     C
H       0.1425    0.953   0.4927     H
C      0.14515  0.68324   0.8112     C
C      0.14723   0.3844   0.8148     C
O       0.1553   0.8579    0.318     O
O      0.16516  0.22421   0.6397     O
H       0.1679   0.0214   0.7094     H
H        0.168   0.4935   0.5311     H
H       0.1697   0.6229   0.4429     H
C      0.17226  0.45962   0.5724     C
C       0.1763   0.9577    0.536     C
H       0.1793   0.6873   0.7734     H
C      0.18324  0.35485   0.6888     C
H       0.1873   0.3207   0.7266     H
H       0.1884   0.5144   0.1068     H
C        0.192   0.9992    0.646     C
C       0.1959   0.8692    0.397     C
H       0.1975  0.25753   0.3251     H
H       0.2046   0.1071   0.6156     H
C       0.2084  0.43053   0.4543     C
C      0.21267    0.378   0.5058     C
H       0.2139   0.5951   0.9683     H
Zn      0.2149  0.77377   0.1674    Zn
C        0.215  0.91887   0.4836     C
C       0.2226   0.5226    0.099     C
O      0.22398  0.24618   0.1562     O
O      0.22421  0.83484   0.3603     O
Zn     0.22623   0.2149   0.8326    Zn
C       0.2314  0.10402   0.7277     C
C       0.2381   0.5709    0.009     C
C      0.24157  0.01149   0.6734     C
H      0.24247   0.6975   0.1749     H
N      0.24413  0.44013   0.2746     N
O      0.24618  0.77602   0.8438     O
N      0.24947  0.14139   0.8564     N
N      0.25053  0.35861   0.3564     N
O      0.25382  0.72398   0.3438     O
N      0.25587  0.05987   0.7746     N
H      0.25753   0.8025   0.6749     H
C      0.25843  0.48851   0.1734     C
C       0.2619   0.9291    0.509     C
C       0.2686  0.39598   0.2277     C
Zn     0.27377   0.2851   0.3326    Zn
O      0.27579  0.66516   0.8603     O
O      0.27602  0.25382   0.6562     O
C       0.2774   0.9774    0.599     C
C        0.285  0.58113   0.9836     C
Zn      0.2851  0.72623   0.6674    Zn
H       0.2861   0.9049   0.4683     H
C      0.28733    0.122   0.0058     C
C       0.2916  0.06947   0.9543     C
H       0.2954   0.3929   0.1156     H
H       0.3025  0.24247   0.8251     H
C       0.3041   0.6308    0.897     C
C        0.308   0.5008    0.146     C
H       0.3116   0.9856   0.6068     H
H       0.3127   0.1793   0.2266     H
C      0.31676  0.14515   0.1888     C
H       0.3207   0.8127   0.2734     H
C       0.3237   0.5423    0.036     C
C      0.32774  0.04038   0.0724     C
H       0.3303   0.8771   0.9429     H
H        0.332   0.0065   0.0311     H
H       0.3321   0.4786   0.2094     H
O      0.33484  0.27579   0.1397     O
O       0.3447   0.6421    0.818     O
C      0.35277   0.1156   0.3148     C
C      0.35485  0.81676   0.3112     C
H       0.3575    0.547   0.9927     H
C      0.35786   0.0633   0.2562     C
O       0.3579   0.3447    0.182     O
N      0.35861  0.74947   0.6436     N
C        0.364   0.8816   0.9886     C
C       0.3692   0.3041    0.103     C
H       0.3771   0.1697   0.5571     H
C        0.378  0.78733   0.4942     C
H       0.3787   0.9351   0.7337     H
C       0.3816    0.136   0.5114     C
C       0.3844  0.85277   0.1852     C
C       0.3928   0.9163   0.8636     C
H       0.3929   0.7046   0.8844     H
C       0.3951   0.0345   0.3864     C
C      0.39598   0.7314   0.7723     C
H       0.4001   0.0006   0.3464     H
H       0.4049   0.2139   0.0317     H
C       0.4163   0.1072   0.6364     C
C      0.41887    0.285   0.0164     C
C       0.4234   0.0566   0.5689     C
C       0.4291   0.2381    0.991     C
C      0.43053   0.7916   0.5457     C
H       0.4351   0.1213   0.7663     H
C       0.4367  0.85786   0.2438     C
N      0.44013  0.75587   0.7254     N
C       0.4434   0.9234   0.9311     C
H        0.448   0.0376   0.6508     H
H        0.453   0.3575   0.0073     H
C       0.4577   0.3237    0.964     C
C      0.45962  0.82774   0.4276     C
H       0.4624    0.948   0.8492     H
C       0.4655   0.8951   0.1136     C
C       0.4774   0.2226    0.901     C
H       0.4786   0.6679   0.7906     H
H       0.4856   0.1884   0.8932     H
C      0.48851  0.74157   0.8266     C
H       0.4935    0.832   0.4689     H
C       0.4992    0.308    0.854     C
H       0.4994   0.9001   0.1536     H
H       0.5006   0.0999   0.1536     H
C       0.5008    0.692    0.854     C
H       0.5065    0.168   0.4689     H
C      0.51149  0.25843   0.8266     C
H       0.5144   0.8116   0.8932     H
H       0.5214   0.3321   0.7906     H
C       0.5226   0.7774    0.901     C
C       0.5345   0.1049   0.1136     C
H       0.5376    0.052   0.8492     H
C      0.54038  0.17226   0.4276     C
C       0.5423   0.6763    0.964     C
H        0.547   0.6425   0.0073     H
H        0.552   0.9624   0.6508     H
C       0.5566   0.0766   0.9311     C
N      0.55987  0.24413   0.7254     N
C       0.5633  0.14214   0.2438     C
H       0.5649   0.8787   0.7663     H
C      0.56947   0.2084   0.5457     C
C       0.5709   0.7619    0.991     C
C       0.5766   0.9434   0.5689     C
C      0.58113    0.715   0.0164     C
C       0.5837   0.8928   0.6364     C
H       0.5951   0.7861   0.0317     H
H       0.5999   0.9994   0.3464     H
C      0.60402   0.2686   0.7723     C
C       0.6049   0.9655   0.3864     C
H       0.6071   0.2954   0.8844     H
C       0.6072   0.0837   0.8636     C
C       0.6156  0.14723   0.1852     C
C       0.6184    0.864   0.5114     C
H       0.6213   0.0649   0.7337     H
C        0.622  0.21267   0.4942     C
H       0.6229   0.8303   0.5571     H
C       0.6308   0.6959    0.103     C
C        0.636   0.1184   0.9886     C
N      0.64139  0.25053   0.6436     N
O       0.6421   0.6553    0.182     O
C      0.64214   0.9367   0.2562     C
H       0.6425    0.453   0.9927     H
C      0.64515  0.18324   0.3112     C
C      0.64723   0.8844   0.3148     C
O       0.6553   0.3579    0.818     O
O      0.66516  0.72421   0.1397     O
H       0.6679   0.5214   0.2094     H
H        0.668   0.9935   0.0311     H
H       0.6697   0.1229   0.9429     H
C      0.67226  0.95962   0.0724     C
C       0.6763   0.4577    0.036     C
H       0.6793   0.1873   0.2734     H
C      0.68324  0.85485   0.1888     C
H       0.6873   0.8207   0.2266     H
H       0.6884   0.0144   0.6068     H
C        0.692   0.4992    0.146     C
C       0.6959   0.3692    0.897     C
H       0.6975  0.75753   0.8251     H
H       0.7046   0.6071   0.1156     H
C       0.7084  0.93053   0.9543     C
C      0.71267    0.878   0.0058     C
H       0.7139   0.0951   0.4683     H
Zn      0.7149  0.27377   0.6674    Zn
C        0.715  0.41887   0.9836     C
C       0.7226   0.0226    0.599     C
O      0.72398  0.74618   0.6562     O
O      0.72421  0.33484   0.8603     O
Zn     0.72623   0.7149   0.3326    Zn
C       0.7314  0.60402   0.2277     C
C       0.7381   0.0709    0.509     C
C      0.74157  0.51149   0.1734     C
H      0.74247   0.1975   0.6749     H
N      0.74413  0.94013   0.7746     N
O      0.74618  0.27602   0.3438     O
N      0.74947  0.64139   0.3564     N
N      0.75053  0.85861   0.8564     N
O      0.75382  0.22398   0.8438     O
N      0.75587  0.55987   0.2746     N
H      0.75753   0.3025   0.1749     H
C      0.75843  0.98851   0.6734     C
C       0.7619   0.4291    0.009     C
C       0.7686  0.89598   0.7277     C
Zn     0.77377   0.7851   0.8326    Zn
O      0.77579  0.16516   0.3603     O
O      0.77602  0.75382   0.1562     O
C       0.7774   0.4774    0.099     C
C        0.785  0.08113   0.4836     C
Zn      0.7851  0.22623   0.1674    Zn
H       0.7861   0.4049   0.9683     H
C      0.78733    0.622   0.5058     C
C       0.7916  0.56947   0.4543     C
H       0.7954   0.8929   0.6156     H
H       0.8025  0.74247   0.3251     H
C       0.8041   0.1308    0.397     C
C        0.808   0.0008    0.646     C
H       0.8116   0.4856   0.1068     H
H       0.8127   0.6793   0.7266     H
C      0.81676  0.64515   0.6888     C
H       0.8207   0.3127   0.7734     H
C       0.8237   0.0423    0.536     C
C      0.82774  0.54038   0.5724     C
H       0.8303   0.3771   0.4429     H
H        0.832   0.5065   0.5311     H
H       0.8321   0.9786   0.7094     H
O      0.83484  0.77579   0.6397     O
O       0.8447   0.1421    0.318     O
C      0.85277   0.6156   0.8148     C
C      0.85485  0.31676   0.8112     C
H       0.8575    0.047   0.4927     H
C      0.85786   0.5633   0.7562     C
O       0.8579   0.8447    0.682     O
N      0.85861  0.24947   0.1436     N
C        0.864   0.3816   0.4886     C
C       0.8692   0.8041    0.603     C
H       0.8771   0.6697   0.0571     H
C        0.878  0.28733   0.9942     C
H       0.8787   0.4351   0.2337     H
C       0.8816    0.636   0.0114     C
C       0.8844  0.35277   0.6852     C
C       0.8928   0.4163   0.3636     C
H       0.8929   0.2046   0.3844     H
C       0.8951   0.5345   0.8864     C
C      0.89598   0.2314   0.2723     C
H       0.9001   0.5006   0.8464     H
H       0.9049   0.7139   0.5317     H
C       0.9163   0.6072   0.1364     C
C      0.91887    0.785   0.5164     C
C       0.9234   0.5566   0.0689     C
C       0.9291   0.7381    0.491     C
C      0.93053   0.2916   0.0457     C
H       0.9351   0.6213   0.2663     H
C       0.9367  0.35786   0.7438     C
N      0.94013  0.25587   0.2254     N
C       0.9434   0.4234   0.4311     C
H        0.948   0.5376   0.1508     H
H        0.953   0.8575   0.5073     H
C       0.9577   0.8237    0.464     C
C      0.95962  0.32774   0.9276     C
H       0.9624    0.448   0.3492     H
C       0.9655   0.3951   0.6136     C
C       0.9774   0.7226    0.401     C
H       0.9786   0.1679   0.2906     H
H       0.9856   0.6884   0.3932     H
C      0.98851  0.24157   0.3266     C
H       0.9935    0.332   0.9689     H
C       0.9992    0.808    0.354     C
H       0.9994   0.4001   0.6536     H
