data_I
_chemical_name_common  '/home/zhangsd/repos/MofS-CGCNN/ML/data/SSD/clean_cifs/IFEQIV_SL'
_cell_length_a  5.39600
_cell_length_b 18.71590
_cell_length_c 18.71590
_cell_angle_alpha 88.80930
_cell_angle_beta  81.71190
_cell_angle_gamma 81.71160
_space_group_name_H-M_alt      'P 1'


loop_
_space_group_symop_operation_xyz
  'x, y, z' 

loop_
_atom_site_label
_atom_site_fract_x
_atom_site_fract_y
_atom_site_fract_z
_atom_site_type_symbol
H       0.0037   0.0424   0.2938     H
N      0.02647  0.10885  0.60801     N
H         0.04   0.8166   0.4012     H
C      0.04851  0.33226  0.09072     C
N      0.05976  0.17925  0.70043     N
C      0.05984   0.7295  0.20342     C
H       0.0609   0.9847   0.0835     H
H       0.0641   0.2769   0.3325     H
C      0.07486  0.32718   0.8289     C
H       0.0826   0.9474   0.8156     H
H       0.0889   0.1664   0.1546     H
C      0.08987   0.0143  0.25356     C
Zn     0.09222  0.05769  0.51135    Zn
C      0.09624   0.8289  0.67282     C
H       0.1018   0.8156   0.0526     H
C      0.11323  0.76328  0.26406     C
C      0.12349  0.73594  0.76328     C
C      0.12478  0.97951  0.12833     C
H       0.1291   0.0153   0.9165     H
C      0.13481  0.20679  0.12679     C
C      0.13632  0.16067  0.62949     C
C      0.14057  0.23672  0.73594     C
H       0.1434   0.5988   0.8166     H
H       0.1532    0.871    0.651     H
O      0.17274   0.5211  0.03442     O
H      0.17274  0.57454  0.03331     H
H       0.1958    0.651    0.129     H
C      0.20379  0.16445  0.41477     C
C      0.20563  0.97938  0.81136     C
C      0.21066  0.79658   0.7295     C
H      0.23047  0.92591  0.52507     H
C      0.23094  0.67282   0.1711     C
C      0.23262  0.02049  0.87167     C
C      0.23419  0.62949  0.83933     C
C      0.23606   0.2582  0.31688     C
N      0.23981  0.70043  0.82075     N
O      0.24393  0.44106  0.89228     O
H       0.2578   0.1834   0.5988     H
C      0.26395  0.32766  0.04104     C
H       0.2898   0.3303   0.2345     H
C      0.29586  0.35242  0.80146     C
H       0.3033   0.3681   0.0123     H
O      0.30616  0.96558   0.5211     O
C      0.31388  0.96615  0.26109     C
O      0.31501  0.10772  0.44106     O
H       0.3286   0.9877   0.3681     H
C      0.33888  0.74122  0.29042     C
H       0.3399   0.9576   0.7062     H
C      0.33999  0.93242    0.134     C
H       0.3476   0.8156   0.7452     H
C      0.35172  0.19854  0.35242     C
C      0.35773   0.9857  0.74644     C
C      0.35774  0.20045  0.07667     C
N      0.36552  0.60801  0.89115     N
C      0.37052  0.25878  0.70958     C
C       0.3707  0.29042  0.25878     C
H       0.3799   0.7655   0.3303     H
C      0.38144  0.41477  0.83555     C
C      0.39277  0.72721  0.86545     C
Zn     0.39643  0.51135  0.94231    Zn
C      0.40641  0.06758    0.866     C
C      0.40839  0.95896  0.32766     C
H       0.4099   0.8336   0.8454     H
H       0.4215   0.0947   0.9071     H
H       0.4233   0.9053   0.0929     H
C      0.42503  0.26109  0.03385     C
C      0.44181  0.92333  0.20045     C
C      0.44706  0.31688   0.7418     C
C      0.44974  0.64758  0.19854     C
C      0.46839  0.79321  0.87321     C
C      0.47149  0.66774  0.90928     C
H       0.4757   0.2345   0.6697     H
H       0.4838   0.0929   0.0947     H
C      0.50574  0.68312   0.2582     C
C      0.52601    0.134  0.06758     C
C      0.54112  0.03385  0.73891     C
H       0.5588   0.4012   0.1834     H
C      0.56559  0.07667  0.79955     C
O      0.57727  0.55894  0.10772     O
O      0.58202  0.43543  0.80793     O
C      0.59796   0.1711  0.32718     C
H       0.6034   0.3325   0.7231     H
O      0.61005  0.80793  0.56457     O
C      0.61923  0.90928  0.33226     C
C      0.62271  0.26406  0.23672     C
C      0.63176  0.58523  0.16445     C
C      0.63265  0.67234  0.95896     C
C      0.63486  0.79955  0.92333     C
H      0.64147  0.08334  0.48417     H
C      0.65657  0.25356   0.9857     C
C       0.6584  0.87321  0.20679     C
H        0.659   0.6675   0.2769     H
Zn     0.66126  0.94231  0.48865    Zn
H       0.6714   0.9071   0.9053     H
H       0.6735   0.7231   0.6675     H
H       0.6752    0.129    0.349     H
H       0.6837   0.6319   0.9877     H
H       0.6844   0.0123   0.6319     H
C      0.69501  0.04104  0.67234     C
H       0.7025   0.2938   0.9576     H
C      0.70301  0.37051  0.16067     C
C      0.71997  0.73891  0.96615     C
C      0.72759    0.866  0.93242     C
H      0.72826  0.42546  0.96669     H
O      0.72826   0.4789  0.96558     O
C      0.73674  0.20342   0.2705     C
C       0.7384  0.12679  0.79321     C
C      0.74178  0.86545  0.27279     C
N      0.74333  0.89115  0.39199     N
H       0.7447   0.8454   0.1664     H
C      0.74689  0.12833  0.02049     C
H       0.7565   0.1546   0.8336     H
N      0.76099  0.29957  0.17925     N
C      0.78301  0.83555  0.58523     C
O      0.79284  0.03442   0.4789     O
C      0.81114   0.7418  0.68312     C
C      0.81499  0.18864  0.97938     C
O      0.82538  0.56457  0.19207     O
H       0.8368   0.2548   0.8156     H
H       0.8456   0.0526   0.1844     H
Zn     0.85009  0.48865  0.05769    Zn
H       0.8546   0.6697   0.7655     H
H       0.8556   0.0835   0.0153     H
C      0.86077  0.09072  0.66774     C
O      0.86379  0.89228  0.55894     O
N      0.86468  0.39199  0.10885     N
C      0.88002  0.13455  0.72721     C
C      0.89571  0.87167  0.97951     C
C      0.89583  0.74644   0.0143     C
C      0.90268  0.80146  0.64758     C
H       0.9072   0.7452   0.1844     H
H       0.9084   0.1844   0.2548     H
C       0.9199  0.70958  0.74122     C
C      0.92648  0.83933  0.37051     C
N      0.93944  0.82075  0.29957     N
H       0.9539   0.7062   0.0424     H
H       0.9544   0.9165   0.9847     H
H         0.97   0.1844   0.9474     H
H       0.9758    0.349    0.871     H
O      0.98255  0.19207  0.43543     O
C      0.98301  0.81136  0.02062     C
C      0.98543  0.27279  0.13455     C
C      0.99276   0.2705  0.79658     C
C      0.99637  0.02062  0.18864     C
