data_I
_chemical_name_common  '/home/zhangsd/repos/MofS-CGCNN/ML/data/SSD/clean_cifs/IJIGOX_clean'
_cell_length_a  9.84800
_cell_length_b 12.47000
_cell_length_c 12.60300
_cell_angle_alpha 63.47000
_cell_angle_beta  74.56000
_cell_angle_gamma 76.03000
_space_group_name_H-M_alt      'P 1'


loop_
_space_group_symop_operation_xyz
  'x, y, z' 

loop_
_atom_site_label
_atom_site_fract_x
_atom_site_fract_y
_atom_site_fract_z
_atom_site_type_symbol
O       0.0392   0.8217   0.5362     O
O       0.0909   0.5331    0.811     O
Ga      0.0973  0.40144  0.16234    Ga
P       0.1157   0.1694   0.4004     P
O       0.1271   0.2421   0.2645     O
O       0.1569   0.4008   0.0107     O
O       0.1814   0.4965   0.1994     O
O       0.1828   0.0447   0.4144     O
O       0.1928   0.2232   0.4526     O
Ga      0.2002  0.88246  0.51811    Ga
P       0.2102   0.4894   0.8831     P
O       0.2367   0.8668   0.6602     O
O       0.2564   0.5947   0.8841     O
O       0.3316    0.418   0.8276     O
P       0.3387   0.5087   0.1706     P
O       0.3419   0.0293   0.6552     O
O       0.3449   0.8111   0.4332     O
P       0.3616   0.8967   0.6851     P
O       0.3654   0.8278    0.821     O
O       0.3656     0.63    0.066     O
Ga      0.3669   0.1619    0.506    Ga
O       0.3737   0.5072   0.2812     O
Co      0.3921   0.6602   0.9031    Co
O        0.394   0.5942   0.5629     O
O       0.4091   0.2806   0.5379     O
O       0.4216   0.4062    0.137     O
P       0.4518   0.6979   0.4512     P
Co      0.4686   0.4647     0.69    Co
O       0.4692   0.6693   0.3423     O
O       0.4976   0.8579   0.6154     O
O       0.5024   0.1421   0.3846     O
O       0.5308   0.3307   0.6577     O
Co      0.5314   0.5353     0.31    Co
P       0.5482   0.3021   0.5488     P
O       0.5784   0.5938    0.863     O
O       0.5909   0.7194   0.4621     O
O        0.606   0.4058   0.4371     O
Co      0.6079   0.3398   0.0969    Co
O       0.6263   0.4928   0.7188     O
Ga      0.6331   0.8381    0.494    Ga
O       0.6344     0.37    0.934     O
O       0.6346   0.1722    0.179     O
P       0.6384   0.1033   0.3149     P
O       0.6551   0.1889   0.5668     O
O       0.6581   0.9707   0.3448     O
P       0.6613   0.4913   0.8294     P
O       0.6684    0.582   0.1724     O
O       0.7436   0.4053   0.1159     O
O       0.7633   0.1332   0.3398     O
P       0.7898   0.5106   0.1169     P
Ga      0.7998  0.11754  0.48189    Ga
O       0.8072   0.7768   0.5474     O
O       0.8172   0.9553   0.5856     O
O       0.8186   0.5035   0.8006     O
O       0.8431   0.5992   0.9893     O
O       0.8729   0.7579   0.7355     O
P       0.8843   0.8306   0.5996     P
Ga      0.9027  0.59856  0.83766    Ga
O       0.9091   0.4669    0.189     O
O       0.9608   0.1783   0.4638     O
