data_I
_chemical_name_common  '/home/zhangsd/repos/MofS-CGCNN/ML/data/SSD/clean_cifs/IKEBUV_clean'
_cell_length_a  8.40150
_cell_length_b  8.40150
_cell_length_c 12.01500
_cell_angle_alpha 90.00000
_cell_angle_beta  90.00000
_cell_angle_gamma 90.00000
_space_group_name_H-M_alt      'P 1'


loop_
_space_group_symop_operation_xyz
  'x, y, z' 

loop_
_atom_site_label
_atom_site_fract_x
_atom_site_fract_y
_atom_site_fract_z
_atom_site_type_symbol
O       0.0216   0.2671   0.4323     O
H       0.0289   0.1668   0.6603     H
C       0.0424    0.273     0.63     C
H       0.0624   0.6792   0.1246     H
O       0.0663   0.4641   0.7733     O
C       0.1119   0.2585   0.5125     C
C       0.1412   0.3702   0.7115     C
H       0.1668   0.9711   0.9103     H
Cu     0.19336  0.59728  0.87512    Cu
O       0.2321   0.7408   0.7529     O
C       0.2585   0.8881   0.7625     C
O       0.2592   0.2321   0.5029     O
O       0.2671   0.9784   0.6823     O
C        0.273   0.9576     0.88     C
O       0.2887   0.3519   0.7162     O
H       0.3208   0.0624   0.8746     H
O       0.3519   0.7113   0.9662     O
C       0.3702   0.8588   0.9615     C
Cu     0.40272  0.19336  0.62512    Cu
O       0.4641   0.9337   0.0233     O
O       0.5359   0.0663   0.5233     O
Cu     0.59728  0.80664  0.12512    Cu
C       0.6298   0.1412   0.4615     C
O       0.6481   0.2887   0.4662     O
H       0.6792   0.9376   0.3746     H
O       0.7113   0.6481   0.2162     O
C        0.727   0.0424     0.38     C
O       0.7329   0.0216   0.1823     O
O       0.7408   0.7679   0.0029     O
C       0.7415   0.1119   0.2625     C
O       0.7679   0.2592   0.2529     O
Cu     0.80664  0.40272  0.37512    Cu
H       0.8332   0.0289   0.4103     H
C       0.8588   0.6298   0.2115     C
C       0.8881   0.7415   0.0125     C
O       0.9337   0.5359   0.2733     O
H       0.9376   0.3208   0.6246     H
C       0.9576    0.727     0.13     C
H       0.9711   0.8332   0.1603     H
O       0.9784   0.7329   0.9323     O
