data_I
_chemical_name_common  '/home/zhangsd/repos/MofS-CGCNN/ML/data/SSD/clean_cifs/IKETOI_clean'
_cell_length_a  6.09220
_cell_length_b  9.96330
_cell_length_c 13.35980
_cell_angle_alpha 68.85300
_cell_angle_beta  81.10400
_cell_angle_gamma 76.84800
_space_group_name_H-M_alt      'P 1'


loop_
_space_group_symop_operation_xyz
  'x, y, z' 

loop_
_atom_site_label
_atom_site_fract_x
_atom_site_fract_y
_atom_site_fract_z
_atom_site_type_symbol
O       0.0142   0.4315   0.3418     O
C       0.0493   0.6174   0.5605     C
N       0.0599   0.1363   0.9458     N
O       0.0691   0.2906   0.5102     O
O       0.0847   0.4295   0.1303     O
C       0.0888   0.4399   0.0345     C
C        0.134   0.8934   0.0687     C
Gd     0.16786  0.38571  0.80429    Gd
C       0.1921   0.0298   0.0152     C
O       0.2142   0.6493   0.1837     O
O        0.223   0.3612   0.9873     O
C       0.2883   0.7661    0.141     C
C       0.2899   0.5559   0.5272     C
H        0.296   0.6752   0.3703     H
H       0.3269   0.0471   0.0281     H
C       0.3828   0.6024   0.4224     C
N       0.4066   0.4535   0.6067     N
O       0.4799   0.7834   0.1514     O
O       0.5201   0.2166   0.8486     O
N       0.5934   0.5465   0.3933     N
C       0.6172   0.3976   0.5776     C
H       0.6731   0.9529   0.9719     H
H        0.704   0.3248   0.6297     H
C       0.7101   0.4441   0.4728     C
C       0.7117   0.2339    0.859     C
O        0.777   0.6388   0.0127     O
O       0.7858   0.3507   0.8163     O
C       0.8079   0.9702   0.9848     C
Gd     0.83214  0.61429  0.19572    Gd
C        0.866   0.1066   0.9313     C
C       0.9112   0.5601   0.9655     C
O       0.9153   0.5705   0.8697     O
O       0.9309   0.7094   0.4898     O
N       0.9401   0.8637   0.0542     N
C       0.9507   0.3826   0.4395     C
O       0.9858   0.5685   0.6582     O
