data_I
_chemical_name_common  '/home/zhangsd/repos/MofS-CGCNN/ML/data/SSD/clean_cifs/IKETAU_clean'
_cell_length_a  6.16450
_cell_length_b 10.07400
_cell_length_c 13.50300
_cell_angle_alpha 68.95100
_cell_angle_beta  80.87200
_cell_angle_gamma 76.66700
_space_group_name_H-M_alt      'P 1'


loop_
_space_group_symop_operation_xyz
  'x, y, z' 

loop_
_atom_site_label
_atom_site_fract_x
_atom_site_fract_y
_atom_site_fract_z
_atom_site_type_symbol
O       0.0118   0.4309   0.3438     O
C       0.0531   0.6158   0.5591     C
N       0.0598   0.1341   0.9456     N
O       0.0647   0.2925   0.5114     O
O       0.0829   0.4308   0.1289     O
C       0.0873   0.4403   0.0338     C
C       0.1336    0.895   0.0682     C
Nd     0.17122  0.38459  0.80335    Nd
C       0.1906   0.0294   0.0145     C
O       0.2121   0.6543   0.1846     O
O       0.2206   0.3631   0.9878     O
C       0.2838   0.7695   0.1405     C
C       0.2898   0.5549    0.527     C
H       0.2984   0.6729   0.3707     H
H       0.3239   0.0469   0.0268     H
C       0.3836   0.6012   0.4225     C
N       0.4076   0.4543   0.6054     N
O       0.4738   0.7876   0.1496     O
O       0.5262   0.2124   0.8504     O
N       0.5924   0.5457   0.3946     N
C       0.6164   0.3988   0.5775     C
H       0.6761   0.9531   0.9732     H
H       0.7016   0.3271   0.6293     H
C       0.7102   0.4451    0.473     C
C       0.7162   0.2305   0.8595     C
O       0.7794   0.6369   0.0122     O
O       0.7879   0.3457   0.8154     O
C       0.8094   0.9706   0.9855     C
Nd     0.82878  0.61541  0.19666    Nd
C       0.8664    0.105   0.9318     C
C       0.9127   0.5597   0.9662     C
O       0.9171   0.5692   0.8711     O
O       0.9353   0.7075   0.4886     O
N       0.9402   0.8659   0.0544     N
C       0.9469   0.3842   0.4409     C
O       0.9882   0.5691   0.6562     O
