data_I
_chemical_name_common  '/home/zhangsd/repos/MofS-CGCNN/ML/data/SSD/clean_cifs/IKETEY_clean'
_cell_length_a  6.11390
_cell_length_b  9.98300
_cell_length_c 13.41300
_cell_angle_alpha 68.93100
_cell_angle_beta  80.96000
_cell_angle_gamma 76.68900
_space_group_name_H-M_alt      'P 1'


loop_
_space_group_symop_operation_xyz
  'x, y, z' 

loop_
_atom_site_label
_atom_site_fract_x
_atom_site_fract_y
_atom_site_fract_z
_atom_site_type_symbol
O       0.0143   0.4311   0.3423     O
C       0.0516   0.6165   0.5605     C
N       0.0611   0.1353   0.9454     N
O       0.0668   0.2907   0.5099     O
O       0.0835   0.4305   0.1296     O
C       0.0892   0.4407   0.0333     C
C       0.1325   0.8953   0.0684     C
Sm     0.16918  0.38542  0.80359    Sm
C       0.1898   0.0314   0.0151     C
O       0.2129   0.6517   0.1843     O
O       0.2237   0.3624   0.9867     O
C       0.2863   0.7672   0.1404     C
C       0.2884   0.5561   0.5272     C
H        0.298   0.6742   0.3694     H
H       0.3225   0.0496    0.029     H
C       0.3838   0.6022   0.4218     C
N       0.4062   0.4538   0.6059     N
O       0.4775    0.785   0.1509     O
O       0.5225    0.215   0.8491     O
N       0.5938   0.5462   0.3941     N
C       0.6162   0.3978   0.5782     C
H       0.6775   0.9504    0.971     H
H        0.702   0.3258   0.6306     H
C       0.7116   0.4439   0.4728     C
C       0.7137   0.2328   0.8596     C
O       0.7763   0.6376   0.0133     O
O       0.7871   0.3483   0.8157     O
C       0.8102   0.9686   0.9849     C
Sm     0.83082  0.61458  0.19641    Sm
C       0.8675   0.1047   0.9316     C
C       0.9108   0.5593   0.9667     C
O       0.9165   0.5695   0.8704     O
O       0.9332   0.7093   0.4901     O
N       0.9389   0.8647   0.0546     N
C       0.9484   0.3835   0.4395     C
O       0.9857   0.5689   0.6577     O
