data_I
_chemical_name_common  '/home/zhangsd/repos/MofS-CGCNN/ML/data/SSD/clean_cifs/IKEVAW_clean'
_cell_length_a  6.05350
_cell_length_b  9.91590
_cell_length_c 13.29030
_cell_angle_alpha 68.83200
_cell_angle_beta  81.27300
_cell_angle_gamma 76.87500
_space_group_name_H-M_alt      'P 1'


loop_
_space_group_symop_operation_xyz
  'x, y, z' 

loop_
_atom_site_label
_atom_site_fract_x
_atom_site_fract_y
_atom_site_fract_z
_atom_site_type_symbol
O       0.0156   0.4325   0.3406     O
C       0.0492   0.6183   0.5613     C
N       0.0611   0.1361   0.9461     N
O       0.0718   0.2894   0.5093     O
O       0.0843   0.4293   0.1308     O
C       0.0892    0.439   0.0343     C
C       0.1366   0.8929   0.0696     C
Dy     0.16536  0.38618  0.80489    Dy
C       0.1916   0.0296   0.0158     C
O       0.2162   0.6469    0.184     O
O       0.2257   0.3612   0.9868     O
C       0.2892   0.5552   0.5281     C
C       0.2894   0.7647   0.1417     C
H       0.2945   0.6786   0.3714     H
H       0.3266   0.0476   0.0292     H
C       0.3818    0.604   0.4231     C
N        0.407   0.4521    0.607     N
O       0.4834   0.7811   0.1525     O
O       0.5166   0.2189   0.8475     O
N        0.593   0.5479    0.393     N
C       0.6182    0.396   0.5769     C
H       0.6734   0.9524   0.9708     H
H       0.7055   0.3214   0.6286     H
C       0.7106   0.2353   0.8583     C
C       0.7108   0.4448   0.4719     C
O       0.7743   0.6388   0.0132     O
O       0.7838   0.3531    0.816     O
C       0.8084   0.9704   0.9842     C
Dy     0.83464  0.61382  0.19511    Dy
C       0.8634   0.1071   0.9304     C
C       0.9108    0.561   0.9657     C
O       0.9157   0.5707   0.8692     O
O       0.9282   0.7106   0.4907     O
N       0.9389   0.8639   0.0539     N
C       0.9508   0.3817   0.4387     C
O       0.9844   0.5675   0.6594     O
