data_I
_chemical_name_common  '/home/zhangsd/repos/MofS-CGCNN/ML/data/SSD/clean_cifs/IKOTUZ_clean'
_cell_length_a 48.83200
_cell_length_b 48.83200
_cell_length_c  8.48340
_cell_angle_alpha 90.00000
_cell_angle_beta  90.00000
_cell_angle_gamma 120.00000
_space_group_name_H-M_alt      'P 1'


loop_
_space_group_symop_operation_xyz
  'x, y, z' 

loop_
_atom_site_label
_atom_site_fract_x
_atom_site_fract_y
_atom_site_fract_z
_atom_site_type_symbol
O       0.0072  0.44504  0.54957     O
O       0.0072  0.56217  0.04957     O
S      0.00815  0.42302  0.43489     S
S      0.00815  0.58514  0.93489     S
Sm     0.00825  0.49438  0.54866    Sm
Sm     0.00825  0.51387  0.04866    Sm
H      0.00917  0.26623  0.27293     H
H      0.00917  0.74293  0.77293     H
C      0.01293   0.2452  0.08043     C
C      0.01293  0.76772  0.58043     C
O      0.01303  0.39912  0.51077     O
O      0.01303  0.61392  0.01077     O
C      0.02332  0.26325  0.21273     C
C      0.02332  0.76006  0.71273     C
O      0.02793  0.49409   0.8103     O
O      0.02793  0.53384   0.3103     O
H      0.02827  0.22743  0.90633     H
H      0.02827  0.80083  0.40633     H
O      0.02866  0.43878  0.30377     O
O      0.02866  0.58989  0.80377     O
C      0.03479  0.23987  0.99663     C
C      0.03479  0.79491  0.49663     C
C       0.0434  0.48627   0.9051     C
C       0.0434  0.55713   0.4051     C
O      0.04345  0.49095   0.0485     O
O      0.04345   0.5525   0.5485     O
H       0.0435    0.438   0.0164     H
H       0.0435   0.6055   0.5164     H
O      0.05275   0.3203   0.8441     O
O      0.05275  0.73245   0.3441     O
C      0.05464  0.27725  0.25973     C
C      0.05464  0.77738  0.75973     C
C      0.05608  0.44405   0.9264     C
C      0.05608  0.61203   0.4264     C
C      0.06037  0.47002   0.8427     C
C      0.06037  0.59035   0.3427     C
H      0.06117  0.28983  0.34973     H
H      0.06117  0.77133  0.84973     H
O      0.06224  0.50686   0.5069     O
O      0.06224  0.55538   0.0069     O
C      0.06582  0.25293  0.04663     C
C      0.06582  0.81288  0.54663     C
H       0.0671   0.4096   0.9396     H
H       0.0671   0.6575   0.4396     H
H       0.0695   0.3744   0.7961     H
H       0.0695   0.6951   0.2961     H
C      0.07008  0.42673   0.8794     C
C      0.07008  0.64335   0.3794     C
O      0.07067  0.21642  0.83963     O
O      0.07067  0.85424  0.33963     O
K      0.07491  0.24737  0.57073     K
K      0.07491  0.82753  0.07073     K
C      0.07632  0.27296  0.17603     C
C      0.07632  0.80335  0.67603     C
O      0.07678  0.30467   0.6371     O
O      0.07678  0.77211   0.1371     O
C       0.0804  0.47955   0.7133     C
C       0.0804  0.60085   0.2133     C
S      0.08153  0.32518  0.76822     S
S      0.08153  0.75635  0.26822     S
K      0.08596   0.4942   0.2374     K
K      0.08596  0.59176   0.7374     K
C      0.08773  0.38328   0.7346     C
C      0.08773  0.70445   0.2346     C
C      0.08813  0.43439   0.7471     C
C      0.08813  0.65374   0.2471     C
S      0.09001  0.51464  0.60525     S
S      0.09001  0.57537  0.10525     S
S       0.0913  0.24332  0.93858     S
S       0.0913  0.84797  0.43858     S
C      0.09346  0.46158   0.6633     C
C      0.09346  0.63188   0.1633     C
O        0.096  0.53837   0.7207     O
O        0.096  0.55763   0.2207     O
C      0.10089  0.36447   0.6891     C
C      0.10089  0.73642   0.1891     C
C      0.10159  0.41481   0.6887     C
C      0.10159  0.68678   0.1887     C
O       0.1045  0.32613   0.8829     O
O       0.1045  0.77837   0.3829     O
H       0.1059   0.4675    0.573     H
H       0.1059   0.6384    0.073     H
O      0.10904  0.23733  0.05403     O
O      0.10904   0.8717  0.55403     O
C      0.10954  0.28993  0.23843     C
C      0.10954   0.8196  0.73843     C
O      0.11129  0.27109  0.84023     O
O      0.11129  0.84019  0.34023     O
O      0.11417  0.28988  0.38183     O
O      0.11417  0.82428  0.88183     O
O      0.11691  0.52091   0.5063     O
O      0.11691    0.596   0.0063     O
C      0.12648  0.37667   0.5885     C
C      0.12648  0.74981   0.0885     C
C      0.12759  0.42627   0.5918     C
C      0.12759  0.70132   0.0918     C
O       0.1283  0.23733  0.55403     O
O       0.1283  0.89096  0.05403     O
O      0.13283   0.3054  0.14363     O
O      0.13283  0.82742  0.64363     O
H       0.1378   0.4475   0.5622     H
H       0.1378   0.6903   0.0622     H
C      0.13893  0.40729   0.5374     C
C      0.13893  0.73164   0.0374     C
C      0.14137  0.35797   0.5277     C
C      0.14137   0.7834   0.0277     C
O      0.14576  0.21642  0.33963     O
O      0.14576  0.92933  0.83963     O
O      0.14714  0.35935   0.3823     O
O      0.14714  0.78779   0.8823     O
O      0.14915  0.34276   0.6202     O
O      0.14915  0.80639   0.1202     O
S      0.15203  0.24332  0.43858     S
S      0.15203   0.9087  0.93858     S
Sm      0.1528  0.32508  0.88199    Sm
Sm      0.1528  0.82771  0.38199    Sm
H       0.1554   0.4154   0.4646     H
H       0.1554     0.74   0.9646     H
O      0.15981  0.27109  0.34023     O
O      0.15981  0.88871  0.84023     O
Sm     0.17229  0.32508  0.38199    Sm
Sm     0.17229   0.8472  0.88199    Sm
K      0.17247  0.24737  0.07073     K
K      0.17247  0.92509  0.57073     K
O      0.17258   0.3054  0.64363     O
O      0.17258  0.86717  0.14363     O
O      0.17572  0.28988  0.88183     O
O      0.17572  0.88583  0.38183     O
C       0.1804  0.28993  0.73843     C
C       0.1804  0.89046  0.23843     C
C      0.18712  0.25293  0.54663     C
C      0.18712  0.93418  0.04663     C
O      0.19361  0.34276   0.1202     O
O      0.19361  0.85085   0.6202     O
C      0.19665  0.27296  0.67603     C
C      0.19665  0.92368  0.17603     C
H      0.19917  0.22743  0.40633     H
H      0.19917  0.97173  0.90633     H
C      0.20509  0.23987  0.49663     C
C      0.20509  0.96521  0.99663     C
O      0.21221  0.35935   0.8823     O
O      0.21221  0.85286   0.3823     O
C       0.2166  0.35797   0.0277     C
C       0.2166  0.85863   0.5277     C
H      0.21917  0.02363  0.89553     H
H      0.21917  0.19553  0.39553     H
O      0.22163  0.32613   0.3829     O
O      0.22163   0.8955   0.8829     O
C      0.22262  0.27725  0.75973     C
C      0.22262  0.94536  0.25973     C
O      0.22789  0.30467   0.1371     O
O      0.22789  0.92322   0.6371     O
H      0.22867  0.28983  0.84973     H
H      0.22867  0.93883  0.34973     H
C      0.23228   0.2452  0.58043     C
C      0.23228  0.98707  0.08043     C
C      0.23994  0.26325  0.71273     C
C      0.23994  0.97668  0.21273     C
C       0.2404  0.03465  0.92513     C
C       0.2404  0.20574  0.42513     C
S      0.24365  0.32518  0.26822     S
S      0.24365  0.91847  0.76822     S
C      0.25019  0.37667   0.0885     C
C      0.25019  0.87352   0.5885     C
H      0.25127  0.07333  0.79793     H
H      0.25127  0.17793  0.29793     H
C      0.25186  0.02011  0.02203     C
C      0.25186  0.23174  0.52203     C
H      0.25707  0.26623  0.77293     H
H      0.25707  0.99083  0.27293     H
C      0.25938  0.06497  0.87073     C
C      0.25938   0.1944  0.37073     C
H         0.26   0.4154   0.9646     H
H         0.26   0.8446   0.4646     H
C      0.26358  0.36447   0.1891     C
C      0.26358  0.89911   0.6891     C
O      0.26755   0.3203   0.3441     O
O      0.26755  0.94725   0.8441     O
C      0.26836  0.40729   0.0374     C
C      0.26836  0.86107   0.5374     C
C      0.28339  0.03778  0.06793     C
C      0.28339   0.2456  0.56793     C
C         0.29  0.08314  0.92183     C
C         0.29  0.20685  0.42183     C
H      0.29227  0.02843  0.12943     H
H      0.29227  0.26383  0.62943     H
C      0.29555  0.38328   0.2346     C
C      0.29555  0.91227   0.7346     C
C      0.29868  0.42627   0.0918     C
C      0.29868  0.87241   0.5918     C
C       0.3022  0.06975  0.02243     C
C       0.3022  0.23244  0.52243     C
H       0.3049   0.3744   0.2961     H
H       0.3049   0.9305   0.7961     H
O      0.30732  0.12112  0.71563     O
O      0.30732  0.18619  0.21563     O
C       0.3087  0.11673  0.86103     C
C       0.3087  0.19196  0.36103     C
H       0.3097   0.4475   0.0622     H
H       0.3097   0.8622   0.5622     H
C      0.31322  0.41481   0.1887     C
C      0.31322  0.89841   0.6887     C
O      0.32391  0.13972  0.95353     O
O      0.32391  0.18418  0.45353     O
O      0.34054   0.1117  0.21623     O
O      0.34054  0.22883  0.71623     O
S      0.34149  0.08968  0.10155     S
S      0.34149   0.2518  0.60155     S
Sm     0.34158  0.16105  0.21533    Sm
Sm     0.34158  0.18054  0.71533    Sm
H       0.3425   0.4096   0.4396     H
H       0.3425   0.9329   0.9396     H
C      0.34626  0.43439   0.2471     C
C      0.34626  0.91187   0.7471     C
O      0.34637  0.06578  0.17743     O
O      0.34637  0.28058  0.67743     O
C      0.35665  0.42673   0.3794     C
C      0.35665  0.92992   0.8794     C
O      0.36126  0.16076  0.47697     O
O      0.36126  0.20051  0.97697     O
H       0.3616   0.4675    0.073     H
H       0.3616   0.8941    0.573     H
O        0.362  0.10544  0.97043     O
O        0.362  0.25655  0.47043     O
C      0.36812  0.46158   0.1633     C
C      0.36812  0.90654   0.6633     C
C      0.37673  0.15294  0.57177     C
C      0.37673   0.2238  0.07177     C
O      0.37678  0.15762  0.71517     O
O      0.37678  0.21917  0.21517     O
H      0.37683  0.10467  0.68307     H
H      0.37683  0.27217  0.18307     H
O      0.38608  0.39912  0.01077     O
O      0.38608  0.98697  0.51077     O
C      0.38797  0.44405   0.4264     C
C      0.38797  0.94392   0.9264     C
C      0.38941  0.11072  0.59307     C
C      0.38941   0.2787  0.09307     C
C       0.3937  0.13669  0.50937     C
C       0.3937  0.25702  0.00937     C
H       0.3945    0.438   0.5164     H
H       0.3945   0.9565   0.0164     H
O      0.39557  0.17353  0.17357     O
O      0.39557  0.22205  0.67357     O
C      0.39915  0.47955   0.2133     C
C      0.39915   0.9196   0.7133     C
H      0.40043  0.07627  0.60627     H
H      0.40043  0.32417  0.10627     H
H      0.40283  0.04107  0.46277     H
H      0.40283  0.36177  0.96277     H
C      0.40341   0.0934  0.54607     C
C      0.40341  0.31002  0.04607     C
O        0.404  0.52091   0.0063     O
O        0.404  0.88309   0.5063     O
K      0.40824   0.4942   0.7374     K
K      0.40824  0.91404   0.2374     K
C      0.40965  0.47002   0.3427     C
C      0.40965  0.93963   0.8427     C
O      0.41011  0.43878  0.80377     O
O      0.41011  0.97134  0.30377     O
C      0.41373  0.14622  0.37997     C
C      0.41373  0.26752  0.87997     C
S      0.41486  0.42302  0.93489     S
S      0.41486  0.99185  0.43489     S
K      0.41929  0.16087  0.90407     K
K      0.41929  0.25843  0.40407     K
C      0.42106  0.04995  0.40127     C
C      0.42106  0.37112  0.90127     C
C      0.42146  0.10106  0.41377     C
C      0.42146  0.32041  0.91377     C
S      0.42334  0.18131  0.27192     S
S      0.42334  0.24204  0.77192     S
S      0.42463  0.51464  0.10525     S
S      0.42463  0.90999  0.60525     S
C      0.42679  0.12825  0.32997     C
C      0.42679  0.29855  0.82997     C
O      0.42933  0.20504  0.38737     O
O      0.42933   0.2243  0.88737     O
C      0.43422  0.03114  0.35577     C
C      0.43422  0.40309  0.85577     C
C      0.43492  0.08148  0.35537     C
C      0.43492  0.35345  0.85537     C
O      0.43783  0.44504  0.04957     O
O      0.43783   0.9928  0.54957     O
H      0.43923  0.13417  0.23967     H
H      0.43923  0.30507  0.73967     H
O      0.44237  0.53837   0.2207     O
O      0.44237    0.904   0.7207     O
C      0.44287  0.48627   0.4051     C
C      0.44287   0.9566   0.9051     C
O      0.44462  0.50686   0.0069     O
O      0.44462  0.93776   0.5069     O
O       0.4475  0.49095   0.5485     O
O       0.4475  0.95655   0.0485     O
O      0.45024  0.18758  0.17297     O
O      0.45024  0.26267  0.67297     O
C      0.45981  0.04334  0.25517     C
C      0.45981  0.41648  0.75517     C
C      0.46092  0.09294  0.25847     C
C      0.46092  0.36799  0.75847     C
O      0.46163  0.55763   0.7207     O
O      0.46163    0.904   0.2207     O
O      0.46616  0.49409   0.3103     O
O      0.46616  0.97207   0.8103     O
H      0.47113  0.11417  0.22887     H
H      0.47113  0.35697  0.72887     H
C      0.47226  0.07396  0.20407     C
C      0.47226  0.39831  0.70407     C
C       0.4747  0.02464  0.19437     C
C       0.4747  0.45007  0.69437     C
O      0.47909    0.596   0.5063     O
O      0.47909  0.88309   0.0063     O
O      0.48047  0.02602  0.04897     O
O      0.48047  0.45446  0.54897     O
O      0.48248  0.00943  0.28687     O
O      0.48248  0.47306  0.78687     O
S      0.48536  0.57537  0.60525     S
S      0.48536  0.90999  0.10525     S
Sm     0.48613  0.49438  0.04866    Sm
Sm     0.48613  0.99175  0.54866    Sm
H      0.48873  0.08207  0.13127     H
H      0.48873  0.40667  0.63127     H
O      0.49314  0.55538   0.5069     O
O      0.49314  0.93776   0.0069     O
Sm     0.50562  0.51387  0.54866    Sm
Sm     0.50562  0.99175  0.04866    Sm
K       0.5058  0.59176   0.2374     K
K       0.5058  0.91404   0.7374     K
O      0.50591  0.53384   0.8103     O
O      0.50591  0.97207   0.3103     O
O      0.50905   0.5525   0.0485     O
O      0.50905  0.95655   0.5485     O
C      0.51373  0.55713   0.9051     C
C      0.51373   0.9566   0.4051     C
C      0.52045  0.60085   0.7133     C
C      0.52045   0.9196   0.2133     C
O      0.52694  0.00943  0.78687     O
O      0.52694  0.51752  0.28687     O
C      0.52998  0.59035   0.8427     C
C      0.52998  0.93963   0.3427     C
H       0.5325   0.6384    0.573     H
H       0.5325   0.8941    0.073     H
C      0.53842  0.63188   0.6633     C
C      0.53842  0.90654   0.1633     C
O      0.54554  0.02602  0.54897     O
O      0.54554  0.51953  0.04897     O
C      0.54993  0.02464  0.69437     C
C      0.54993   0.5253  0.19437     C
H       0.5525   0.6903   0.5622     H
H       0.5525   0.8622   0.0622     H
O      0.55496  0.56217  0.54957     O
O      0.55496   0.9928  0.04957     O
C      0.55595  0.61203   0.9264     C
C      0.55595  0.94392   0.4264     C
O      0.56122  0.58989  0.30377     O
O      0.56122  0.97134  0.80377     O
H        0.562   0.6055   0.0164     H
H        0.562   0.9565   0.5164     H
C      0.56561  0.65374   0.7471     C
C      0.56561  0.91187   0.2471     C
C      0.57327  0.64335   0.8794     C
C      0.57327  0.92992   0.3794     C
C      0.57373  0.70132   0.5918     C
C      0.57373  0.87241   0.0918     C
S      0.57698  0.58514  0.43489     S
S      0.57698  0.99185  0.93489     S
C      0.58352  0.04334  0.75517     C
C      0.58352  0.54019  0.25517     C
H       0.5846     0.74   0.4646     H
H       0.5846   0.8446   0.9646     H
C      0.58519  0.68678   0.6887     C
C      0.58519  0.89841   0.1887     C
H       0.5904   0.6575   0.9396     H
H       0.5904   0.9329   0.4396     H
C      0.59271  0.73164   0.5374     C
C      0.59271  0.86107   0.0374     C
H      0.59333  0.08207  0.63127     H
H      0.59333  0.51127  0.13127     H
C      0.59691  0.03114  0.85577     C
C      0.59691  0.56578  0.35577     C
O      0.60088  0.61392  0.51077     O
O      0.60088  0.98697  0.01077     O
C      0.60169  0.07396  0.70407     C
C      0.60169  0.52774  0.20407     C
C      0.61672  0.70445   0.7346     C
C      0.61672  0.91227   0.2346     C
C      0.62333  0.74981   0.5885     C
C      0.62333  0.87352   0.0885     C
H       0.6256   0.6951   0.7961     H
H       0.6256   0.9305   0.2961     H
C      0.62888  0.04995  0.90127     C
C      0.62888  0.57894  0.40127     C
C      0.63201  0.09294  0.75847     C
C      0.63201  0.53908  0.25847     C
C      0.63553  0.73642   0.6891     C
C      0.63553  0.89911   0.1891     C
H      0.63823  0.04107  0.96277     H
H      0.63823  0.59717  0.46277     H
O      0.64065  0.78779   0.3823     O
O      0.64065  0.85286   0.8823     O
C      0.64203   0.7834   0.5277     C
C      0.64203  0.85863   0.0277     C
H      0.64303  0.11417  0.72887     H
H      0.64303  0.52887  0.22887     H
C      0.64655  0.08148  0.85537     C
C      0.64655  0.56508  0.35537     C
O      0.65724  0.80639   0.6202     O
O      0.65724  0.85085   0.1202     O
O      0.67387  0.77837   0.8829     O
O      0.67387   0.8955   0.3829     O
S      0.67482  0.75635  0.76822     S
S      0.67482  0.91847  0.26822     S
Sm     0.67492  0.82771  0.88199    Sm
Sm     0.67492   0.8472  0.38199    Sm
H      0.67583  0.07627  0.10627     H
H      0.67583  0.59957  0.60627     H
C      0.67959  0.10106  0.91377     C
C      0.67959  0.57854  0.41377     C
O       0.6797  0.73245   0.8441     O
O       0.6797  0.94725   0.3441     O
C      0.68998   0.0934  0.04607     C
C      0.68998  0.59659  0.54607     C
O       0.6946  0.82742  0.14363     O
O       0.6946  0.86717  0.64363     O
H      0.69493  0.13417  0.73967     H
H      0.69493  0.56077  0.23967     H
O      0.69533  0.77211   0.6371     O
O      0.69533  0.92322   0.1371     O
C      0.70145  0.12825  0.82997     C
C      0.70145  0.57321  0.32997     C
C      0.71007   0.8196  0.23843     C
C      0.71007  0.89046  0.73843     C
O      0.71012  0.82428  0.38183     O
O      0.71012  0.88583  0.88183     O
H      0.71017  0.77133  0.34973     H
H      0.71017  0.93883  0.84973     H
O      0.71942  0.06578  0.67743     O
O      0.71942  0.65363  0.17743     O
C       0.7213  0.11072  0.09307     C
C       0.7213  0.61059  0.59307     C
C      0.72275  0.77738  0.25973     C
C      0.72275  0.94536  0.75973     C
C      0.72704  0.80335  0.17603     C
C      0.72704  0.92368  0.67603     C
H      0.72783  0.10467  0.18307     H
H      0.72783  0.62317  0.68307     H
O      0.72891  0.84019  0.84023     O
O      0.72891  0.88871  0.34023     O
C      0.73248  0.14622  0.87997     C
C      0.73248  0.58627  0.37997     C
H      0.73377  0.74293  0.27293     H
H      0.73377  0.99083  0.77293     H
H      0.73617  0.02843  0.62943     H
H      0.73617  0.70773  0.12943     H
C      0.73675  0.76006  0.21273     C
C      0.73675  0.97668  0.71273     C
O      0.73733  0.18758  0.67297     O
O      0.73733  0.54976  0.17297     O
K      0.74157  0.16087  0.40407     K
K      0.74157  0.58071  0.90407     K
C      0.74298  0.13669  0.00937     C
C      0.74298   0.6063  0.50937     C
O      0.74345  0.10544  0.47043     O
O      0.74345    0.638  0.97043     O
C      0.74707  0.81288  0.04663     C
C      0.74707  0.93418  0.54663     C
S       0.7482  0.08968  0.60155     S
S       0.7482  0.65851  0.10155     S
K      0.75263  0.82753  0.57073     K
K      0.75263  0.92509  0.07073     K
C       0.7544  0.03778  0.56793     C
C       0.7544  0.71661  0.06793     C
C       0.7548  0.76772  0.08043     C
C       0.7548  0.98707  0.58043     C
S      0.75668  0.84797  0.93858     S
S      0.75668   0.9087  0.43858     S
S      0.75796  0.18131  0.77192     S
S      0.75796  0.57666  0.27192     S
C      0.76013  0.79491  0.99663     C
C      0.76013  0.96521  0.49663     C
O      0.76267   0.8717  0.05403     O
O      0.76267  0.89096  0.55403     O
C      0.76756  0.06975  0.52243     C
C      0.76756   0.6978  0.02243     C
C      0.76826  0.02011  0.52203     C
C      0.76826  0.74814  0.02203     C
O      0.77117   0.1117  0.71623     O
O      0.77117  0.65946  0.21623     O
H      0.77257  0.80083  0.90633     H
H      0.77257  0.97173  0.40633     H
O       0.7757  0.20504  0.88737     O
O       0.7757  0.57067  0.38737     O
C       0.7762  0.15294  0.07177     C
C       0.7762  0.62327  0.57177     C
O      0.77795  0.17353  0.67357     O
O      0.77795  0.60443  0.17357     O
O      0.78083  0.15762  0.21517     O
O      0.78083  0.62322  0.71517     O
O      0.78358  0.85424  0.83963     O
O      0.78358  0.92933  0.33963     O
C      0.79315  0.08314  0.42183     C
C      0.79315     0.71  0.92183     C
C      0.79426  0.03465  0.42513     C
C      0.79426   0.7596  0.92513     C
O      0.79496   0.2243  0.38737     O
O      0.79496  0.57067  0.88737     O
O      0.79949  0.16076  0.97697     O
O      0.79949  0.63874  0.47697     O
H      0.80447  0.02363  0.39553     H
H      0.80447  0.78083  0.89553     H
C       0.8056  0.06497  0.37073     C
C       0.8056  0.74062  0.87073     C
C      0.80804  0.11673  0.36103     C
C      0.80804   0.6913  0.86103     C
O      0.81242  0.26267  0.17297     O
O      0.81242  0.54976  0.67297     O
O      0.81381  0.12112  0.21563     O
O      0.81381  0.69268  0.71563     O
O      0.81582  0.13972  0.45353     O
O      0.81582  0.67609  0.95353     O
S      0.81869  0.24204  0.27192     S
S      0.81869  0.57666  0.77192     S
Sm     0.81946  0.16105  0.71533    Sm
Sm     0.81946  0.65842  0.21533    Sm
H      0.82207  0.07333  0.29793     H
H      0.82207  0.74873  0.79793     H
O      0.82647  0.22205  0.17357     O
O      0.82647  0.60443  0.67357     O
Sm     0.83895  0.18054  0.21533    Sm
Sm     0.83895  0.65842  0.71533    Sm
K      0.83913  0.25843  0.90407     K
K      0.83913  0.58071  0.40407     K
O      0.83924  0.20051  0.47697     O
O      0.83924  0.63874  0.97697     O
O      0.84238  0.21917  0.71517     O
O      0.84238  0.62322  0.21517     O
C      0.84706   0.2238  0.57177     C
C      0.84706  0.62327  0.07177     C
C      0.85378  0.26752  0.37997     C
C      0.85378  0.58627  0.87997     C
O      0.86028  0.18418  0.95353     O
O      0.86028  0.67609  0.45353     O
C      0.86331  0.25702  0.50937     C
C      0.86331   0.6063  0.00937     C
H      0.86583  0.30507  0.23967     H
H      0.86583  0.56077  0.73967     H
C      0.87175  0.29855  0.32997     C
C      0.87175  0.57321  0.82997     C
O      0.87888  0.18619  0.71563     O
O      0.87888  0.69268  0.21563     O
C      0.88327  0.19196  0.86103     C
C      0.88327   0.6913  0.36103     C
H      0.88583  0.35697  0.22887     H
H      0.88583  0.52887  0.72887     H
O       0.8883  0.22883  0.21623     O
O       0.8883  0.65946  0.71623     O
C      0.88928   0.2787  0.59307     C
C      0.88928  0.61059  0.09307     C
O      0.89456  0.25655  0.97043     O
O      0.89456    0.638  0.47043     O
H      0.89533  0.27217  0.68307     H
H      0.89533  0.62317  0.18307     H
C      0.89894  0.32041  0.41377     C
C      0.89894  0.57854  0.91377     C
C       0.9066  0.31002  0.54607     C
C       0.9066  0.59659  0.04607     C
C      0.90706  0.36799  0.25847     C
C      0.90706  0.53908  0.75847     C
S      0.91032   0.2518  0.10155     S
S      0.91032  0.65851  0.60155     S
C      0.91686  0.20685  0.92183     C
C      0.91686     0.71  0.42183     C
H      0.91793  0.40667  0.13127     H
H      0.91793  0.51127  0.63127     H
C      0.91852  0.35345  0.35537     C
C      0.91852  0.56508  0.85537     C
H      0.92373  0.32417  0.60627     H
H      0.92373  0.59957  0.10627     H
C      0.92604  0.39831  0.20407     C
C      0.92604  0.52774  0.70407     C
H      0.92667  0.17793  0.79793     H
H      0.92667  0.74873  0.29793     H
C      0.93025  0.23244  0.02243     C
C      0.93025   0.6978  0.52243     C
O      0.93422  0.28058  0.17743     O
O      0.93422  0.65363  0.67743     O
C      0.93503   0.1944  0.87073     C
C      0.93503  0.74062  0.37073     C
C      0.95005  0.37112  0.40127     C
C      0.95005  0.57894  0.90127     C
C      0.95666  0.41648  0.25517     C
C      0.95666  0.54019  0.75517     C
H      0.95893  0.36177  0.46277     H
H      0.95893  0.59717  0.96277     H
C      0.96222   0.2456  0.06793     C
C      0.96222  0.71661  0.56793     C
C      0.96535  0.20574  0.92513     C
C      0.96535   0.7596  0.42513     C
C      0.96886  0.40309  0.35577     C
C      0.96886  0.56578  0.85577     C
H      0.97157  0.26383  0.12943     H
H      0.97157  0.70773  0.62943     H
O      0.97398  0.45446  0.04897     O
O      0.97398  0.51953  0.54897     O
C      0.97536  0.45007  0.19437     C
C      0.97536   0.5253  0.69437     C
H      0.97637  0.19553  0.89553     H
H      0.97637  0.78083  0.39553     H
C      0.97989  0.23174  0.02203     C
C      0.97989  0.74814  0.52203     C
O      0.99057  0.47306  0.28687     O
O      0.99057  0.51752  0.78687     O
