data_I
_chemical_name_common  '/home/zhangsd/repos/MofS-CGCNN/ML/data/SSD/clean_cifs/IQABEJ_clean'
_cell_length_a  9.48100
_cell_length_b 15.12600
_cell_length_c 15.23200
_cell_angle_alpha 64.81500
_cell_angle_beta  78.71700
_cell_angle_gamma 78.97700
_space_group_name_H-M_alt      'P 1'


loop_
_space_group_symop_operation_xyz
  'x, y, z' 

loop_
_atom_site_label
_atom_site_fract_x
_atom_site_fract_y
_atom_site_fract_z
_atom_site_type_symbol
C       0.0033    0.226   0.9735     C
N       0.0132    0.673   0.7755     N
H       0.0274   0.0595   0.2407     H
H       0.0297   0.7434   0.6314     H
C       0.0314   0.2717   0.3097     C
O       0.0335   0.3659   0.7571     O
O       0.0337   0.1534   0.9534     O
S       0.0405   0.5664  0.19987     S
O       0.0551   0.4547   0.8526     O
C       0.0695   0.9413   0.3647     C
C       0.0857   0.0736   0.5921     C
O       0.0882   0.2585   0.0056     O
Co     0.08969  0.39744  0.00843    Co
C       0.1016   0.0159    0.274     C
O       0.1073    0.146   0.5125     O
N       0.1084   0.3319   0.1568     N
O       0.1104   0.4783   0.2678     O
O       0.1225   0.5459   0.9592     O
C       0.1464    0.721   0.0356     C
H       0.1603   0.8277   0.4742     H
N       0.1729   0.2391   0.3041     N
C       0.1779   0.6297   0.1094     C
C       0.1816   0.8778   0.4132     C
O       0.1819   0.0124   0.6406     O
H       0.1889   0.8211   0.7293     H
H       0.1908    0.555   0.9945     H
Co     0.19985   0.5789  0.81419    Co
C       0.2153    0.278   0.2073     C
H       0.2419   0.8293   0.9204     H
Co     0.24375  0.09128   0.9075    Co
C       0.2455   0.0251    0.233     C
C       0.2616   0.7684   0.9711     C
H       0.2661   0.0763   0.1725     H
C       0.2837   0.7925    0.721     C
Co       0.298  0.18547  0.41906    Co
H       0.3099   0.2681   0.1789     H
H       0.3108   0.0028    0.445     H
O       0.3137   0.3573   0.9878     O
C       0.3213   0.5878   0.1224     C
N       0.3248   0.6945   0.7612     N
C       0.3255   0.8873   0.3726     C
H       0.3411   0.5277   0.1742     H
C       0.3591   0.9606   0.2793     C
O       0.3777   0.0396   0.4536     O
O       0.3886   0.4849   0.8544     O
O       0.3928   0.7286   0.5225     O
N       0.3932   0.8441   0.6679     N
C       0.4039   0.7273   0.9806     C
O       0.4052   0.9963   0.7379     O
Co     0.40711  0.99274  0.60112    Co
C       0.4098   0.4066   0.9265     C
C       0.4343   0.6368   0.0571     C
O       0.4433   0.1471   0.5435     O
O       0.4541   0.0463   0.8461     O
O       0.4586   0.2446   0.6321     O
S       0.4641   0.7977  0.43538     S
C       0.4685   0.6894   0.7291     C
H       0.4697   0.3694   0.2555     H
H       0.4787   0.7598   0.9362     H
C       0.4877   0.0262   0.7707     C
N       0.4887   0.2238   0.3262     N
N       0.5113   0.7762   0.6738     N
C       0.5123   0.9738   0.2293     C
H       0.5213   0.2402   0.0638     H
H       0.5303   0.6306   0.7445     H
C       0.5315   0.3106   0.2709     C
S       0.5359   0.2023  0.56462     S
O       0.5414   0.7554   0.3679     O
O       0.5459   0.9537   0.1539     O
O       0.5567   0.8529   0.4565     O
C       0.5657   0.3632   0.9429     C
C       0.5902   0.5934   0.0735     C
Co     0.59289  0.00726  0.39888    Co
O       0.5948   0.0037   0.2621     O
C       0.5961   0.2727   0.0194     C
N       0.6068   0.1559   0.3321     N
O       0.6072   0.2714   0.4775     O
O       0.6114   0.5151   0.1456     O
O       0.6223   0.9604   0.5464     O
C       0.6409   0.0394   0.7207     C
H       0.6589   0.4723   0.8258     H
C       0.6745   0.1127   0.6274     C
N       0.6752   0.3055   0.2388     N
C       0.6787   0.4122   0.8776     C
O       0.6863   0.6427   0.0122     O
H       0.6892   0.9972    0.555     H
H       0.6901   0.7319   0.8211     H
Co       0.702  0.81453  0.58094    Co
C       0.7163   0.2075    0.279     C
H       0.7339   0.9237   0.8275     H
C       0.7384   0.2316   0.0289     C
C       0.7545   0.9749    0.767     C
Co     0.75625  0.90872   0.0925    Co
H       0.7581   0.1707   0.0796     H
C       0.7847    0.722   0.7927     C
Co     0.80015   0.4211  0.18581    Co
H       0.8092    0.445   0.0055     H
H       0.8111   0.1789   0.2707     H
O       0.8181   0.9876   0.3594     O
C       0.8184   0.1222   0.5868     C
C       0.8221   0.3703   0.8906     C
N       0.8271   0.7609   0.6959     N
H       0.8397   0.1723   0.5258     H
C       0.8536    0.279   0.9644     C
O       0.8775   0.4541   0.0408     O
O       0.8896   0.5217   0.7322     O
N       0.8916   0.6681   0.8432     N
O       0.8927    0.854   0.4875     O
C       0.8984   0.9841    0.726     C
Co     0.91031  0.60256  0.99157    Co
O       0.9118   0.7415   0.9944     O
C       0.9143   0.9264   0.4079     C
C       0.9305   0.0587   0.6353     C
O       0.9449   0.5453   0.1474     O
S       0.9595   0.4336  0.80013     S
O       0.9663   0.8466   0.0466     O
O       0.9665   0.6341   0.2429     O
C       0.9686   0.7283   0.6903     C
H       0.9703   0.2566   0.3686     H
H       0.9726   0.9405   0.7593     H
N       0.9868    0.327   0.2245     N
C       0.9967    0.774   0.0265     C
