data_I
_chemical_name_common  '/home/zhangsd/repos/MofS-CGCNN/ML/data/SSD/clean_cifs/IQIDES_clean'
_cell_length_a 14.69050
_cell_length_b  8.04720
_cell_length_c 15.86880
_cell_angle_alpha 90.00000
_cell_angle_beta  112.92900
_cell_angle_gamma 90.00000
_space_group_name_H-M_alt      'P 1'


loop_
_space_group_symop_operation_xyz
  'x, y, z' 

loop_
_atom_site_label
_atom_site_fract_x
_atom_site_fract_y
_atom_site_fract_z
_atom_site_type_symbol
Be         0.0   0.1341     0.25    Be
Be         0.0   0.8659     0.75    Be
P      0.01646  0.10641  0.89624     P
P      0.01646  0.89359  0.39624     P
O       0.0239   0.0266  0.17566     O
O       0.0239   0.9734  0.67566     O
H        0.043    0.231   0.8544     H
H        0.043    0.769   0.3544     H
O      0.06225   0.1785  0.57652     O
O      0.06225   0.8215  0.07652     O
H        0.091    0.494   0.3516     H
H        0.091    0.506   0.8516     H
O      0.09929   0.2468  0.29387     O
O      0.09929   0.7532  0.79387     O
O      0.10778   0.0502  0.97698     O
O      0.10778   0.9498  0.47698     O
O      0.13514    0.281  0.46128     O
O      0.13514    0.719  0.96128     O
Be      0.1384   0.1319   0.5286    Be
Be      0.1384   0.8681   0.0286    Be
P      0.14775  0.34943  0.37859     P
P      0.14775  0.65057  0.87859     P
O      0.24836   0.1064  0.60813     O
O      0.24836   0.8936  0.10813     O
O      0.25164   0.3936  0.39187     O
O      0.25164   0.6064  0.89187     O
P      0.35225  0.15057  0.62141     P
P      0.35225  0.84943  0.12141     P
Be      0.3616   0.3681   0.4714    Be
Be      0.3616   0.6319   0.9714    Be
O      0.36486    0.219  0.53872     O
O      0.36486    0.781  0.03872     O
O      0.39222   0.4498  0.02302     O
O      0.39222   0.5502  0.52302     O
O      0.40071   0.2532  0.70613     O
O      0.40071   0.7468  0.20613     O
H        0.409    0.006   0.6484     H
H        0.409    0.994   0.1484     H
O      0.43775   0.3215  0.42348     O
O      0.43775   0.6785  0.92348     O
H        0.457    0.269   0.1456     H
H        0.457    0.731   0.6456     H
O       0.4761   0.4734  0.82434     O
O       0.4761   0.5266  0.32434     O
P      0.48354  0.39359  0.10376     P
P      0.48354  0.60641  0.60376     P
Be         0.5   0.3659     0.75    Be
Be         0.5   0.6341     0.25    Be
P      0.51646  0.39359  0.39624     P
P      0.51646  0.60641  0.89624     P
O       0.5239   0.4734  0.67566     O
O       0.5239   0.5266  0.17566     O
H        0.543    0.269   0.3544     H
H        0.543    0.731   0.8544     H
O      0.56225   0.3215  0.07652     O
O      0.56225   0.6785  0.57652     O
H        0.591    0.006   0.8516     H
H        0.591    0.994   0.3516     H
O      0.59929   0.2532  0.79387     O
O      0.59929   0.7468  0.29387     O
O      0.60778   0.4498  0.47698     O
O      0.60778   0.5502  0.97698     O
O      0.63514    0.219  0.96128     O
O      0.63514    0.781  0.46128     O
Be      0.6384   0.3681   0.0286    Be
Be      0.6384   0.6319   0.5286    Be
P      0.64775  0.15057  0.87859     P
P      0.64775  0.84943  0.37859     P
O      0.74836   0.3936  0.10813     O
O      0.74836   0.6064  0.60813     O
O      0.75164   0.1064  0.89187     O
O      0.75164   0.8936  0.39187     O
P      0.85225  0.34943  0.12141     P
P      0.85225  0.65057  0.62141     P
Be      0.8616   0.1319   0.9714    Be
Be      0.8616   0.8681   0.4714    Be
O      0.86486    0.281  0.03872     O
O      0.86486    0.719  0.53872     O
O      0.89222   0.0502  0.52302     O
O      0.89222   0.9498  0.02302     O
O      0.90071   0.2468  0.20613     O
O      0.90071   0.7532  0.70613     O
H        0.909    0.494   0.1484     H
H        0.909    0.506   0.6484     H
O      0.93775   0.1785  0.92348     O
O      0.93775   0.8215  0.42348     O
H        0.957    0.231   0.6456     H
H        0.957    0.769   0.1456     H
O       0.9761   0.0266  0.32434     O
O       0.9761   0.9734  0.82434     O
P      0.98354  0.10641  0.60376     P
P      0.98354  0.89359  0.10376     P
