data_I
_chemical_name_common  '/home/zhangsd/repos/MofS-CGCNN/ML/data/SSD/clean_cifs/ISIMUT_clean'
_cell_length_a  9.32650
_cell_length_b  9.65870
_cell_length_c 11.76310
_cell_angle_alpha 75.36300
_cell_angle_beta  78.55500
_cell_angle_gamma 87.17800
_space_group_name_H-M_alt      'P 1'


loop_
_space_group_symop_operation_xyz
  'x, y, z' 

loop_
_atom_site_label
_atom_site_fract_x
_atom_site_fract_y
_atom_site_fract_z
_atom_site_type_symbol
C       0.0193    0.066   0.5085     C
C        0.029   0.9803    0.562     C
C       0.0322   0.5246   0.5448     C
H       0.0395   0.4226   0.4109     H
O       0.0743   0.3974   0.6224     O
H       0.1163   0.5856   0.5056     H
H       0.1381   0.6292   0.6826     H
C         0.15   0.4148   0.7071     C
C       0.1739   0.0667   0.5447     C
C       0.1757   0.5463   0.7263     C
H       0.1839   0.2027   0.7626     H
H       0.1991   0.5307   0.1136     H
C       0.2036   0.2911   0.7741     C
H       0.2198   0.2776   0.1698     H
C       0.2427   0.4858   0.1779     C
C       0.2549   0.3337    0.212     C
O       0.2572   0.8077   0.7516     O
C       0.2579    0.554    0.811     C
C       0.2863   0.2984   0.8583     C
N       0.2877   0.0298   0.4502     N
H        0.291   0.6627   0.2183     H
C        0.291    0.701   0.8223     C
C       0.2967   0.5634   0.2419     C
C       0.3126   0.4313   0.8771     C
C       0.3188   0.2715   0.3072     C
O       0.3221   0.0494   0.9051     O
H       0.3265    0.815   0.5151     H
C       0.3409    0.115   0.3407     C
C       0.3438   0.8958   0.4515     C
C       0.3543   0.1661   0.9226     C
O        0.357   0.7033  0.90727     O
C       0.3592   0.5031   0.3397     C
H       0.3669    0.437    0.934     H
C       0.3711   0.3563   0.3712     C
H       0.3921   0.5594   0.3828     H
H       0.4144   0.3127    0.436     H
N       0.4278   0.0406   0.2728     N
C       0.4287   0.9031   0.3433     C
O       0.4379   0.1808   0.9872     O
Zn     0.44539  0.88505  0.88837    Zn
H       0.4801   0.8268   0.3197     H
H       0.5199   0.1732   0.6803     H
Zn     0.55461  0.11495  0.11163    Zn
O       0.5621   0.8192   0.0128     O
C       0.5713   0.0969   0.6567     C
N       0.5722   0.9594   0.7272     N
H       0.5856   0.6873    0.564     H
H       0.6079   0.4406   0.6172     H
C       0.6289   0.6437   0.6288     C
H       0.6331    0.563    0.066     H
C       0.6408   0.4969   0.6603     C
O        0.643   0.2967  0.09273     O
C       0.6457   0.8339   0.0774     C
C       0.6562   0.1042   0.5485     C
C       0.6591    0.885   0.6593     C
H       0.6735    0.185   0.4849     H
O       0.6779   0.9506   0.0949     O
C       0.6812   0.7285   0.6928     C
C       0.6874   0.5687   0.1229     C
C       0.7033   0.4366   0.7581     C
C        0.709    0.299   0.1777     C
H        0.709   0.3373   0.7817     H
N       0.7123   0.9702   0.5498     N
C       0.7137   0.7016   0.1417     C
C       0.7421    0.446    0.189     C
O       0.7428   0.1923   0.2484     O
C       0.7451   0.6663    0.788     C
C       0.7573   0.5142   0.8221     C
H       0.7802   0.7224   0.8302     H
C       0.7964   0.7089   0.2259     C
H       0.8009   0.4693   0.8864     H
H       0.8161   0.7973   0.2374     H
C       0.8243   0.4537   0.2737     C
C       0.8261   0.9333   0.4553     C
C         0.85   0.5852   0.2929     C
H       0.8619   0.3708   0.3174     H
H       0.8837   0.4144   0.4944     H
O       0.9257   0.6026   0.3776     O
H       0.9605   0.5774   0.5891     H
C       0.9678   0.4754   0.4552     C
C        0.971   0.0197    0.438     C
C       0.9807    0.934   0.4915     C
