data_I
_chemical_name_common  '/home/zhangsd/repos/MofS-CGCNN/ML/data/SSD/clean_cifs/ISIMAZ_clean'
_cell_length_a  7.21690
_cell_length_b 16.93890
_cell_length_c 17.08970
_cell_angle_alpha 90.00000
_cell_angle_beta  95.51300
_cell_angle_gamma 90.00000
_space_group_name_H-M_alt      'P 1'


loop_
_space_group_symop_operation_xyz
  'x, y, z' 

loop_
_atom_site_label
_atom_site_fract_x
_atom_site_fract_y
_atom_site_fract_z
_atom_site_type_symbol
N        0.004  0.82474  0.90246     N
H       0.0204   0.5514   0.4103     H
H       0.0256   0.7789   0.7953     H
H       0.0296   0.9862   0.3019     H
O        0.037  0.72991  0.23153     O
C       0.0423   0.3266    0.895     C
H       0.0562   0.5824   0.2808     H
C       0.0583   0.5273   0.2962     C
C       0.0595   0.5973   0.9706     C
H       0.0674   0.0611   0.5525     H
Zn     0.06818  0.20081  0.69136    Zn
H       0.0747   0.6249   0.7272     H
C       0.0833   0.7869   0.8457     C
C       0.0901   0.0203   0.5148     C
C       0.0915   0.0238   0.7195     C
H       0.0937   0.5722   0.9257     H
C       0.0938   0.2831   0.8238     C
H       0.1047   0.4671   0.3994     H
C       0.1067  0.36135  0.03112     C
H       0.1074   0.0311   0.1292     H
C       0.1093   0.5218   0.3829     C
H        0.112   0.2753   0.5207     H
H       0.1149   0.8475   0.0164     H
O       0.1189  0.81543  0.39671     O
N       0.1242  0.50852  0.72928     N
C       0.1242   0.6328  0.10681     C
C       0.1297    0.825   0.9678     C
H       0.1513    0.041   0.0416     H
H       0.1535   0.5011   0.2692     H
C       0.1588  0.32502  0.96436     C
C       0.1606   0.5849   0.7397     C
O        0.161  0.05333  0.44869     O
N       0.1681  0.09693  0.73026     N
C       0.1743   0.5943   0.0411     C
H       0.1775   0.9824   0.5399     H
C       0.1849   0.1427   0.1041     C
O       0.1898  0.38907  0.16744     O
C       0.1924   0.0551   0.0955     C
H       0.1992   0.9138   0.7435     H
H       0.2035   0.6315    0.153     H
C       0.2166   0.9682   0.7442     C
C       0.2194   0.2854   0.5537     C
H       0.2271   0.7993   0.5341     H
C       0.2316   0.3565   0.1077     C
O       0.2439   0.7607  0.68008     O
H       0.2468   0.6667    0.436     H
H       0.2472   0.1572   0.1549     H
N       0.2478  0.26251  0.63074     N
N       0.2522  0.76251  0.86926     N
H       0.2528   0.6572   0.3451     H
H       0.2532   0.1667    0.064     H
O       0.2561   0.2607  0.81992     O
C       0.2684   0.8565   0.3923     C
H       0.2729   0.2993   0.9659     H
C       0.2806   0.7854   0.9463     C
C       0.2834   0.4682   0.7558     C
H       0.2965   0.1315    0.347     H
H       0.3008   0.4138   0.7565     H
C       0.3076   0.5551   0.4045     C
O       0.3102  0.88907  0.33256     O
C       0.3151   0.6427   0.3959     C
H       0.3225   0.4824   0.9601     H
C       0.3257   0.0943   0.4589     C
N       0.3319  0.59693  0.76974     N
O        0.339  0.55333  0.05131     O
C       0.3394   0.0849   0.7603     C
C       0.3412  0.82502  0.53564     C
H       0.3465   0.0011   0.2308     H
H       0.3487    0.541   0.4584     H
C       0.3703    0.325   0.5322     C
N       0.3758  0.00852  0.77072     N
C       0.3758   0.1328  0.39319     C
O       0.3811  0.31543  0.10329     O
H       0.3851   0.3475   0.4836     H
H        0.388   0.7753   0.9793     H
C       0.3907   0.0218   0.1171     C
H       0.3926   0.5311   0.3708     H
C       0.3933  0.86135  0.46888     C
H       0.3953   0.9671   0.1006     H
C       0.4062   0.7831   0.6762     C
H       0.4063   0.0722   0.5743     H
C       0.4085   0.5238   0.7805     C
C       0.4099   0.5203   0.9852     C
C       0.4167   0.2869   0.6543     C
H       0.4253   0.1249   0.7728     H
Zn     0.43182  0.70081  0.80864    Zn
H       0.4326   0.5611   0.9475     H
C       0.4405   0.0973   0.5294     C
C       0.4417   0.0273   0.2038     C
H       0.4438   0.0824   0.2192     H
C       0.4577   0.8266    0.605     C
O        0.463  0.22991  0.26847     O
H       0.4704   0.4862   0.1981     H
H       0.4744   0.2789   0.7047     H
H       0.4796   0.0514   0.0897     H
N        0.496  0.32474  0.59754     N
N        0.504  0.67526  0.40246     N
H       0.5204   0.9486   0.9103     H
H       0.5256   0.7211   0.2953     H
H       0.5296   0.5138   0.8019     H
O        0.537  0.77009  0.73153     O
C       0.5423   0.1734    0.395     C
H       0.5562   0.9176   0.7808     H
C       0.5583   0.9727   0.7962     C
C       0.5595   0.9027   0.4706     C
H       0.5674   0.4389   0.0525     H
Zn     0.56818  0.29919  0.19136    Zn
H       0.5747   0.8751   0.2272     H
C       0.5833   0.7131   0.3457     C
C       0.5901   0.4797   0.0148     C
C       0.5915   0.4762   0.2195     C
H       0.5937   0.9278   0.4257     H
C       0.5938   0.2169   0.3238     C
H       0.6047   0.0329   0.8994     H
C       0.6067  0.13865  0.53112     C
H       0.6074   0.4689   0.6292     H
C       0.6093   0.9782   0.8829     C
H        0.612   0.2247   0.0207     H
H       0.6149   0.6525   0.5164     H
O       0.6189  0.68457  0.89671     O
C       0.6242   0.8672  0.60681     C
N       0.6242  0.99148  0.22928     N
C       0.6297    0.675   0.4678     C
H       0.6513    0.459   0.5416     H
H       0.6535   0.9989   0.7692     H
C       0.6588  0.17498  0.46436     C
C       0.6606   0.9151   0.2397     C
O        0.661  0.44667  0.94869     O
N       0.6681  0.40307  0.23026     N
C       0.6743   0.9057   0.5411     C
H       0.6775   0.5176   0.0399     H
C       0.6849   0.3573   0.6041     C
O       0.6898  0.11093  0.66744     O
C       0.6924   0.4449   0.5955     C
H       0.6992   0.5862   0.2435     H
H       0.7035   0.8685    0.653     H
C       0.7166   0.5318   0.2442     C
C       0.7194   0.2146   0.0537     C
H       0.7271   0.7007   0.0341     H
C       0.7316   0.1435   0.6077     C
O       0.7439   0.7393  0.18008     O
H       0.7468   0.8333    0.936     H
H       0.7472   0.3428   0.6549     H
N       0.7478  0.23749  0.13074     N
N       0.7522  0.73749  0.36926     N
H       0.7528   0.8428   0.8451     H
H       0.7532   0.3333    0.564     H
O       0.7561   0.2393  0.31992     O
C       0.7684   0.6435   0.8923     C
H       0.7729   0.2007   0.4659     H
C       0.7806   0.7146   0.4463     C
C       0.7834   0.0318   0.2558     C
H       0.7965   0.3685    0.847     H
H       0.8008   0.0862   0.2565     H
C       0.8076   0.9449   0.9045     C
O       0.8102  0.61093  0.83256     O
C       0.8151   0.8573   0.8959     C
H       0.8225   0.0176   0.4601     H
C       0.8257   0.4057   0.9589     C
N       0.8319  0.90307  0.26974     N
O        0.839  0.94667  0.55131     O
C       0.8394   0.4151   0.2603     C
C       0.8412  0.67498  0.03564     C
H       0.8465   0.4989   0.7308     H
H       0.8487    0.959   0.9584     H
C       0.8703    0.175   0.0322     C
C       0.8758   0.3672  0.89319     C
N       0.8758  0.49148  0.27072     N
O       0.8811  0.18457  0.60329     O
H       0.8851   0.1525   0.9836     H
H        0.888   0.7247   0.4793     H
C       0.8907   0.4782   0.6171     C
H       0.8926   0.9689   0.8708     H
C       0.8933  0.63865  0.96888     C
H       0.8953   0.5329   0.6006     H
C       0.9062   0.7169   0.1762     C
H       0.9063   0.4278   0.0743     H
C       0.9085   0.9762   0.2805     C
C       0.9099   0.9797   0.4852     C
C       0.9167   0.2131   0.1543     C
H       0.9253   0.3751   0.2728     H
Zn     0.93182  0.79919  0.30864    Zn
H       0.9326   0.9389   0.4475     H
C       0.9405   0.4027   0.0294     C
C       0.9417   0.4727   0.7038     C
H       0.9438   0.4176   0.7192     H
C       0.9577   0.6734    0.105     C
O        0.963  0.27009  0.76847     O
H       0.9704   0.0138   0.6981     H
H       0.9744   0.2211   0.2047     H
H       0.9796   0.4486   0.5897     H
N        0.996  0.17526  0.09754     N
