data_I
_chemical_name_common  '/home/zhangsd/repos/MofS-CGCNN/ML/data/SSD/clean_cifs/ISUCUV_clean'
_cell_length_a 11.21890
_cell_length_b 11.21890
_cell_length_c 21.25500
_cell_angle_alpha 95.73890
_cell_angle_beta  95.73890
_cell_angle_gamma 107.19200
_space_group_name_H-M_alt      'P 1'


loop_
_space_group_symop_operation_xyz
  'x, y, z' 

loop_
_atom_site_label
_atom_site_fract_x
_atom_site_fract_y
_atom_site_fract_z
_atom_site_type_symbol
C       0.0016   0.6496   0.4191     C
C       0.0037   0.9315   0.6084     C
C       0.0062   0.8444   0.9621     C
O       0.0066    0.613  0.28654     O
H        0.007   0.7192   0.3979     H
H        0.011    0.238    0.029     H
C       0.0116   0.0616   0.9919     C
C       0.0122   0.5604   0.5177     C
H       0.0157   0.0959   0.3529     H
Fe     0.01684  0.49998  0.80759    Fe
C       0.0173   0.6637    0.484     C
C       0.0228   0.4706    0.616     C
C       0.0293   0.5725   0.5851     C
H       0.0319   0.7431   0.5066     H
C       0.0333   0.4825   0.6876     C
O       0.0387   0.6639  0.87076     O
H       0.0451   0.6513   0.6087     H
C       0.0471   0.8731   0.9064     C
C       0.0495   0.0885   0.9331     C
C       0.0616   0.0116   0.4919     C
H        0.062    0.169   0.9221     H
C       0.0685   0.9963   0.8916     C
C       0.0764   0.7768   0.8604     C
O      0.07714  0.59086  0.72033     O
C       0.0885   0.0495   0.4331     C
H       0.0959   0.0157   0.8529     H
C       0.1269   0.9529   0.5936     C
O       0.1368   0.8168   0.8167     O
C       0.1556   0.9938   0.5379     C
H        0.169    0.062   0.4221     H
O       0.1832   0.8632   0.6833     O
O       0.1915   0.4897  0.84125     O
C       0.2232   0.9236   0.6396     C
H        0.238    0.011    0.529     H
Fe     0.24704  0.75296     0.75    Fe
H       0.2569   0.9681   0.9934     H
H       0.2659   0.4811   0.5942     H
H       0.2775   0.3425   0.5098     H
H       0.2808    0.993   0.1021     H
H        0.287   0.3946   0.9235     H
C       0.2957   0.5749   0.8518     C
O       0.3297   0.6679  0.82274     O
O       0.3321   0.6703  0.67726     O
O       0.3361   0.9613  0.62924     O
C       0.3363   0.9827    0.016     C
C       0.3367   0.4999   0.5732     C
H       0.3425   0.2775   0.0098     H
C       0.3434   0.4166   0.5227     C
H       0.3487   0.9549   0.8913     H
C       0.3504   0.9984   0.0809     C
C       0.3608   0.4604   0.9374     C
O        0.387   0.9934  0.21346     O
C       0.3876   0.5656   0.9063     C
H       0.3946    0.287   0.4235     H
O      0.40914  0.92286  0.77967     O
C       0.4166   0.3434   0.0227     C
C       0.4251   0.7043   0.6482     C
C       0.4275   0.9707   0.9149     C
C       0.4344   0.6124   0.5937     C
C       0.4396   0.9878   0.9823     C
C       0.4435   0.4509     0.99     C
C       0.4509   0.4435     0.49     C
C       0.4604   0.3608   0.4374     C
C       0.4706   0.0228    0.116     C
H       0.4811   0.2659   0.0942     H
C       0.4825   0.0333   0.1876     C
O       0.4897   0.1915  0.34125     O
C       0.4999   0.3367   0.0732     C
Fe     0.49998  0.01684  0.30759    Fe
Fe     0.50002  0.98316  0.69241    Fe
C       0.5001   0.6633   0.9268     C
O       0.5103   0.8085  0.65875     O
C       0.5175   0.9667   0.8124     C
H       0.5189   0.7341   0.9058     H
C       0.5294   0.9772    0.884     C
C       0.5396   0.6392   0.5626     C
C       0.5491   0.5565     0.51     C
C       0.5565   0.5491     0.01     C
C       0.5604   0.0122   0.0177     C
C       0.5656   0.3876   0.4063     C
C       0.5725   0.0293   0.0851     C
C       0.5749   0.2957   0.3518     C
C       0.5834   0.6566   0.9773     C
O      0.59086  0.07714  0.22033     O
H       0.6054    0.713   0.5765     H
C       0.6124   0.4344   0.0937     C
O        0.613   0.0066  0.78654     O
C       0.6392   0.5396   0.0626     C
C       0.6496   0.0016   0.9191     C
H       0.6513   0.0451   0.1087     H
C       0.6566   0.5834   0.4773     C
H       0.6575   0.7225   0.9902     H
C       0.6633   0.5001   0.4268     C
C       0.6637   0.0173    0.984     C
O       0.6639   0.0387  0.37076     O
O       0.6679   0.3297  0.32274     O
O       0.6703   0.3321  0.17726     O
C       0.7043   0.4251   0.1482     C
H        0.713   0.6054   0.0765     H
H       0.7192    0.007   0.8979     H
H       0.7225   0.6575   0.4902     H
H       0.7341   0.5189   0.4058     H
H       0.7431   0.0319   0.0066     H
Fe     0.75296  0.24704     0.25    Fe
H        0.762    0.989    0.471     H
C       0.7768   0.0764   0.3604     C
O       0.8085   0.5103  0.15875     O
O       0.8168   0.1368   0.3167     O
H        0.831    0.938   0.5779     H
C       0.8444   0.0062   0.4621     C
O       0.8632   0.1832   0.1833     O
C       0.8731   0.0471   0.4064     C
H       0.9041   0.9843   0.1471     H
C       0.9115   0.9505   0.5669     C
O      0.92286  0.40914  0.27967     O
C       0.9236   0.2232   0.1396     C
C       0.9315   0.0037   0.1084     C
H        0.938    0.831   0.0779     H
C       0.9384   0.9884   0.5081     C
C       0.9505   0.9115   0.0669     C
C       0.9529   0.1269   0.0936     C
H       0.9549   0.3487   0.3913     H
O       0.9613   0.3361  0.12924     O
C       0.9667   0.5175   0.3124     C
H       0.9681   0.2569   0.4934     H
C       0.9707   0.4275   0.4149     C
C       0.9772   0.5294    0.384     C
C       0.9827   0.3363    0.516     C
Fe     0.98316  0.50002  0.19241    Fe
H       0.9843   0.9041   0.6471     H
C       0.9878   0.4396   0.4823     C
C       0.9884   0.9384   0.0081     C
H        0.989    0.762    0.971     H
H        0.993   0.2808   0.6021     H
O       0.9934    0.387  0.71346     O
C       0.9938   0.1556   0.0379     C
C       0.9963   0.0685   0.3916     C
C       0.9984   0.3504   0.5809     C
