data_I
_chemical_name_common  '/home/zhangsd/repos/MofS-CGCNN/ML/data/SSD/clean_cifs/ITETEH_clean'
_cell_length_a  8.67160
_cell_length_b  8.67160
_cell_length_c 10.86500
_cell_angle_alpha 90.00000
_cell_angle_beta  90.00000
_cell_angle_gamma 120.00000
_space_group_name_H-M_alt      'P 1'


loop_
_space_group_symop_operation_xyz
  'x, y, z' 

loop_
_atom_site_label
_atom_site_fract_x
_atom_site_fract_y
_atom_site_fract_z
_atom_site_type_symbol
O          0.0   0.1126  0.33333     O
C          0.0   0.2694  0.33333     C
C          0.0   0.5836  0.33333     C
Fe         0.0  0.94182  0.83333    Fe
O       0.0227   0.8336   0.4353     O
Fe     0.05818  0.05818  0.16667    Fe
C       0.0592   0.5349  0.22757     C
C       0.0606   0.3754  0.22917     C
H       0.0974   0.6092  0.15687     H
O       0.1126      1.0      0.0     O
O       0.1204   0.3129  0.13697     O
O       0.1664   0.1891  0.76863     O
O       0.1891   0.1664   0.5647     O
O       0.1925   0.8796  0.80363     O
C       0.2453   0.2453  0.66667     C
C       0.2694      1.0      0.0     C
O       0.3129   0.1204  0.19637     O
C       0.3148   0.9394  0.89583     C
C       0.3754   0.0606  0.10417     C
H       0.3908   0.4882   0.4902     H
C       0.4164   0.4164  0.66667     C
C       0.4651   0.5243   0.5609     C
C       0.4757   0.9408  0.89423     C
H       0.4882   0.3908  0.84313     H
H       0.5118   0.9026  0.82353     H
C       0.5243   0.4651  0.77243     C
C       0.5349   0.0592  0.10577     C
C       0.5836      0.0      1.0     C
H       0.6092   0.0974  0.17647     H
C       0.6246   0.6852   0.5625     C
C       0.6852   0.6246  0.77083     C
O       0.6871   0.8075   0.4703     O
C       0.7306   0.7306  0.66667     C
C       0.7547      1.0      0.0     C
O       0.8075   0.6871  0.86303     O
O       0.8109   0.9773  0.10197     O
O       0.8336   0.0227  0.89803     O
O       0.8796   0.1925   0.5297     O
O       0.8874   0.8874  0.66667     O
H       0.9026   0.5118   0.5098     H
C       0.9394   0.3148   0.4375     C
C       0.9408   0.4757   0.4391     C
Fe     0.94182      0.0      0.5    Fe
O       0.9773   0.8109  0.23137     O
C          1.0   0.7547  0.33333     C
