data_I
_chemical_name_common  '/home/zhangsd/repos/MofS-CGCNN/ML/data/SSD/clean_cifs/IWEVAJ_clean'
_cell_length_a 26.21700
_cell_length_b 26.21700
_cell_length_c 44.81300
_cell_angle_alpha 90.00000
_cell_angle_beta  90.00000
_cell_angle_gamma 90.00000
_space_group_name_H-M_alt      'P 1'


loop_
_space_group_symop_operation_xyz
  'x, y, z' 

loop_
_atom_site_label
_atom_site_fract_x
_atom_site_fract_y
_atom_site_fract_z
_atom_site_type_symbol
Cu         0.0  0.21545  0.12587    Cu
Cu         0.0  0.21545  0.87413    Cu
Cu         0.0  0.28687  0.16745    Cu
Cu         0.0  0.28687  0.83255    Cu
Cu         0.0  0.71313  0.16745    Cu
Cu         0.0  0.71313  0.83255    Cu
Cu         0.0  0.78455  0.12587    Cu
Cu         0.0  0.78455  0.87413    Cu
O      0.05236   0.3191   0.1422     O
O      0.05236   0.3191   0.8578     O
O      0.05236   0.6809   0.1422     O
O      0.05236   0.6809   0.8578     O
O      0.05259   0.2582  0.10697     O
O      0.05259   0.2582  0.89303     O
O      0.05259   0.7418  0.10697     O
O      0.05259   0.7418  0.89303     O
O      0.05288   0.2445  0.18633     O
O      0.05288   0.2445  0.81367     O
O      0.05288   0.7555  0.18633     O
O      0.05288   0.7555  0.81367     O
O      0.05364  0.18386   0.1499     O
O      0.05364  0.18386   0.8501     O
O      0.05364  0.81614   0.1499     O
O      0.05364  0.81614   0.8501     O
N       0.0606   0.3051   0.3823     N
N       0.0606   0.3051   0.6177     N
N       0.0606   0.6949   0.3823     N
N       0.0606   0.6949   0.6177     N
C       0.0683    0.296   0.1198     C
C       0.0683    0.296   0.8802     C
C       0.0683    0.704   0.1198     C
C       0.0683    0.704   0.8802     C
C       0.0692   0.2063  0.17317     C
C       0.0692   0.2063  0.82683     C
C       0.0692   0.7937  0.17317     C
C       0.0692   0.7937  0.82683     C
C       0.1074   0.3257   0.3973     C
C       0.1074   0.3257   0.6027     C
C       0.1074   0.6743   0.3973     C
C       0.1074   0.6743   0.6027     C
C       0.1122   0.3216   0.1032     C
C       0.1122   0.3216   0.8968     C
C       0.1122   0.6784   0.1032     C
C       0.1122   0.6784   0.8968     C
C       0.1135    0.178  0.18924     C
C       0.1135    0.178  0.81076     C
C       0.1135    0.822  0.18924     C
C       0.1135    0.822  0.81076     C
C       0.1294   0.3684   0.3838     C
C       0.1294   0.3684   0.6162     C
C       0.1294   0.6316   0.3838     C
C       0.1294   0.6316   0.6162     C
C       0.1299   0.3029   0.4232     C
C       0.1299   0.3029   0.5768     C
C       0.1299   0.6971   0.4232     C
C       0.1299   0.6971   0.5768     C
C       0.1316   0.3706   0.1162     C
C       0.1316   0.3706   0.8838     C
C       0.1316   0.6294   0.1162     C
C       0.1316   0.6294   0.8838     C
C       0.1331    0.197   0.2158     C
C       0.1331    0.197   0.7842     C
C       0.1331    0.803   0.2158     C
C       0.1331    0.803   0.7842     C
C       0.1336   0.2989  0.07815     C
C       0.1336   0.2989  0.92185     C
C       0.1336   0.7011  0.07815     C
C       0.1336   0.7011  0.92185     C
C       0.1357   0.1357    0.175     C
C       0.1357   0.1357    0.825     C
C       0.1357   0.8643    0.175     C
C       0.1357   0.8643    0.825     C
C       0.1735   0.1735   0.2299     C
C       0.1735   0.1735   0.7701     C
C       0.1735   0.8265   0.2299     C
C       0.1735   0.8265   0.7701     C
C       0.1743   0.3926   0.1027     C
C       0.1743   0.3926   0.8973     C
C       0.1743   0.6074   0.1027     C
C       0.1743   0.6074   0.8973     C
C       0.1762    0.323  0.43435     C
C       0.1762    0.323  0.56565     C
C       0.1762    0.677  0.43435     C
C       0.1762    0.677  0.56565     C
C        0.177   0.3238  0.06565     C
C        0.177   0.3238  0.93435     C
C        0.177   0.6762  0.06565     C
C        0.177   0.6762  0.93435     C
C        0.178   0.1135  0.18924     C
C        0.178   0.1135  0.81076     C
C        0.178   0.8865  0.18924     C
C        0.178   0.8865  0.81076     C
C       0.1784   0.3878   0.3968     C
C       0.1784   0.3878   0.6032     C
C       0.1784   0.6122   0.3968     C
C       0.1784   0.6122   0.6032     C
O       0.1809  0.44764   0.3578     O
O       0.1809  0.44764   0.6422     O
O       0.1809  0.55236   0.3578     O
O       0.1809  0.55236   0.6422     O
O       0.1818   0.2556  0.46936     O
O       0.1818   0.2556  0.53064     O
O       0.1818   0.7444  0.46936     O
O       0.1818   0.7444  0.53064     O
O      0.18386  0.05364   0.1499     O
O      0.18386  0.05364   0.8501     O
O      0.18386  0.94636   0.1499     O
O      0.18386  0.94636   0.8501     O
O      0.18435   0.2575  0.03017     O
O      0.18435   0.2575  0.96983     O
O      0.18435   0.7425  0.03017     O
O      0.18435   0.7425  0.96983     O
N       0.1949   0.4394   0.1177     N
N       0.1949   0.4394   0.8823     N
N       0.1949   0.5606   0.1177     N
N       0.1949   0.5606   0.8823     N
N       0.1967   0.1967   0.2564     N
N       0.1967   0.1967   0.7436     N
N       0.1967   0.8033   0.2564     N
N       0.1967   0.8033   0.7436     N
C        0.197   0.1331   0.2158     C
C        0.197   0.1331   0.7842     C
C        0.197   0.8669   0.2158     C
C        0.197   0.8669   0.7842     C
C       0.1971   0.3701   0.0768     C
C       0.1971   0.3701   0.9232     C
C       0.1971   0.6299   0.0768     C
C       0.1971   0.6299   0.9232     C
C       0.2011   0.3664  0.42185     C
C       0.2011   0.3664  0.57815     C
C       0.2011   0.6336  0.42185     C
C       0.2011   0.6336  0.57815     C
C       0.2033   0.2955  0.46019     C
C       0.2033   0.2955  0.53981     C
C       0.2033   0.7045  0.46019     C
C       0.2033   0.7045  0.53981     C
C        0.204   0.4317   0.3802     C
C        0.204   0.4317   0.6198     C
C        0.204   0.5683   0.3802     C
C        0.204   0.5683   0.6198     C
C       0.2045   0.2967  0.03981     C
C       0.2045   0.2967  0.96019     C
C       0.2045   0.7033  0.03981     C
C       0.2045   0.7033  0.96019     C
C       0.2063   0.0692  0.17317     C
C       0.2063   0.0692  0.82683     C
C       0.2063   0.9308  0.17317     C
C       0.2063   0.9308  0.82683     C
Cu     0.21313      0.5  0.33255    Cu
Cu     0.21313      0.5  0.66745    Cu
Cu     0.21324  0.21324      0.5    Cu
Cu     0.21324  0.78676      0.5    Cu
Cu     0.21529  0.21529      0.0    Cu
Cu     0.21529  0.78471      0.0    Cu
Cu     0.21545      0.0  0.12587    Cu
Cu     0.21545      0.0  0.87413    Cu
O       0.2418  0.44741  0.39303     O
O       0.2418  0.44741  0.60697     O
O       0.2418  0.55259  0.39303     O
O       0.2418  0.55259  0.60697     O
O       0.2425  0.31565  0.46983     O
O       0.2425  0.31565  0.53017     O
O       0.2425  0.68435  0.46983     O
O       0.2425  0.68435  0.53017     O
O       0.2444   0.3182  0.03064     O
O       0.2444   0.3182  0.96936     O
O       0.2444   0.6818  0.03064     O
O       0.2444   0.6818  0.96936     O
O       0.2445  0.05288  0.18633     O
O       0.2445  0.05288  0.81367     O
O       0.2445  0.94712  0.18633     O
O       0.2445  0.94712  0.81367     O
Cu        0.25     0.25     0.25    Cu
Cu        0.25     0.25     0.75    Cu
Cu        0.25     0.75     0.25    Cu
Cu        0.25     0.75     0.75    Cu
O       0.2555  0.44712  0.31367     O
O       0.2555  0.44712  0.68633     O
O       0.2555  0.55288  0.31367     O
O       0.2555  0.55288  0.68633     O
O       0.2556   0.1818  0.46936     O
O       0.2556   0.1818  0.53064     O
O       0.2556   0.8182  0.46936     O
O       0.2556   0.8182  0.53064     O
O       0.2575  0.18435  0.03017     O
O       0.2575  0.18435  0.96983     O
O       0.2575  0.81565  0.03017     O
O       0.2575  0.81565  0.96983     O
O       0.2582  0.05259  0.10697     O
O       0.2582  0.05259  0.89303     O
O       0.2582  0.94741  0.10697     O
O       0.2582  0.94741  0.89303     O
Cu     0.28455      0.5  0.37413    Cu
Cu     0.28455      0.5  0.62587    Cu
Cu     0.28471  0.28471      0.5    Cu
Cu     0.28471  0.71529      0.5    Cu
Cu     0.28676  0.28676      0.0    Cu
Cu     0.28676  0.71324      0.0    Cu
Cu     0.28687      0.0  0.16745    Cu
Cu     0.28687      0.0  0.83255    Cu
C       0.2937   0.4308  0.32683     C
C       0.2937   0.4308  0.67317     C
C       0.2937   0.5692  0.32683     C
C       0.2937   0.5692  0.67317     C
C       0.2955   0.2033  0.46019     C
C       0.2955   0.2033  0.53981     C
C       0.2955   0.7967  0.46019     C
C       0.2955   0.7967  0.53981     C
C        0.296   0.0683   0.1198     C
C        0.296   0.0683   0.8802     C
C        0.296   0.9317   0.1198     C
C        0.296   0.9317   0.8802     C
C       0.2967   0.2045  0.03981     C
C       0.2967   0.2045  0.96019     C
C       0.2967   0.7955  0.03981     C
C       0.2967   0.7955  0.96019     C
C       0.2989   0.1336  0.07815     C
C       0.2989   0.1336  0.92185     C
C       0.2989   0.8664  0.07815     C
C       0.2989   0.8664  0.92185     C
C       0.3029   0.1299   0.4232     C
C       0.3029   0.1299   0.5768     C
C       0.3029   0.8701   0.4232     C
C       0.3029   0.8701   0.5768     C
C        0.303   0.3669   0.2842     C
C        0.303   0.3669   0.7158     C
C        0.303   0.6331   0.2842     C
C        0.303   0.6331   0.7158     C
N       0.3033   0.3033   0.2436     N
N       0.3033   0.3033   0.7564     N
N       0.3033   0.6967   0.2436     N
N       0.3033   0.6967   0.7564     N
N       0.3051   0.0606   0.3823     N
N       0.3051   0.0606   0.6177     N
N       0.3051   0.9394   0.3823     N
N       0.3051   0.9394   0.6177     N
O      0.31565   0.2425  0.46983     O
O      0.31565   0.2425  0.53017     O
O      0.31565   0.7575  0.46983     O
O      0.31565   0.7575  0.53017     O
O      0.31614  0.44636   0.3501     O
O      0.31614  0.44636   0.6499     O
O      0.31614  0.55364   0.3501     O
O      0.31614  0.55364   0.6499     O
O       0.3182   0.2444  0.03064     O
O       0.3182   0.2444  0.96936     O
O       0.3182   0.7556  0.03064     O
O       0.3182   0.7556  0.96936     O
O       0.3191  0.05236   0.1422     O
O       0.3191  0.05236   0.8578     O
O       0.3191  0.94764   0.1422     O
O       0.3191  0.94764   0.8578     O
C       0.3216   0.1122   0.1032     C
C       0.3216   0.1122   0.8968     C
C       0.3216   0.8878   0.1032     C
C       0.3216   0.8878   0.8968     C
C        0.322   0.3865  0.31076     C
C        0.322   0.3865  0.68924     C
C        0.322   0.6135  0.31076     C
C        0.322   0.6135  0.68924     C
C        0.323   0.1762  0.43435     C
C        0.323   0.1762  0.56565     C
C        0.323   0.8238  0.43435     C
C        0.323   0.8238  0.56565     C
C       0.3238    0.177  0.06565     C
C       0.3238    0.177  0.93435     C
C       0.3238    0.823  0.06565     C
C       0.3238    0.823  0.93435     C
C       0.3257   0.1074   0.3973     C
C       0.3257   0.1074   0.6027     C
C       0.3257   0.8926   0.3973     C
C       0.3257   0.8926   0.6027     C
C       0.3265   0.3265   0.2701     C
C       0.3265   0.3265   0.7299     C
C       0.3265   0.6735   0.2701     C
C       0.3265   0.6735   0.7299     C
C       0.3643   0.3643    0.325     C
C       0.3643   0.3643    0.675     C
C       0.3643   0.6357    0.325     C
C       0.3643   0.6357    0.675     C
C       0.3664   0.2011  0.42185     C
C       0.3664   0.2011  0.57815     C
C       0.3664   0.7989  0.42185     C
C       0.3664   0.7989  0.57815     C
C       0.3669    0.303   0.2842     C
C       0.3669    0.303   0.7158     C
C       0.3669    0.697   0.2842     C
C       0.3669    0.697   0.7158     C
C       0.3684   0.1294   0.3838     C
C       0.3684   0.1294   0.6162     C
C       0.3684   0.8706   0.3838     C
C       0.3684   0.8706   0.6162     C
C       0.3701   0.1971   0.0768     C
C       0.3701   0.1971   0.9232     C
C       0.3701   0.8029   0.0768     C
C       0.3701   0.8029   0.9232     C
C       0.3706   0.1316   0.1162     C
C       0.3706   0.1316   0.8838     C
C       0.3706   0.8684   0.1162     C
C       0.3706   0.8684   0.8838     C
C       0.3865    0.322  0.31076     C
C       0.3865    0.322  0.68924     C
C       0.3865    0.678  0.31076     C
C       0.3865    0.678  0.68924     C
C       0.3878   0.1784   0.3968     C
C       0.3878   0.1784   0.6032     C
C       0.3878   0.8216   0.3968     C
C       0.3878   0.8216   0.6032     C
C       0.3926   0.1743   0.1027     C
C       0.3926   0.1743   0.8973     C
C       0.3926   0.8257   0.1027     C
C       0.3926   0.8257   0.8973     C
C       0.4308   0.2937  0.32683     C
C       0.4308   0.2937  0.67317     C
C       0.4308   0.7063  0.32683     C
C       0.4308   0.7063  0.67317     C
C       0.4317    0.204   0.3802     C
C       0.4317    0.204   0.6198     C
C       0.4317    0.796   0.3802     C
C       0.4317    0.796   0.6198     C
N       0.4394   0.1949   0.1177     N
N       0.4394   0.1949   0.8823     N
N       0.4394   0.8051   0.1177     N
N       0.4394   0.8051   0.8823     N
O      0.44636  0.31614   0.3501     O
O      0.44636  0.31614   0.6499     O
O      0.44636  0.68386   0.3501     O
O      0.44636  0.68386   0.6499     O
O      0.44712   0.2555  0.31367     O
O      0.44712   0.2555  0.68633     O
O      0.44712   0.7445  0.31367     O
O      0.44712   0.7445  0.68633     O
O      0.44741   0.2418  0.39303     O
O      0.44741   0.2418  0.60697     O
O      0.44741   0.7582  0.39303     O
O      0.44741   0.7582  0.60697     O
O      0.44764   0.1809   0.3578     O
O      0.44764   0.1809   0.6422     O
O      0.44764   0.8191   0.3578     O
O      0.44764   0.8191   0.6422     O
Cu         0.5  0.21313  0.33255    Cu
Cu         0.5  0.21313  0.66745    Cu
Cu         0.5  0.28455  0.37413    Cu
Cu         0.5  0.28455  0.62587    Cu
Cu         0.5  0.71545  0.37413    Cu
Cu         0.5  0.71545  0.62587    Cu
Cu         0.5  0.78687  0.33255    Cu
Cu         0.5  0.78687  0.66745    Cu
O      0.55236   0.1809   0.3578     O
O      0.55236   0.1809   0.6422     O
O      0.55236   0.8191   0.3578     O
O      0.55236   0.8191   0.6422     O
O      0.55259   0.2418  0.39303     O
O      0.55259   0.2418  0.60697     O
O      0.55259   0.7582  0.39303     O
O      0.55259   0.7582  0.60697     O
O      0.55288   0.2555  0.31367     O
O      0.55288   0.2555  0.68633     O
O      0.55288   0.7445  0.31367     O
O      0.55288   0.7445  0.68633     O
O      0.55364  0.31614   0.3501     O
O      0.55364  0.31614   0.6499     O
O      0.55364  0.68386   0.3501     O
O      0.55364  0.68386   0.6499     O
N       0.5606   0.1949   0.1177     N
N       0.5606   0.1949   0.8823     N
N       0.5606   0.8051   0.1177     N
N       0.5606   0.8051   0.8823     N
C       0.5683    0.204   0.3802     C
C       0.5683    0.204   0.6198     C
C       0.5683    0.796   0.3802     C
C       0.5683    0.796   0.6198     C
C       0.5692   0.2937  0.32683     C
C       0.5692   0.2937  0.67317     C
C       0.5692   0.7063  0.32683     C
C       0.5692   0.7063  0.67317     C
C       0.6074   0.1743   0.1027     C
C       0.6074   0.1743   0.8973     C
C       0.6074   0.8257   0.1027     C
C       0.6074   0.8257   0.8973     C
C       0.6122   0.1784   0.3968     C
C       0.6122   0.1784   0.6032     C
C       0.6122   0.8216   0.3968     C
C       0.6122   0.8216   0.6032     C
C       0.6135    0.322  0.31076     C
C       0.6135    0.322  0.68924     C
C       0.6135    0.678  0.31076     C
C       0.6135    0.678  0.68924     C
C       0.6294   0.1316   0.1162     C
C       0.6294   0.1316   0.8838     C
C       0.6294   0.8684   0.1162     C
C       0.6294   0.8684   0.8838     C
C       0.6299   0.1971   0.0768     C
C       0.6299   0.1971   0.9232     C
C       0.6299   0.8029   0.0768     C
C       0.6299   0.8029   0.9232     C
C       0.6316   0.1294   0.3838     C
C       0.6316   0.1294   0.6162     C
C       0.6316   0.8706   0.3838     C
C       0.6316   0.8706   0.6162     C
C       0.6331    0.303   0.2842     C
C       0.6331    0.303   0.7158     C
C       0.6331    0.697   0.2842     C
C       0.6331    0.697   0.7158     C
C       0.6336   0.2011  0.42185     C
C       0.6336   0.2011  0.57815     C
C       0.6336   0.7989  0.42185     C
C       0.6336   0.7989  0.57815     C
C       0.6357   0.3643    0.325     C
C       0.6357   0.3643    0.675     C
C       0.6357   0.6357    0.325     C
C       0.6357   0.6357    0.675     C
C       0.6735   0.3265   0.2701     C
C       0.6735   0.3265   0.7299     C
C       0.6735   0.6735   0.2701     C
C       0.6735   0.6735   0.7299     C
C       0.6743   0.1074   0.3973     C
C       0.6743   0.1074   0.6027     C
C       0.6743   0.8926   0.3973     C
C       0.6743   0.8926   0.6027     C
C       0.6762    0.177  0.06565     C
C       0.6762    0.177  0.93435     C
C       0.6762    0.823  0.06565     C
C       0.6762    0.823  0.93435     C
C        0.677   0.1762  0.43435     C
C        0.677   0.1762  0.56565     C
C        0.677   0.8238  0.43435     C
C        0.677   0.8238  0.56565     C
C        0.678   0.3865  0.31076     C
C        0.678   0.3865  0.68924     C
C        0.678   0.6135  0.31076     C
C        0.678   0.6135  0.68924     C
C       0.6784   0.1122   0.1032     C
C       0.6784   0.1122   0.8968     C
C       0.6784   0.8878   0.1032     C
C       0.6784   0.8878   0.8968     C
O       0.6809  0.05236   0.1422     O
O       0.6809  0.05236   0.8578     O
O       0.6809  0.94764   0.1422     O
O       0.6809  0.94764   0.8578     O
O       0.6818   0.2444  0.03064     O
O       0.6818   0.2444  0.96936     O
O       0.6818   0.7556  0.03064     O
O       0.6818   0.7556  0.96936     O
O      0.68386  0.44636   0.3501     O
O      0.68386  0.44636   0.6499     O
O      0.68386  0.55364   0.3501     O
O      0.68386  0.55364   0.6499     O
O      0.68435   0.2425  0.46983     O
O      0.68435   0.2425  0.53017     O
O      0.68435   0.7575  0.46983     O
O      0.68435   0.7575  0.53017     O
N       0.6949   0.0606   0.3823     N
N       0.6949   0.0606   0.6177     N
N       0.6949   0.9394   0.3823     N
N       0.6949   0.9394   0.6177     N
N       0.6967   0.3033   0.2436     N
N       0.6967   0.3033   0.7564     N
N       0.6967   0.6967   0.2436     N
N       0.6967   0.6967   0.7564     N
C        0.697   0.3669   0.2842     C
C        0.697   0.3669   0.7158     C
C        0.697   0.6331   0.2842     C
C        0.697   0.6331   0.7158     C
C       0.6971   0.1299   0.4232     C
C       0.6971   0.1299   0.5768     C
C       0.6971   0.8701   0.4232     C
C       0.6971   0.8701   0.5768     C
C       0.7011   0.1336  0.07815     C
C       0.7011   0.1336  0.92185     C
C       0.7011   0.8664  0.07815     C
C       0.7011   0.8664  0.92185     C
C       0.7033   0.2045  0.03981     C
C       0.7033   0.2045  0.96019     C
C       0.7033   0.7955  0.03981     C
C       0.7033   0.7955  0.96019     C
C        0.704   0.0683   0.1198     C
C        0.704   0.0683   0.8802     C
C        0.704   0.9317   0.1198     C
C        0.704   0.9317   0.8802     C
C       0.7045   0.2033  0.46019     C
C       0.7045   0.2033  0.53981     C
C       0.7045   0.7967  0.46019     C
C       0.7045   0.7967  0.53981     C
C       0.7063   0.4308  0.32683     C
C       0.7063   0.4308  0.67317     C
C       0.7063   0.5692  0.32683     C
C       0.7063   0.5692  0.67317     C
Cu     0.71313      0.0  0.16745    Cu
Cu     0.71313      0.0  0.83255    Cu
Cu     0.71324  0.28676      0.0    Cu
Cu     0.71324  0.71324      0.0    Cu
Cu     0.71529  0.28471      0.5    Cu
Cu     0.71529  0.71529      0.5    Cu
Cu     0.71545      0.5  0.37413    Cu
Cu     0.71545      0.5  0.62587    Cu
O       0.7418  0.05259  0.10697     O
O       0.7418  0.05259  0.89303     O
O       0.7418  0.94741  0.10697     O
O       0.7418  0.94741  0.89303     O
O       0.7425  0.18435  0.03017     O
O       0.7425  0.18435  0.96983     O
O       0.7425  0.81565  0.03017     O
O       0.7425  0.81565  0.96983     O
O       0.7444   0.1818  0.46936     O
O       0.7444   0.1818  0.53064     O
O       0.7444   0.8182  0.46936     O
O       0.7444   0.8182  0.53064     O
O       0.7445  0.44712  0.31367     O
O       0.7445  0.44712  0.68633     O
O       0.7445  0.55288  0.31367     O
O       0.7445  0.55288  0.68633     O
Cu        0.75     0.25     0.25    Cu
Cu        0.75     0.25     0.75    Cu
Cu        0.75     0.75     0.25    Cu
Cu        0.75     0.75     0.75    Cu
O       0.7555  0.05288  0.18633     O
O       0.7555  0.05288  0.81367     O
O       0.7555  0.94712  0.18633     O
O       0.7555  0.94712  0.81367     O
O       0.7556   0.3182  0.03064     O
O       0.7556   0.3182  0.96936     O
O       0.7556   0.6818  0.03064     O
O       0.7556   0.6818  0.96936     O
O       0.7575  0.31565  0.46983     O
O       0.7575  0.31565  0.53017     O
O       0.7575  0.68435  0.46983     O
O       0.7575  0.68435  0.53017     O
O       0.7582  0.44741  0.39303     O
O       0.7582  0.44741  0.60697     O
O       0.7582  0.55259  0.39303     O
O       0.7582  0.55259  0.60697     O
Cu     0.78455      0.0  0.12587    Cu
Cu     0.78455      0.0  0.87413    Cu
Cu     0.78471  0.21529      0.0    Cu
Cu     0.78471  0.78471      0.0    Cu
Cu     0.78676  0.21324      0.5    Cu
Cu     0.78676  0.78676      0.5    Cu
Cu     0.78687      0.5  0.33255    Cu
Cu     0.78687      0.5  0.66745    Cu
C       0.7937   0.0692  0.17317     C
C       0.7937   0.0692  0.82683     C
C       0.7937   0.9308  0.17317     C
C       0.7937   0.9308  0.82683     C
C       0.7955   0.2967  0.03981     C
C       0.7955   0.2967  0.96019     C
C       0.7955   0.7033  0.03981     C
C       0.7955   0.7033  0.96019     C
C        0.796   0.4317   0.3802     C
C        0.796   0.4317   0.6198     C
C        0.796   0.5683   0.3802     C
C        0.796   0.5683   0.6198     C
C       0.7967   0.2955  0.46019     C
C       0.7967   0.2955  0.53981     C
C       0.7967   0.7045  0.46019     C
C       0.7967   0.7045  0.53981     C
C       0.7989   0.3664  0.42185     C
C       0.7989   0.3664  0.57815     C
C       0.7989   0.6336  0.42185     C
C       0.7989   0.6336  0.57815     C
C       0.8029   0.3701   0.0768     C
C       0.8029   0.3701   0.9232     C
C       0.8029   0.6299   0.0768     C
C       0.8029   0.6299   0.9232     C
C        0.803   0.1331   0.2158     C
C        0.803   0.1331   0.7842     C
C        0.803   0.8669   0.2158     C
C        0.803   0.8669   0.7842     C
N       0.8033   0.1967   0.2564     N
N       0.8033   0.1967   0.7436     N
N       0.8033   0.8033   0.2564     N
N       0.8033   0.8033   0.7436     N
N       0.8051   0.4394   0.1177     N
N       0.8051   0.4394   0.8823     N
N       0.8051   0.5606   0.1177     N
N       0.8051   0.5606   0.8823     N
O      0.81565   0.2575  0.03017     O
O      0.81565   0.2575  0.96983     O
O      0.81565   0.7425  0.03017     O
O      0.81565   0.7425  0.96983     O
O      0.81614  0.05364   0.1499     O
O      0.81614  0.05364   0.8501     O
O      0.81614  0.94636   0.1499     O
O      0.81614  0.94636   0.8501     O
O       0.8182   0.2556  0.46936     O
O       0.8182   0.2556  0.53064     O
O       0.8182   0.7444  0.46936     O
O       0.8182   0.7444  0.53064     O
O       0.8191  0.44764   0.3578     O
O       0.8191  0.44764   0.6422     O
O       0.8191  0.55236   0.3578     O
O       0.8191  0.55236   0.6422     O
C       0.8216   0.3878   0.3968     C
C       0.8216   0.3878   0.6032     C
C       0.8216   0.6122   0.3968     C
C       0.8216   0.6122   0.6032     C
C        0.822   0.1135  0.18924     C
C        0.822   0.1135  0.81076     C
C        0.822   0.8865  0.18924     C
C        0.822   0.8865  0.81076     C
C        0.823   0.3238  0.06565     C
C        0.823   0.3238  0.93435     C
C        0.823   0.6762  0.06565     C
C        0.823   0.6762  0.93435     C
C       0.8238    0.323  0.43435     C
C       0.8238    0.323  0.56565     C
C       0.8238    0.677  0.43435     C
C       0.8238    0.677  0.56565     C
C       0.8257   0.3926   0.1027     C
C       0.8257   0.3926   0.8973     C
C       0.8257   0.6074   0.1027     C
C       0.8257   0.6074   0.8973     C
C       0.8265   0.1735   0.2299     C
C       0.8265   0.1735   0.7701     C
C       0.8265   0.8265   0.2299     C
C       0.8265   0.8265   0.7701     C
C       0.8643   0.1357    0.175     C
C       0.8643   0.1357    0.825     C
C       0.8643   0.8643    0.175     C
C       0.8643   0.8643    0.825     C
C       0.8664   0.2989  0.07815     C
C       0.8664   0.2989  0.92185     C
C       0.8664   0.7011  0.07815     C
C       0.8664   0.7011  0.92185     C
C       0.8669    0.197   0.2158     C
C       0.8669    0.197   0.7842     C
C       0.8669    0.803   0.2158     C
C       0.8669    0.803   0.7842     C
C       0.8684   0.3706   0.1162     C
C       0.8684   0.3706   0.8838     C
C       0.8684   0.6294   0.1162     C
C       0.8684   0.6294   0.8838     C
C       0.8701   0.3029   0.4232     C
C       0.8701   0.3029   0.5768     C
C       0.8701   0.6971   0.4232     C
C       0.8701   0.6971   0.5768     C
C       0.8706   0.3684   0.3838     C
C       0.8706   0.3684   0.6162     C
C       0.8706   0.6316   0.3838     C
C       0.8706   0.6316   0.6162     C
C       0.8865    0.178  0.18924     C
C       0.8865    0.178  0.81076     C
C       0.8865    0.822  0.18924     C
C       0.8865    0.822  0.81076     C
C       0.8878   0.3216   0.1032     C
C       0.8878   0.3216   0.8968     C
C       0.8878   0.6784   0.1032     C
C       0.8878   0.6784   0.8968     C
C       0.8926   0.3257   0.3973     C
C       0.8926   0.3257   0.6027     C
C       0.8926   0.6743   0.3973     C
C       0.8926   0.6743   0.6027     C
C       0.9308   0.2063  0.17317     C
C       0.9308   0.2063  0.82683     C
C       0.9308   0.7937  0.17317     C
C       0.9308   0.7937  0.82683     C
C       0.9317    0.296   0.1198     C
C       0.9317    0.296   0.8802     C
C       0.9317    0.704   0.1198     C
C       0.9317    0.704   0.8802     C
N       0.9394   0.3051   0.3823     N
N       0.9394   0.3051   0.6177     N
N       0.9394   0.6949   0.3823     N
N       0.9394   0.6949   0.6177     N
O      0.94636  0.18386   0.1499     O
O      0.94636  0.18386   0.8501     O
O      0.94636  0.81614   0.1499     O
O      0.94636  0.81614   0.8501     O
O      0.94712   0.2445  0.18633     O
O      0.94712   0.2445  0.81367     O
O      0.94712   0.7555  0.18633     O
O      0.94712   0.7555  0.81367     O
O      0.94741   0.2582  0.10697     O
O      0.94741   0.2582  0.89303     O
O      0.94741   0.7418  0.10697     O
O      0.94741   0.7418  0.89303     O
O      0.94764   0.3191   0.1422     O
O      0.94764   0.3191   0.8578     O
O      0.94764   0.6809   0.1422     O
O      0.94764   0.6809   0.8578     O
