data_I
_chemical_name_common  '/home/zhangsd/repos/MofS-CGCNN/ML/data/SSD/clean_cifs/IXEJOM_clean'
_cell_length_a 24.25700
_cell_length_b 24.25700
_cell_length_c 15.02500
_cell_angle_alpha 90.00000
_cell_angle_beta  90.00000
_cell_angle_gamma 90.00000
_space_group_name_H-M_alt      'P 1'


loop_
_space_group_symop_operation_xyz
  'x, y, z' 

loop_
_atom_site_label
_atom_site_fract_x
_atom_site_fract_y
_atom_site_fract_z
_atom_site_type_symbol
Zr         0.0  0.39963      0.5    Zr
O          0.0   0.4507    0.384     O
O          0.0   0.4507    0.616     O
O          0.0   0.5493    0.384     O
O          0.0   0.5493    0.616     O
Zr         0.0  0.60037      0.5    Zr
O      0.05427  0.35189   0.4135     O
O      0.05427  0.35189   0.5865     O
O      0.05427  0.64811   0.4135     O
O      0.05427  0.64811   0.5865     O
Zr     0.07268      0.5  0.38311    Zr
Zr     0.07268      0.5  0.61689    Zr
O       0.0728   0.4511      0.5     O
O       0.0728   0.5489      0.5     O
C        0.093   0.3666   0.3607     C
C        0.093   0.3666   0.6393     C
C        0.093   0.6334   0.3607     C
C        0.093   0.6334   0.6393     C
O       0.1028  0.41703   0.3355     O
O       0.1028  0.41703   0.6645     O
O       0.1028  0.58297   0.3355     O
O       0.1028  0.58297   0.6645     O
H       0.1043   0.2631   0.4116     H
H       0.1043   0.2631   0.5884     H
H       0.1043   0.7369   0.4116     H
H       0.1043   0.7369   0.5884     H
F       0.1244   0.1763   0.4487     F
F       0.1244   0.1763   0.5513     F
F       0.1244   0.8237   0.4487     F
F       0.1244   0.8237   0.5513     F
C       0.1287    0.323   0.3256     C
C       0.1287    0.323   0.6744     C
C       0.1287    0.677   0.3256     C
C       0.1287    0.677   0.6744     C
C       0.1293   0.2711   0.3647     C
C       0.1293   0.2711   0.6353     C
C       0.1293   0.7289   0.3647     C
C       0.1293   0.7289   0.6353     C
F       0.1322   0.1512   0.1667     F
F       0.1322   0.1512   0.8333     F
F       0.1322   0.8488   0.1667     F
F       0.1322   0.8488   0.8333     F
F       0.1512   0.1322   0.3333     F
F       0.1512   0.1322   0.6667     F
F       0.1512   0.8678   0.3333     F
F       0.1512   0.8678   0.6667     F
F       0.1627   0.2105   0.0734     F
F       0.1627   0.2105   0.9266     F
F       0.1627   0.7895   0.0734     F
F       0.1627   0.7895   0.9266     F
C       0.1632   0.1754   0.3853     C
C       0.1632   0.1754   0.6147     C
C       0.1632   0.8246   0.3853     C
C       0.1632   0.8246   0.6147     C
H       0.1648     0.37     0.23     H
H       0.1648     0.37     0.77     H
H       0.1648     0.63     0.23     H
H       0.1648     0.63     0.77     H
C       0.1651   0.3346   0.2571     C
C       0.1651   0.3346   0.7429     C
C       0.1651   0.6654   0.2571     C
C       0.1651   0.6654   0.7429     C
C       0.1664   0.2303    0.336     C
C       0.1664   0.2303    0.664     C
C       0.1664   0.7697    0.336     C
C       0.1664   0.7697    0.664     C
C       0.1754   0.1632   0.1147     C
C       0.1754   0.1632   0.8853     C
C       0.1754   0.8368   0.1147     C
C       0.1754   0.8368   0.8853     C
F       0.1763   0.1244   0.0513     F
F       0.1763   0.1244   0.9487     F
F       0.1763   0.8756   0.0513     F
F       0.1763   0.8756   0.9487     F
C       0.2025   0.2944   0.2275     C
C       0.2025   0.2944   0.7725     C
C       0.2025   0.7056   0.2275     C
C       0.2025   0.7056   0.7725     C
C        0.203   0.2432   0.2669     C
C        0.203   0.2432   0.7331     C
C        0.203   0.7568   0.2669     C
C        0.203   0.7568   0.7331     C
F       0.2105   0.1627   0.4266     F
F       0.2105   0.1627   0.5734     F
F       0.2105   0.8373   0.4266     F
F       0.2105   0.8373   0.5734     F
H       0.2274   0.3025   0.1805     H
H       0.2274   0.3025   0.8195     H
H       0.2274   0.6975   0.1805     H
H       0.2274   0.6975   0.8195     H
C       0.2303   0.1664    0.164     C
C       0.2303   0.1664    0.836     C
C       0.2303   0.8336    0.164     C
C       0.2303   0.8336    0.836     C
C       0.2432    0.203   0.2331     C
C       0.2432    0.203   0.7669     C
C       0.2432    0.797   0.2331     C
C       0.2432    0.797   0.7669     C
H       0.2631   0.1043   0.0884     H
H       0.2631   0.1043   0.9116     H
H       0.2631   0.8957   0.0884     H
H       0.2631   0.8957   0.9116     H
C       0.2711   0.1293   0.1353     C
C       0.2711   0.1293   0.8647     C
C       0.2711   0.8707   0.1353     C
C       0.2711   0.8707   0.8647     C
C       0.2944   0.2025   0.2725     C
C       0.2944   0.2025   0.7275     C
C       0.2944   0.7975   0.2725     C
C       0.2944   0.7975   0.7275     C
H       0.3025   0.2274   0.3195     H
H       0.3025   0.2274   0.6805     H
H       0.3025   0.7726   0.3195     H
H       0.3025   0.7726   0.6805     H
C        0.323   0.1287   0.1744     C
C        0.323   0.1287   0.8256     C
C        0.323   0.8713   0.1744     C
C        0.323   0.8713   0.8256     C
C       0.3346   0.1651   0.2429     C
C       0.3346   0.1651   0.7571     C
C       0.3346   0.8349   0.2429     C
C       0.3346   0.8349   0.7571     C
O      0.35189  0.05427   0.0865     O
O      0.35189  0.05427   0.9135     O
O      0.35189  0.94573   0.0865     O
O      0.35189  0.94573   0.9135     O
C       0.3666    0.093   0.1393     C
C       0.3666    0.093   0.8607     C
C       0.3666    0.907   0.1393     C
C       0.3666    0.907   0.8607     C
H         0.37   0.1648     0.27     H
H         0.37   0.1648     0.73     H
H         0.37   0.8352     0.27     H
H         0.37   0.8352     0.73     H
Zr     0.39963      0.0      0.0    Zr
O      0.41703   0.1028   0.1645     O
O      0.41703   0.1028   0.8355     O
O      0.41703   0.8972   0.1645     O
O      0.41703   0.8972   0.8355     O
O       0.4507      0.0    0.116     O
O       0.4507      0.0    0.884     O
O       0.4511   0.0728      0.0     O
O       0.4511   0.9272      0.0     O
Zr         0.5  0.07268  0.11689    Zr
Zr         0.5  0.07268  0.88311    Zr
Zr         0.5  0.92732  0.11689    Zr
Zr         0.5  0.92732  0.88311    Zr
O       0.5489   0.0728      0.0     O
O       0.5489   0.9272      0.0     O
O       0.5493      0.0    0.116     O
O       0.5493      0.0    0.884     O
O      0.58297   0.1028   0.1645     O
O      0.58297   0.1028   0.8355     O
O      0.58297   0.8972   0.1645     O
O      0.58297   0.8972   0.8355     O
Zr     0.60037      0.0      0.0    Zr
H         0.63   0.1648     0.27     H
H         0.63   0.1648     0.73     H
H         0.63   0.8352     0.27     H
H         0.63   0.8352     0.73     H
C       0.6334    0.093   0.1393     C
C       0.6334    0.093   0.8607     C
C       0.6334    0.907   0.1393     C
C       0.6334    0.907   0.8607     C
O      0.64811  0.05427   0.0865     O
O      0.64811  0.05427   0.9135     O
O      0.64811  0.94573   0.0865     O
O      0.64811  0.94573   0.9135     O
C       0.6654   0.1651   0.2429     C
C       0.6654   0.1651   0.7571     C
C       0.6654   0.8349   0.2429     C
C       0.6654   0.8349   0.7571     C
C        0.677   0.1287   0.1744     C
C        0.677   0.1287   0.8256     C
C        0.677   0.8713   0.1744     C
C        0.677   0.8713   0.8256     C
H       0.6975   0.2274   0.3195     H
H       0.6975   0.2274   0.6805     H
H       0.6975   0.7726   0.3195     H
H       0.6975   0.7726   0.6805     H
C       0.7056   0.2025   0.2725     C
C       0.7056   0.2025   0.7275     C
C       0.7056   0.7975   0.2725     C
C       0.7056   0.7975   0.7275     C
C       0.7289   0.1293   0.1353     C
C       0.7289   0.1293   0.8647     C
C       0.7289   0.8707   0.1353     C
C       0.7289   0.8707   0.8647     C
H       0.7369   0.1043   0.0884     H
H       0.7369   0.1043   0.9116     H
H       0.7369   0.8957   0.0884     H
H       0.7369   0.8957   0.9116     H
C       0.7568    0.203   0.2331     C
C       0.7568    0.203   0.7669     C
C       0.7568    0.797   0.2331     C
C       0.7568    0.797   0.7669     C
C       0.7697   0.1664    0.164     C
C       0.7697   0.1664    0.836     C
C       0.7697   0.8336    0.164     C
C       0.7697   0.8336    0.836     C
H       0.7726   0.3025   0.1805     H
H       0.7726   0.3025   0.8195     H
H       0.7726   0.6975   0.1805     H
H       0.7726   0.6975   0.8195     H
F       0.7895   0.1627   0.4266     F
F       0.7895   0.1627   0.5734     F
F       0.7895   0.8373   0.4266     F
F       0.7895   0.8373   0.5734     F
C        0.797   0.2432   0.2669     C
C        0.797   0.2432   0.7331     C
C        0.797   0.7568   0.2669     C
C        0.797   0.7568   0.7331     C
C       0.7975   0.2944   0.2275     C
C       0.7975   0.2944   0.7725     C
C       0.7975   0.7056   0.2275     C
C       0.7975   0.7056   0.7725     C
F       0.8237   0.1244   0.0513     F
F       0.8237   0.1244   0.9487     F
F       0.8237   0.8756   0.0513     F
F       0.8237   0.8756   0.9487     F
C       0.8246   0.1632   0.1147     C
C       0.8246   0.1632   0.8853     C
C       0.8246   0.8368   0.1147     C
C       0.8246   0.8368   0.8853     C
C       0.8336   0.2303    0.336     C
C       0.8336   0.2303    0.664     C
C       0.8336   0.7697    0.336     C
C       0.8336   0.7697    0.664     C
C       0.8349   0.3346   0.2571     C
C       0.8349   0.3346   0.7429     C
C       0.8349   0.6654   0.2571     C
C       0.8349   0.6654   0.7429     C
H       0.8352     0.37     0.23     H
H       0.8352     0.37     0.77     H
H       0.8352     0.63     0.23     H
H       0.8352     0.63     0.77     H
C       0.8368   0.1754   0.3853     C
C       0.8368   0.1754   0.6147     C
C       0.8368   0.8246   0.3853     C
C       0.8368   0.8246   0.6147     C
F       0.8373   0.2105   0.0734     F
F       0.8373   0.2105   0.9266     F
F       0.8373   0.7895   0.0734     F
F       0.8373   0.7895   0.9266     F
F       0.8488   0.1322   0.3333     F
F       0.8488   0.1322   0.6667     F
F       0.8488   0.8678   0.3333     F
F       0.8488   0.8678   0.6667     F
F       0.8678   0.1512   0.1667     F
F       0.8678   0.1512   0.8333     F
F       0.8678   0.8488   0.1667     F
F       0.8678   0.8488   0.8333     F
C       0.8707   0.2711   0.3647     C
C       0.8707   0.2711   0.6353     C
C       0.8707   0.7289   0.3647     C
C       0.8707   0.7289   0.6353     C
C       0.8713    0.323   0.3256     C
C       0.8713    0.323   0.6744     C
C       0.8713    0.677   0.3256     C
C       0.8713    0.677   0.6744     C
F       0.8756   0.1763   0.4487     F
F       0.8756   0.1763   0.5513     F
F       0.8756   0.8237   0.4487     F
F       0.8756   0.8237   0.5513     F
H       0.8957   0.2631   0.4116     H
H       0.8957   0.2631   0.5884     H
H       0.8957   0.7369   0.4116     H
H       0.8957   0.7369   0.5884     H
O       0.8972  0.41703   0.3355     O
O       0.8972  0.41703   0.6645     O
O       0.8972  0.58297   0.3355     O
O       0.8972  0.58297   0.6645     O
C        0.907   0.3666   0.3607     C
C        0.907   0.3666   0.6393     C
C        0.907   0.6334   0.3607     C
C        0.907   0.6334   0.6393     C
O       0.9272   0.4511      0.5     O
O       0.9272   0.5489      0.5     O
Zr     0.92732      0.5  0.38311    Zr
Zr     0.92732      0.5  0.61689    Zr
O      0.94573  0.35189   0.4135     O
O      0.94573  0.35189   0.5865     O
O      0.94573  0.64811   0.4135     O
O      0.94573  0.64811   0.5865     O
