data_I
_chemical_name_common  '/home/zhangsd/repos/MofS-CGCNN/ML/data/SSD/clean_cifs/IXODUV_clean'
_cell_length_a  6.80500
_cell_length_b 13.97930
_cell_length_c 15.94470
_cell_angle_alpha 90.00000
_cell_angle_beta  90.00000
_cell_angle_gamma 90.00000
_space_group_name_H-M_alt      'P 1'


loop_
_space_group_symop_operation_xyz
  'x, y, z' 

loop_
_atom_site_label
_atom_site_fract_x
_atom_site_fract_y
_atom_site_fract_z
_atom_site_type_symbol
H       0.0308   0.4076   0.7147     H
H       0.0322   0.4532   0.3206     H
H       0.0513   0.5165   0.8233     H
H       0.0531   0.5615   0.2116     H
O       0.0558  0.14114  0.57608     O
O       0.0563  0.16834  0.40196     O
V      0.06503  0.73611   0.0012     V
C       0.0691   0.0452  0.26647     C
C       0.0704  0.00149  0.69966     C
C       0.0816   0.9803  0.20131     C
C       0.0826  0.93637  0.76473     C
O       0.1161  0.81703  0.90193     O
O       0.1163  0.84507  0.07724     O
O      0.21694   0.3087  0.50722     O
C       0.2243  0.11905  0.60191     C
C       0.2245  0.15096  0.37326     C
C       0.2369  0.08589  0.29911     C
C       0.2381  0.04426  0.66867     C
C       0.2619  0.95574  0.16867     C
C       0.2631  0.91411  0.79911     C
C       0.2755  0.84904  0.87326     C
C       0.2757  0.88095  0.10191     C
O      0.28306   0.6913  0.00722     O
O       0.3837  0.15493  0.57724     O
O       0.3839  0.18297  0.40193     O
C       0.4174  0.06363  0.26473     C
C       0.4184   0.0197  0.70131     C
C       0.4296  0.99851  0.19966     C
C       0.4309   0.9548  0.76647     C
V      0.43497  0.26389   0.5012     V
O       0.4437  0.83166  0.90196     O
O       0.4442  0.85886  0.07608     O
H       0.4469   0.4385   0.7116     H
H       0.4487   0.4835   0.3233     H
H       0.4678   0.5468   0.8206     H
H       0.4692   0.5924   0.2147     H
H       0.5308   0.0924   0.2853     H
H       0.5322   0.0468   0.6794     H
H       0.5513   0.9835   0.1767     H
H       0.5531   0.9385   0.7884     H
O       0.5558  0.35886  0.42392     O
O       0.5563  0.33166  0.59804     O
V      0.56503  0.76389   0.9988     V
C       0.5691   0.4548  0.73353     C
C       0.5704  0.49851  0.30034     C
C       0.5816   0.5197  0.79869     C
C       0.5826  0.56363  0.23527     C
O       0.6161  0.68297  0.09807     O
O       0.6163  0.65493  0.92276     O
O      0.71694   0.1913  0.49278     O
C       0.7243  0.38095  0.39809     C
C       0.7245  0.34904  0.62674     C
C       0.7369  0.41411  0.70089     C
C       0.7381  0.45574  0.33133     C
C       0.7619  0.54426  0.83133     C
C       0.7631  0.58589  0.20089     C
C       0.7755  0.65096  0.12674     C
C       0.7757  0.61905  0.89809     C
O      0.78306   0.8087  0.99278     O
O       0.8837  0.34507  0.42276     O
O       0.8839  0.31703  0.59807     O
C       0.9174  0.43637  0.73527     C
C       0.9184   0.4803  0.29869     C
C       0.9296  0.50149  0.80034     C
C       0.9309   0.5452  0.23353     C
V      0.93497  0.23611   0.4988     V
O       0.9437  0.66834  0.09804     O
O       0.9442  0.64114  0.92392     O
H       0.9469   0.0615   0.2884     H
H       0.9487   0.0165   0.6767     H
H       0.9678   0.9532   0.1794     H
H       0.9692   0.9076   0.7853     H
