data_I
_chemical_name_common  '/home/zhangsd/repos/MofS-CGCNN/ML/data/SSD/clean_cifs/IXOFAD_clean'
_cell_length_a  6.80230
_cell_length_b 13.91200
_cell_length_c 16.05200
_cell_angle_alpha 90.00000
_cell_angle_beta  90.00000
_cell_angle_gamma 90.00000
_space_group_name_H-M_alt      'P 1'


loop_
_space_group_symop_operation_xyz
  'x, y, z' 

loop_
_atom_site_label
_atom_site_fract_x
_atom_site_fract_y
_atom_site_fract_z
_atom_site_type_symbol
H       0.0319   0.5523   0.3158     H
H       0.0329   0.5809   0.7053     H
H       0.0514   0.4724   0.8153     H
H        0.054   0.4456   0.2071     H
O       0.0563  0.85455  0.58015     O
O       0.0575  0.83779  0.40641     O
V       0.0645  0.26394  0.00079     V
C       0.0687   0.9626    0.272     C
C       0.0702   0.9882   0.7074     C
C        0.081   0.0535   0.7733     C
C        0.082   0.0265   0.2071     C
O       0.1143  0.15965  0.08196     O
O       0.1167  0.17671  0.90649     O
O      0.21776  0.69061   0.5039     O
C       0.2241   0.8753   0.6071     C
C       0.2254   0.8568  0.37863     C
C       0.2377   0.9231  0.30643     C
C        0.238   0.9473  0.67578     C
C        0.262   0.0527  0.17578     C
C       0.2623   0.0769  0.80643     C
C       0.2746   0.1432  0.87863     C
C       0.2759   0.1247   0.1071     C
O      0.28224  0.30939   0.0039     O
O       0.3833  0.82329  0.40649     O
O       0.3857  0.84035  0.58196     O
C        0.418   0.9735   0.7071     C
C        0.419   0.9465   0.2733     C
C       0.4298   0.0118   0.2074     C
C       0.4313   0.0374    0.772     C
V       0.4355  0.73606  0.50079     V
O       0.4425  0.16221  0.90641     O
O       0.4437  0.14545  0.08015     O
H        0.446   0.5544   0.7071     H
H       0.4486   0.5276   0.3153     H
H       0.4671   0.4191   0.2053     H
H       0.4681   0.4477   0.8158     H
H       0.5319   0.9477   0.6842     H
H       0.5329   0.9191   0.2947     H
H       0.5514   0.0276   0.1847     H
H        0.554   0.0544   0.7929     H
O       0.5563  0.64545  0.41985     O
O       0.5575  0.66221  0.59359     O
V       0.5645  0.23606  0.99921     V
C       0.5687   0.5374    0.728     C
C       0.5702   0.5118   0.2926     C
C        0.581   0.4465   0.2267     C
C        0.582   0.4735   0.7929     C
O       0.6143  0.34035  0.91804     O
O       0.6167  0.32329  0.09351     O
O      0.71776  0.80939   0.4961     O
C       0.7241   0.6247   0.3929     C
C       0.7254   0.6432  0.62137     C
C       0.7377   0.5769  0.69357     C
C        0.738   0.5527  0.32422     C
C        0.762   0.4473  0.82422     C
C       0.7623   0.4231  0.19357     C
C       0.7746   0.3568  0.12137     C
C       0.7759   0.3753   0.8929     C
O      0.78224  0.19061   0.9961     O
O       0.8833  0.67671  0.59351     O
O       0.8857  0.65965  0.41804     O
C        0.918   0.5265   0.2929     C
C        0.919   0.5535   0.7267     C
C       0.9298   0.4882   0.7926     C
C       0.9313   0.4626    0.228     C
V       0.9355  0.76394  0.49921     V
O       0.9425  0.33779  0.09359     O
O       0.9437  0.35455  0.91985     O
H        0.946   0.9456   0.2929     H
H       0.9486   0.9724   0.6847     H
H       0.9671   0.0809   0.7947     H
H       0.9681   0.0523   0.1842     H
