data_I
_chemical_name_common  '/home/zhangsd/repos/MofS-CGCNN/ML/data/SSD/clean_cifs/IXOFUX_clean'
_cell_length_a  6.82700
_cell_length_b 13.96500
_cell_length_c 16.07300
_cell_angle_alpha 90.00000
_cell_angle_beta  90.00000
_cell_angle_gamma 90.00000
_space_group_name_H-M_alt      'P 1'


loop_
_space_group_symop_operation_xyz
  'x, y, z' 

loop_
_atom_site_label
_atom_site_fract_x
_atom_site_fract_y
_atom_site_fract_z
_atom_site_type_symbol
H       0.0311   0.4523   0.3188     H
H       0.0313   0.4122   0.7132     H
H       0.0518   0.5521   0.2068     H
H       0.0519   0.5185   0.8202     H
O       0.0559    0.166   0.4053     O
O       0.0563   0.1428   0.5785     O
V      0.06512  0.73585  0.00089     V
C       0.0698    0.004   0.7025     C
C       0.0699   0.0391   0.2698     C
C       0.0823   0.9406   0.7665     C
C       0.0829   0.9777   0.2039     C
O       0.1164   0.8426   0.0762     O
O       0.1172   0.8193   0.9031     O
O       0.2177   0.3088   0.5058     O
C       0.2221   0.1205   0.6046     C
C       0.2242   0.1462   0.3758     C
C       0.2378   0.0826   0.3025     C
C       0.2385   0.0474   0.6704     C
C       0.2615   0.9526   0.1704     C
C       0.2622   0.9174   0.8025     C
C       0.2758   0.8538   0.8758     C
C       0.2779   0.8795   0.1046     C
O       0.2823   0.6912   0.0058     O
O       0.3828   0.1807   0.4031     O
O       0.3836   0.1574   0.5762     O
C       0.4171   0.0223   0.7039     C
C       0.4177   0.0594   0.2665     C
C       0.4301   0.9609   0.7698     C
C       0.4302    0.996   0.2025     C
V      0.43488  0.26415  0.50089     V
O       0.4437   0.8572   0.0785     O
O       0.4441    0.834   0.9053     O
H       0.4481   0.4815   0.3202     H
H       0.4482   0.4479   0.7068     H
H       0.4687   0.5878   0.2132     H
H       0.4689   0.5477   0.8188     H
H       0.5311   0.0477   0.6812     H
H       0.5313   0.0878   0.2868     H
H       0.5518   0.9479   0.7932     H
H       0.5519   0.9815   0.1798     H
O       0.5559    0.334   0.5947     O
O       0.5563   0.3572   0.4215     O
V      0.56512  0.76415  0.99911     V
C       0.5698    0.496   0.2975     C
C       0.5699   0.4609   0.7302     C
C       0.5823   0.5594   0.2335     C
C       0.5829   0.5223   0.7961     C
O       0.6164   0.6574   0.9238     O
O       0.6172   0.6807   0.0969     O
O       0.7177   0.1912   0.4942     O
C       0.7221   0.3795   0.3954     C
C       0.7242   0.3538   0.6242     C
C       0.7378   0.4174   0.6975     C
C       0.7385   0.4526   0.3296     C
C       0.7615   0.5474   0.8296     C
C       0.7622   0.5826   0.1975     C
C       0.7758   0.6462   0.1242     C
C       0.7779   0.6205   0.8954     C
O       0.7823   0.8088   0.9942     O
O       0.8828   0.3193   0.5969     O
O       0.8836   0.3426   0.4238     O
C       0.9171   0.4777   0.2961     C
C       0.9177   0.4406   0.7335     C
C       0.9301   0.5391   0.2302     C
C       0.9302    0.504   0.7975     C
V      0.93488  0.23585  0.49911     V
O       0.9437   0.6428   0.9215     O
O       0.9441    0.666   0.0947     O
H       0.9481   0.0185   0.6798     H
H       0.9482   0.0521   0.2932     H
H       0.9687   0.9122   0.7868     H
H       0.9689   0.9523   0.1812     H
