data_I
_chemical_name_common  '/home/zhangsd/repos/MofS-CGCNN/ML/data/SSD/clean_cifs/IYIGEC_clean'
_cell_length_a  6.73380
_cell_length_b 16.69030
_cell_length_c 16.69030
_cell_angle_alpha 87.66780
_cell_angle_beta  78.36220
_cell_angle_gamma 78.36200
_space_group_name_H-M_alt      'P 1'


loop_
_space_group_symop_operation_xyz
  'x, y, z' 

loop_
_atom_site_label
_atom_site_fract_x
_atom_site_fract_y
_atom_site_fract_z
_atom_site_type_symbol
H       0.0091   0.8327   0.5857     H
H       0.0108   0.3777   0.3249     H
O       0.0112   0.8082    0.021     O
O       0.0302   0.5589   0.3227     O
O       0.0322    0.479   0.8082     O
O       0.0376    0.955    0.742     O
H        0.042    0.714     0.29     H
H        0.046    0.786     0.21     H
S      0.04749  0.26272   0.0061     S
S      0.05359   0.4939  0.26272     S
N        0.072   0.0757   0.4829     N
Ag     0.08368  0.10904  0.61744    Ag
O       0.0882   0.0589   0.8227     O
O       0.0891   0.3227   0.9411     O
C       0.0917   0.5788   0.6918     C
H       0.1115   0.6751   0.8777     H
C       0.1224     0.75     0.25     C
C       0.1243   0.1392   0.4242     C
H       0.1304   0.2377   0.3991     H
H       0.1319   0.6009   0.7377     H
C       0.1426   0.9325   0.5183     C
H       0.1521   0.5397   0.5009     H
H       0.1525   0.9461   0.5731     H
O       0.1596   0.3082    0.521     O
C       0.1705   0.6918   0.9212     C
S      0.18979   0.9939  0.76272     S
Ag     0.18984  0.60904  0.11744    Ag
H       0.1908   0.1084   0.3746     H
H       0.1918   0.5009   0.9603     H
H       0.1927   0.9603   0.9991     H
N       0.1935   0.8054    0.301     N
H       0.1967   0.9836   0.4052     H
H       0.2008   0.6254   0.6084     H
C       0.2049   0.9976   0.4602     C
C       0.2165   0.1918   0.4212     C
O       0.2204    0.242    0.045     O
H       0.2328   0.7377   0.8991     H
C       0.2365   0.5758   0.6392     C
H       0.2368   0.7215   0.3903     H
H       0.2368   0.8807   0.5031     H
H       0.2427   0.8877   0.2109     H
H        0.256     0.29    0.786     H
H       0.2601   0.0031   0.1193     H
O       0.2654    0.455    0.242     O
H       0.2744   0.0731   0.0539     H
H       0.2866   0.8777   0.8249     H
C       0.2975   0.5398   0.4976     C
Ag     0.29888  0.11744  0.89096    Ag
N       0.2999   0.6946    0.199     N
Ag     0.30728  0.38256  0.60904    Ag
C       0.3123   0.6392   0.9242     C
S      0.31631  0.23728   0.4939     S
O       0.3194    0.021   0.6918     O
H       0.3197   0.5948   0.4836     H
C       0.3214   0.7539   0.3541     C
C       0.3245   0.8541   0.2461     C
H       0.3262   0.6084   0.8746     H
H       0.3283   0.4461   0.0731     H
H        0.332     0.21    0.714     H
C       0.3349   0.9602   0.0024     C
H       0.3357   0.1751   0.3777     H
C       0.3373   0.4976   0.9602     C
C       0.3391   0.0183   0.0675     C
H       0.3413   0.6123   0.2891     H
H       0.3418   0.5857   0.6673     H
H        0.347   0.0009   0.4603     H
H       0.3486   0.7785   0.1097     H
N       0.3523   0.5171   0.5757     N
O       0.3529   0.1773   0.5589     O
C       0.3623   0.9212   0.8082     C
N       0.3694   0.5757   0.9829     N
H       0.3696   0.7891   0.3877     H
C       0.3724     0.25     0.75     C
H       0.3729   0.8903   0.2785     H
H       0.3794   0.3807   0.0031     H
H       0.3825   0.4969   0.3807     H
H       0.3981   0.9052   0.0164     H
H       0.4014   0.4269   0.4461     H
H       0.4052   0.0857   0.1673     H
C       0.4066   0.4325   0.0183     C
H       0.4145   0.4836   0.9052     H
C       0.4247   0.6459   0.2539     C
C       0.4249   0.4817   0.4325     C
H       0.4275   0.6673   0.9143     H
C       0.4294   0.7461   0.1459     C
H       0.4346   0.8746   0.8916     H
N       0.4451   0.9829   0.9243     N
C       0.4515   0.9242   0.8608     C
H       0.4536   0.2891   0.8877     H
H       0.4583   0.3903   0.7785     H
H       0.4705   0.8991   0.7623     H
O       0.4926    0.742    0.545     O
N       0.4945    0.199   0.8054     N
N       0.4989    0.301   0.6946     N
N       0.5011    0.699   0.3054     N
N       0.5055    0.801   0.1946     N
O       0.5074    0.258    0.455     O
H       0.5295   0.1009   0.2377     H
H       0.5417   0.6097   0.2215     H
H       0.5464   0.7109   0.1123     H
C       0.5485   0.0758   0.1392     C
N       0.5549   0.0171   0.0757     N
H       0.5654   0.1254   0.1084     H
C       0.5706   0.2539   0.8541     C
H       0.5725   0.3327   0.0857     H
C       0.5751   0.5183   0.5675     C
C       0.5753   0.3541   0.7461     C
H       0.5855   0.5164   0.0948     H
C       0.5934   0.5675   0.9817     C
H       0.5948   0.9143   0.8327     H
H       0.5986   0.5731   0.5539     H
H       0.6019   0.0948   0.9836     H
H       0.6175   0.5031   0.6193     H
H       0.6206   0.6193   0.9969     H
H       0.6271   0.1097   0.7215     H
C       0.6276     0.75     0.25     C
H       0.6304   0.2109   0.6123     H
N       0.6306   0.4243   0.0171     N
C       0.6377   0.0788   0.1918     C
O       0.6471   0.8227   0.4411     O
N       0.6477   0.4829   0.4243     N
H       0.6514   0.2215   0.8903     H
H        0.653   0.9991   0.5397     H
H       0.6582   0.4143   0.3327     H
H       0.6587   0.3877   0.7109     H
C       0.6609   0.9817   0.9325     C
C       0.6627   0.5024   0.0398     C
H       0.6643   0.8249   0.6223     H
C       0.6651   0.0398   0.9976     C
H        0.668     0.79    0.286     H
H       0.6717   0.5539   0.9269     H
H       0.6738   0.3916   0.1254     H
C       0.6755   0.1459   0.7539     C
C       0.6786   0.2461   0.6459     C
H       0.6803   0.4052   0.5164     H
O       0.6806    0.979   0.3082     O
S      0.68369  0.76272   0.5061     S
C       0.6877   0.3608   0.0758     C
Ag     0.69272  0.61744  0.39096    Ag
N       0.7001   0.3054    0.801     N
Ag     0.70112  0.88256  0.10904    Ag
C       0.7025   0.4602   0.5024     C
H       0.7134   0.1223   0.1751     H
H       0.7256   0.9269   0.9461     H
O       0.7346    0.545    0.758     O
H       0.7399   0.9969   0.8807     H
H        0.744     0.71    0.214     H
H       0.7573   0.1123   0.7891     H
H       0.7632   0.1193   0.4969     H
H       0.7632   0.2785   0.6097     H
C       0.7635   0.4242   0.3608     C
H       0.7672   0.2623   0.1009     H
O       0.7796    0.758    0.955     O
C       0.7835   0.8082   0.5788     C
C       0.7951   0.0024   0.5398     C
H       0.7992   0.3746   0.3916     H
H       0.8033   0.0164   0.5948     H
N       0.8065   0.1946    0.699     N
H       0.8073   0.0397   0.0009     H
H       0.8082   0.4991   0.0397     H
H       0.8092   0.8916   0.6254     H
Ag     0.81016  0.39096  0.88256    Ag
S      0.81021   0.0061  0.23728     S
C       0.8295   0.3082   0.0788     C
O       0.8404   0.6918    0.479     O
H       0.8475   0.0539   0.4269     H
H       0.8479   0.4603   0.4991     H
C       0.8574   0.0675   0.4817     C
H       0.8681   0.3991   0.2623     H
H       0.8696   0.7623   0.6009     H
C       0.8757   0.8608   0.5758     C
C       0.8776     0.25     0.75     C
H       0.8885   0.3249   0.1223     H
C       0.9083   0.4212   0.3082     C
O       0.9109   0.6773   0.0589     O
O       0.9118   0.9411   0.1773     O
Ag     0.91632  0.89096  0.38256    Ag
N        0.928   0.9243   0.5171     N
S      0.94641   0.5061  0.73728     S
S      0.95251  0.73728   0.9939     S
H        0.954    0.214     0.79     H
H        0.958    0.286     0.71     H
O       0.9624    0.045    0.258     O
O       0.9678    0.521   0.1918     O
O       0.9698   0.4411   0.6773     O
O       0.9888   0.1918    0.979     O
H       0.9892   0.6223   0.6751     H
H       0.9909   0.1673   0.4143     H
