data_I
_chemical_name_common  '/home/zhangsd/repos/MofS-CGCNN/ML/data/SSD/clean_cifs/IYUROK_clean'
_cell_length_a 12.86800
_cell_length_b 13.35100
_cell_length_c 10.52600
_cell_angle_alpha 90.00000
_cell_angle_beta  104.39000
_cell_angle_gamma 90.00000
_space_group_name_H-M_alt      'P 1'


loop_
_space_group_symop_operation_xyz
  'x, y, z' 

loop_
_atom_site_label
_atom_site_fract_x
_atom_site_fract_y
_atom_site_fract_z
_atom_site_type_symbol
Cu         0.0      0.0      0.0    Cu
Cu         0.0      0.0      0.5    Cu
Co         0.0  0.14679     0.75    Co
Co         0.0  0.85321     0.25    Co
N       0.0312   0.2763   0.0844     N
N       0.0312   0.7237   0.5844     N
N       0.0372    0.208   0.0221     N
N       0.0372    0.792   0.5221     N
N       0.0437   0.1356   0.9561     N
N       0.0437   0.8644   0.4561     N
H       0.0908   0.3596   0.8568     H
H       0.0908   0.6404   0.3568     H
O       0.1043   0.0623   0.4165     O
O       0.1043   0.9377   0.9165     O
O       0.1094   0.0309   0.7394     O
O       0.1094   0.9691   0.2394     O
N       0.1223   0.2538   0.7458     N
N       0.1223   0.7462   0.2458     N
C       0.1354   0.3423    0.803     C
C       0.1354   0.6577    0.303     C
C       0.1374   0.0419   0.3163     C
C       0.1374   0.9581   0.8163     C
H       0.1813   0.2297   0.3904     H
H       0.1813   0.7703   0.8904     H
H       0.1877   0.1639   0.6397     H
H       0.1877   0.8361   0.1397     H
C       0.1926   0.2276   0.6766     C
C       0.1926   0.7724   0.1766     C
C       0.2119   0.4112   0.7876     C
C       0.2119   0.5888   0.2876     C
H       0.2163   0.4737   0.8278     H
H       0.2163   0.5263   0.3278     H
C       0.2192   0.1138   0.2875     C
C       0.2192   0.8862   0.7875     C
C       0.2285   0.2089   0.3416     C
C       0.2285   0.7911   0.8416     C
C       0.2715   0.2911   0.6584     C
C       0.2715   0.7089   0.1584     C
C       0.2808   0.3862   0.7125     C
C       0.2808   0.6138   0.2125     C
H       0.2837   0.0263   0.1722     H
H       0.2837   0.9737   0.6722     H
C       0.2881   0.0888   0.2124     C
C       0.2881   0.9112   0.7124     C
C       0.3074   0.2724   0.3234     C
C       0.3074   0.7276   0.8234     C
H       0.3123   0.3361   0.3603     H
H       0.3123   0.6639   0.8603     H
H       0.3187   0.2703   0.6096     H
H       0.3187   0.7297   0.1096     H
C       0.3626   0.4581   0.6837     C
C       0.3626   0.5419   0.1837     C
C       0.3646   0.1577    0.197     C
C       0.3646   0.8423    0.697     C
N       0.3777   0.2462   0.2542     N
N       0.3777   0.7538   0.7542     N
O       0.3906   0.4691   0.2606     O
O       0.3906   0.5309   0.7606     O
O       0.3957   0.4377   0.5835     O
O       0.3957   0.5623   0.0835     O
H       0.4092   0.1404   0.1432     H
H       0.4092   0.8596   0.6432     H
N       0.4563   0.3644   0.0439     N
N       0.4563   0.6356   0.5439     N
N       0.4628    0.292   0.9779     N
N       0.4628    0.708   0.4779     N
N       0.4688   0.2237   0.9156     N
N       0.4688   0.7763   0.4156     N
Co         0.5  0.35321     0.25    Co
Cu         0.5      0.5      0.0    Cu
Cu         0.5      0.5      0.5    Cu
Co         0.5  0.64679     0.75    Co
N       0.5312   0.2237   0.5844     N
N       0.5312   0.7763   0.0844     N
N       0.5372    0.292   0.5221     N
N       0.5372    0.708   0.0221     N
N       0.5437   0.3644   0.4561     N
N       0.5437   0.6356   0.9561     N
H       0.5908   0.1404   0.3568     H
H       0.5908   0.8596   0.8568     H
O       0.6043   0.4377   0.9165     O
O       0.6043   0.5623   0.4165     O
O       0.6094   0.4691   0.2394     O
O       0.6094   0.5309   0.7394     O
N       0.6223   0.2462   0.2458     N
N       0.6223   0.7538   0.7458     N
C       0.6354   0.1577    0.303     C
C       0.6354   0.8423    0.803     C
C       0.6374   0.4581   0.8163     C
C       0.6374   0.5419   0.3163     C
H       0.6813   0.2703   0.8904     H
H       0.6813   0.7297   0.3904     H
H       0.6877   0.3361   0.1397     H
H       0.6877   0.6639   0.6397     H
C       0.6926   0.2724   0.1766     C
C       0.6926   0.7276   0.6766     C
C       0.7119   0.0888   0.2876     C
C       0.7119   0.9112   0.7876     C
H       0.7163   0.0263   0.3278     H
H       0.7163   0.9737   0.8278     H
C       0.7192   0.3862   0.7875     C
C       0.7192   0.6138   0.2875     C
C       0.7285   0.2911   0.8416     C
C       0.7285   0.7089   0.3416     C
C       0.7715   0.2089   0.1584     C
C       0.7715   0.7911   0.6584     C
C       0.7808   0.1138   0.2125     C
C       0.7808   0.8862   0.7125     C
H       0.7837   0.4737   0.6722     H
H       0.7837   0.5263   0.1722     H
C       0.7881   0.4112   0.7124     C
C       0.7881   0.5888   0.2124     C
C       0.8074   0.2276   0.8234     C
C       0.8074   0.7724   0.3234     C
H       0.8123   0.1639   0.8603     H
H       0.8123   0.8361   0.3603     H
H       0.8187   0.2297   0.1096     H
H       0.8187   0.7703   0.6096     H
C       0.8626   0.0419   0.1837     C
C       0.8626   0.9581   0.6837     C
C       0.8646   0.3423    0.697     C
C       0.8646   0.6577    0.197     C
N       0.8777   0.2538   0.7542     N
N       0.8777   0.7462   0.2542     N
O       0.8906   0.0309   0.7606     O
O       0.8906   0.9691   0.2606     O
O       0.8957   0.0623   0.0835     O
O       0.8957   0.9377   0.5835     O
H       0.9092   0.3596   0.6432     H
H       0.9092   0.6404   0.1432     H
N       0.9563   0.1356   0.5439     N
N       0.9563   0.8644   0.0439     N
N       0.9628    0.208   0.4779     N
N       0.9628    0.792   0.9779     N
N       0.9688   0.2763   0.4156     N
N       0.9688   0.7237   0.9156     N
