data_I
_chemical_name_common  '/home/zhangsd/repos/MofS-CGCNN/ML/data/SSD/clean_cifs/JABMEF_clean'
_cell_length_a 17.35140
_cell_length_b  9.50750
_cell_length_c  9.80650
_cell_angle_alpha 90.00000
_cell_angle_beta  102.68200
_cell_angle_gamma 90.00000
_space_group_name_H-M_alt      'P 1'


loop_
_space_group_symop_operation_xyz
  'x, y, z' 

loop_
_atom_site_label
_atom_site_fract_x
_atom_site_fract_y
_atom_site_fract_z
_atom_site_type_symbol
P          0.0  0.04456     0.25     P
P          0.0  0.95544     0.75     P
O       0.0089   0.0543   0.8796     O
O       0.0089   0.9457   0.3796     O
H       0.0307   0.1032   0.6283     H
H       0.0307   0.8968   0.1283     H
H       0.0713   0.1969   0.6492     H
H       0.0713   0.8031   0.1492     H
O      0.07412   0.1351   0.2653     O
O      0.07412   0.8649   0.7653     O
O       0.1064   0.2549   0.6501     O
O       0.1064   0.7451   0.1501     O
Zn     0.17892   0.0795  0.37523    Zn
Zn     0.17892   0.9205  0.87523    Zn
O       0.1869   0.0619   0.5735     O
O       0.1869   0.9381   0.0735     O
P      0.18957  0.17787  0.68124     P
P      0.18957  0.82213  0.18124     P
O        0.203   0.1142   0.8282     O
O        0.203   0.8858   0.3282     O
O       0.2494   0.2913   0.6807     O
O       0.2494   0.7087   0.1807     O
O       0.2506   0.2087   0.3193     O
O       0.2506   0.7913   0.8193     O
O        0.297   0.3858   0.1718     O
O        0.297   0.6142   0.6718     O
P      0.31043  0.32213  0.31876     P
P      0.31043  0.67787  0.81876     P
O       0.3131   0.4381   0.4265     O
O       0.3131   0.5619   0.9265     O
Zn     0.32108   0.4205  0.62477    Zn
Zn     0.32108   0.5795  0.12477    Zn
O       0.3936   0.2451   0.3499     O
O       0.3936   0.7549   0.8499     O
O      0.42588   0.3649   0.7347     O
O      0.42588   0.6351   0.2347     O
H       0.4287   0.3031   0.3508     H
H       0.4287   0.6969   0.8508     H
H       0.4693   0.3968   0.3717     H
H       0.4693   0.6032   0.8717     H
O       0.4911   0.4457   0.1204     O
O       0.4911   0.5543   0.6204     O
P          0.5  0.45544     0.75     P
P          0.5  0.54456     0.25     P
O       0.5089   0.4457   0.3796     O
O       0.5089   0.5543   0.8796     O
H       0.5307   0.3968   0.1283     H
H       0.5307   0.6032   0.6283     H
H       0.5713   0.3031   0.1492     H
H       0.5713   0.6969   0.6492     H
O      0.57412   0.3649   0.7653     O
O      0.57412   0.6351   0.2653     O
O       0.6064   0.2451   0.1501     O
O       0.6064   0.7549   0.6501     O
Zn     0.67892   0.4205  0.87523    Zn
Zn     0.67892   0.5795  0.37523    Zn
O       0.6869   0.4381   0.0735     O
O       0.6869   0.5619   0.5735     O
P      0.68957  0.32213  0.18124     P
P      0.68957  0.67787  0.68124     P
O        0.703   0.3858   0.3282     O
O        0.703   0.6142   0.8282     O
O       0.7494   0.2087   0.1807     O
O       0.7494   0.7913   0.6807     O
O       0.7506   0.2913   0.8193     O
O       0.7506   0.7087   0.3193     O
O        0.797   0.1142   0.6718     O
O        0.797   0.8858   0.1718     O
P      0.81043  0.17787  0.81876     P
P      0.81043  0.82213  0.31876     P
O       0.8131   0.0619   0.9265     O
O       0.8131   0.9381   0.4265     O
Zn     0.82108   0.0795  0.12477    Zn
Zn     0.82108   0.9205  0.62477    Zn
O       0.8936   0.2549   0.8499     O
O       0.8936   0.7451   0.3499     O
O      0.92588   0.1351   0.2347     O
O      0.92588   0.8649   0.7347     O
H       0.9287   0.1969   0.8508     H
H       0.9287   0.8031   0.3508     H
H       0.9693   0.1032   0.8717     H
H       0.9693   0.8968   0.3717     H
O       0.9911   0.0543   0.6204     O
O       0.9911   0.9457   0.1204     O
