data_I
_chemical_name_common  '/home/zhangsd/repos/MofS-CGCNN/ML/data/SSD/clean_cifs/JAHNEM02_clean'
_cell_length_a 13.60930
_cell_length_b 13.60930
_cell_length_c  8.16090
_cell_angle_alpha 90.00000
_cell_angle_beta  90.00000
_cell_angle_gamma 120.00000
_space_group_name_H-M_alt      'P 1'


loop_
_space_group_symop_operation_xyz
  'x, y, z' 

loop_
_atom_site_label
_atom_site_fract_x
_atom_site_fract_y
_atom_site_fract_z
_atom_site_type_symbol
H       0.0184   0.5603   0.3071     H
C       0.0342   0.6814   0.1612     C
Mn     0.03893  0.70422   0.5434    Mn
H       0.0461   0.6482   0.0633     H
O       0.0473   0.2279   0.9048     O
O       0.0585   0.8138   0.7467     O
N       0.0623   0.6364   0.3066     N
H       0.0845   0.7629   0.1558     H
H        0.085   0.2866   0.4437     H
C       0.0893   0.3447   0.6658     C
C       0.1079   0.2666     0.78     C
N       0.1292   0.6335   0.6916     N
N       0.1298   0.4487   0.1037     N
H       0.1344   0.4216   0.7101     H
H        0.135    0.653    0.299     H
N       0.1358   0.3459   0.5036     N
H       0.1527   0.4104   0.4503     H
C       0.1587   0.8921     0.78     C
O       0.1806   0.9527   0.9048     O
O       0.1862   0.2447   0.7467     O
C       0.2014   0.6456   0.7763     C
H       0.2016    0.915   0.4437     H
C        0.209   0.5297   0.0552     C
N       0.2101   0.8642   0.5036     N
O       0.2279   0.1806   0.4048     O
H       0.2371   0.3216   0.1558     H
O       0.2447   0.0585   0.2467     O
C       0.2554   0.9107   0.6658     C
H       0.2577   0.8473   0.4503     H
C       0.2666   0.1587     0.28     C
H       0.2866   0.2016   0.9437     H
H       0.2872   0.8656   0.7101     H
Mn     0.29578  0.33471   0.5434    Mn
C       0.3186   0.3528   0.1612     C
N       0.3189   0.8702   0.1037     N
C       0.3207    0.791   0.0552     C
H       0.3216   0.0845   0.6558     H
Cr     0.33333  0.66667  0.92566    Cr
Mn     0.33471  0.03893   0.0434    Mn
C       0.3447   0.2554   0.1658     C
N       0.3459   0.2101   0.0036     N
H        0.347    0.482    0.299     H
H       0.3518   0.3979   0.0633     H
C       0.3528   0.0342   0.6612     C
C       0.3544   0.5558   0.7763     C
N       0.3636   0.4259   0.3066     N
N       0.3665   0.4957   0.6916     N
H       0.3979   0.0461   0.5633     H
H       0.4104   0.2577   0.9503     H
H       0.4216   0.2872   0.2101     H
N       0.4259   0.0623   0.8066     N
H       0.4397   0.4581   0.3071     H
C       0.4442   0.7986   0.7763     C
N       0.4487   0.3189   0.6037     N
H       0.4581   0.0184   0.8071     H
C       0.4703   0.6793   0.0552     C
H        0.482    0.135    0.799     H
N       0.4957   0.1292   0.1916     N
N       0.5043   0.8708   0.6916     N
H        0.518    0.865    0.299     H
C       0.5297   0.3207   0.5552     C
H       0.5419   0.9816   0.3071     H
N       0.5513   0.6811   0.1037     N
C       0.5558   0.2014   0.2763     C
H       0.5603   0.5419   0.8071     H
N       0.5741   0.9377   0.3066     N
H       0.5784   0.7128   0.7101     H
H       0.5896   0.7423   0.4503     H
H       0.6021   0.9539   0.0633     H
N       0.6335   0.5043   0.1916     N
N       0.6364   0.5741   0.8066     N
C       0.6456   0.4442   0.2763     C
C       0.6472   0.9658   0.1612     C
H       0.6482   0.6021   0.5633     H
H        0.653    0.518    0.799     H
N       0.6541   0.7899   0.5036     N
C       0.6553   0.7446   0.6658     C
Mn     0.66529  0.96107   0.5434    Mn
Cr     0.66667  0.33333  0.42566    Cr
H       0.6784   0.9155   0.1558     H
C       0.6793    0.209   0.5552     C
N       0.6811   0.1298   0.6037     N
C       0.6814   0.6472   0.6612     C
Mn     0.70422  0.66529   0.0434    Mn
H       0.7128   0.1344   0.2101     H
H       0.7134   0.7984   0.4437     H
C       0.7334   0.8413     0.78     C
H       0.7423   0.1527   0.9503     H
C       0.7446   0.0893   0.1658     C
O       0.7553   0.9415   0.7467     O
H       0.7629   0.6784   0.6558     H
O       0.7721   0.8194   0.9048     O
N       0.7899   0.1358   0.0036     N
C        0.791   0.4703   0.5552     C
H       0.7984    0.085   0.9437     H
C       0.7986   0.3544   0.2763     C
O       0.8138   0.7553   0.2467     O
O       0.8194   0.0473   0.4048     O
C       0.8413   0.1079     0.28     C
H       0.8473   0.5896   0.9503     H
N       0.8642   0.6541   0.0036     N
H        0.865    0.347    0.799     H
H       0.8656   0.5784   0.2101     H
N       0.8702   0.5513   0.6037     N
N       0.8708   0.3665   0.1916     N
C       0.8921   0.7334     0.28     C
C       0.9107   0.6553   0.1658     C
H        0.915   0.7134   0.9437     H
H       0.9155   0.2371   0.6558     H
N       0.9377   0.3636   0.8066     N
O       0.9415   0.1862   0.2467     O
O       0.9527   0.7721   0.4048     O
H       0.9539   0.3518   0.5633     H
Mn     0.96107  0.29578   0.0434    Mn
C       0.9658   0.3186   0.6612     C
H       0.9816   0.4397   0.8071     H
