data_I
_chemical_name_common  '/home/zhangsd/repos/MofS-CGCNN/ML/data/SSD/clean_cifs/JAHNEM01_clean'
_cell_length_a 13.60130
_cell_length_b 13.60130
_cell_length_c  8.14040
_cell_angle_alpha 90.00000
_cell_angle_beta  90.00000
_cell_angle_gamma 120.00000
_space_group_name_H-M_alt      'P 1'


loop_
_space_group_symop_operation_xyz
  'x, y, z' 

loop_
_atom_site_label
_atom_site_fract_x
_atom_site_fract_y
_atom_site_fract_z
_atom_site_type_symbol
H        0.018   0.5595    0.306     H
C       0.0339   0.6811   0.1595     C
Mn     0.03887  0.70384  0.54316    Mn
H       0.0453   0.6477   0.0612     H
O       0.0464   0.2273   0.9043     O
O       0.0585   0.8135   0.7464     O
N       0.0621   0.6356   0.3055     N
H       0.0845   0.7626   0.1539     H
H       0.0853   0.2864   0.4427     H
C       0.0897   0.3446   0.6651     C
C       0.1081    0.267   0.7799     C
N       0.1288   0.6333   0.6911     N
N       0.1298   0.4485   0.1043     N
H       0.1348   0.4216   0.7093     H
H       0.1348   0.6521   0.2978     H
N       0.1361   0.3459   0.5027     N
H       0.1528   0.4103   0.4491     H
C       0.1589   0.8919   0.7799     C
O       0.1809   0.9536   0.9043     O
O       0.1865    0.245   0.7464     O
H       0.2011   0.9147   0.4427     H
C       0.2015   0.6451   0.7762     C
C       0.2087   0.5295   0.0556     C
N       0.2098   0.8639   0.5027     N
O       0.2273   0.1809   0.4043     O
H       0.2374   0.3219   0.1539     H
O        0.245   0.0585   0.2464     O
C       0.2549   0.9103   0.6651     C
H       0.2575   0.8472   0.4491     H
C        0.267   0.1589   0.2799     C
H       0.2864   0.2011   0.9427     H
H       0.2868   0.8652   0.7093     H
Mn     0.29616  0.33503  0.54316    Mn
N       0.3187   0.8702   0.1043     N
C       0.3189   0.3528   0.1595     C
C       0.3208   0.7913   0.0556     C
H       0.3219   0.0845   0.6539     H
Cr     0.33333  0.66667  0.92642    Cr
Mn     0.33503  0.03887  0.04316    Mn
C       0.3446   0.2549   0.1651     C
N       0.3459   0.2098   0.0027     N
H       0.3479   0.4827   0.2978     H
H       0.3523   0.3976   0.0612     H
C       0.3528   0.0339   0.6595     C
C       0.3549   0.5564   0.7762     C
N       0.3644   0.4265   0.3055     N
N       0.3667   0.4955   0.6911     N
H       0.3976   0.0453   0.5612     H
H       0.4103   0.2575   0.9491     H
H       0.4216   0.2868   0.2093     H
N       0.4265   0.0621   0.8055     N
H       0.4405   0.4585    0.306     H
C       0.4436   0.7985   0.7762     C
N       0.4485   0.3187   0.6043     N
H       0.4585    0.018    0.806     H
C       0.4705   0.6792   0.0556     C
H       0.4827   0.1348   0.7978     H
N       0.4955   0.1288   0.1911     N
N       0.5045   0.8712   0.6911     N
H       0.5173   0.8652   0.2978     H
C       0.5295   0.3208   0.5556     C
H       0.5415    0.982    0.306     H
N       0.5515   0.6813   0.1043     N
C       0.5564   0.2015   0.2762     C
H       0.5595   0.5415    0.806     H
N       0.5735   0.9379   0.3055     N
H       0.5784   0.7132   0.7093     H
H       0.5897   0.7425   0.4491     H
H       0.6024   0.9547   0.0612     H
N       0.6333   0.5045   0.1911     N
N       0.6356   0.5735   0.8055     N
C       0.6451   0.4436   0.2762     C
C       0.6472   0.9661   0.1595     C
H       0.6477   0.6024   0.5612     H
H       0.6521   0.5173   0.7978     H
N       0.6541   0.7902   0.5027     N
C       0.6554   0.7451   0.6651     C
Mn     0.66497  0.96113  0.54316    Mn
Cr     0.66667  0.33333  0.42642    Cr
H       0.6781   0.9155   0.1539     H
C       0.6792   0.2087   0.5556     C
C       0.6811   0.6472   0.6595     C
N       0.6813   0.1298   0.6043     N
Mn     0.70384  0.66497  0.04316    Mn
H       0.7132   0.1348   0.2093     H
H       0.7136   0.7989   0.4427     H
C        0.733   0.8411   0.7799     C
H       0.7425   0.1528   0.9491     H
C       0.7451   0.0897   0.1651     C
O        0.755   0.9415   0.7464     O
H       0.7626   0.6781   0.6539     H
O       0.7727   0.8191   0.9043     O
N       0.7902   0.1361   0.0027     N
C       0.7913   0.4705   0.5556     C
C       0.7985   0.3549   0.2762     C
H       0.7989   0.0853   0.9427     H
O       0.8135    0.755   0.2464     O
O       0.8191   0.0464   0.4043     O
C       0.8411   0.1081   0.2799     C
H       0.8472   0.5897   0.9491     H
N       0.8639   0.6541   0.0027     N
H       0.8652   0.3479   0.7978     H
H       0.8652   0.5784   0.2093     H
N       0.8702   0.5515   0.6043     N
N       0.8712   0.3667   0.1911     N
C       0.8919    0.733   0.2799     C
C       0.9103   0.6554   0.1651     C
H       0.9147   0.7136   0.9427     H
H       0.9155   0.2374   0.6539     H
N       0.9379   0.3644   0.8055     N
O       0.9415   0.1865   0.2464     O
O       0.9536   0.7727   0.4043     O
H       0.9547   0.3523   0.5612     H
Mn     0.96113  0.29616  0.04316    Mn
C       0.9661   0.3189   0.6595     C
H        0.982   0.4405    0.806     H
