data_I
_chemical_name_common  '/home/zhangsd/repos/MofS-CGCNN/ML/data/SSD/clean_cifs/JAKBUV_clean'
_cell_length_a 10.09800
_cell_length_b 12.15600
_cell_length_c 17.11900
_cell_angle_alpha 90.00000
_cell_angle_beta  96.32000
_cell_angle_gamma 90.00000
_space_group_name_H-M_alt      'P 1'


loop_
_space_group_symop_operation_xyz
  'x, y, z' 

loop_
_atom_site_label
_atom_site_fract_x
_atom_site_fract_y
_atom_site_fract_z
_atom_site_type_symbol
C       0.0375   0.6304   0.7209     C
C       0.0375   0.8696   0.2209     C
N       0.0592   0.1759   0.7939     N
N       0.0592   0.3241   0.2939     N
N       0.1566   0.5909   0.7358     N
N       0.1566   0.9091   0.2358     N
C       0.1774   0.0131  0.24911     C
C       0.1774   0.4869  0.74911     C
N       0.2085   0.1019  0.26072     N
N       0.2085   0.3981  0.76072     N
N        0.233   0.1243  0.52569     N
N        0.233   0.3757  0.02569     N
C       0.2414   0.1614  0.59669     C
C       0.2414   0.3386  0.09669     C
N       0.2429   0.1839  0.66053     N
N       0.2429   0.3161  0.16053     N
C       0.2682   0.1834  0.46833     C
C       0.2682   0.3166  0.96833     C
Mn      0.2689  0.22545   0.7877    Mn
Mn      0.2689  0.27455   0.2877    Mn
N       0.2947   0.2253   0.4133     N
N       0.2947   0.2747   0.9133     N
N       0.3264   0.0536  0.81529     N
N       0.3264   0.4464  0.31529     N
C       0.3474   0.5373  0.30714     C
C       0.3474   0.9627  0.80714     C
N       0.3627   0.6433   0.3048     N
N       0.3627   0.8567   0.8048     N
C         0.45   0.6858  0.26342     C
C         0.45   0.8142  0.76342     C
N       0.4786   0.2311   0.2726     N
N       0.4786   0.2689   0.7726     N
N       0.5214   0.7311   0.2274     N
N       0.5214   0.7689   0.7274     N
C         0.55   0.1858  0.23658     C
C         0.55   0.3142  0.73658     C
N       0.6373   0.1433   0.1952     N
N       0.6373   0.3567   0.6952     N
C       0.6526   0.0373  0.19286     C
C       0.6526   0.4627  0.69286     C
N       0.6736   0.5536  0.68471     N
N       0.6736   0.9464  0.18471     N
N       0.7053   0.7253   0.0867     N
N       0.7053   0.7747   0.5867     N
Mn      0.7311  0.72545   0.7123    Mn
Mn      0.7311  0.77455   0.2123    Mn
C       0.7318   0.6834  0.03167     C
C       0.7318   0.8166  0.53167     C
N       0.7571   0.6839  0.83947     N
N       0.7571   0.8161  0.33947     N
C       0.7586   0.6614  0.90331     C
C       0.7586   0.8386  0.40331     C
N        0.767   0.6243  0.97431     N
N        0.767   0.8757  0.47431     N
N       0.7915   0.6019  0.23928     N
N       0.7915   0.8981  0.73928     N
C       0.8226   0.5131  0.25089     C
C       0.8226   0.9869  0.75089     C
N       0.8434   0.0909   0.7642     N
N       0.8434   0.4091   0.2642     N
N       0.9408   0.6759   0.7061     N
N       0.9408   0.8241   0.2061     N
C       0.9625   0.1304   0.7791     C
C       0.9625   0.3696   0.2791     C
