data_I
_chemical_name_common  '/home/zhangsd/repos/MofS-CGCNN/ML/data/SSD/clean_cifs/JALCAD_clean'
_cell_length_a 21.49340
_cell_length_b 21.49340
_cell_length_c 21.49340
_cell_angle_alpha 90.00000
_cell_angle_beta  90.00000
_cell_angle_gamma 90.00000
_space_group_name_H-M_alt      'P 1'


loop_
_space_group_symop_operation_xyz
  'x, y, z' 

loop_
_atom_site_label
_atom_site_fract_x
_atom_site_fract_y
_atom_site_fract_z
_atom_site_type_symbol
H       0.0089   0.2484   0.2699     H
H       0.0089   0.7516   0.7301     H
C      0.01089  0.20565  0.28111     C
C      0.01089  0.79435  0.71889     C
N      0.01414   0.3088    0.024     N
N      0.01414   0.6912    0.976     N
C      0.01682  0.07971    0.307     C
C      0.01682  0.92029    0.693     C
N        0.024  0.01414   0.3088     N
N        0.024  0.98586   0.6912     N
C      0.04091  0.10828   0.7023     C
C      0.04091  0.89172   0.2977     C
C       0.0433  0.16993  0.71435     C
C       0.0433  0.83007  0.28565     C
C      0.06837  0.17701  0.29347     C
C      0.06837  0.82299  0.70653     C
C      0.07052  0.11461   0.3048     C
C      0.07052  0.88539   0.6952     C
H       0.0781   0.0845   0.7003     H
H       0.0781   0.9155   0.2997     H
C      0.07971    0.307  0.01682     C
C      0.07971    0.693  0.98318     C
H       0.0845   0.2997   0.9219     H
H       0.0845   0.7003   0.0781     H
H        0.095   0.3113   0.1096     H
H        0.095   0.6887   0.8904     H
C      0.10654  0.19911  0.72341     C
C      0.10654  0.80089  0.27659     C
C      0.10828   0.2977  0.95909     C
C      0.10828   0.7023  0.04091     C
H       0.1096    0.095   0.3113     H
H       0.1096    0.905   0.6887     H
O      0.11055  0.24872  0.75297     O
O      0.11055  0.75128  0.24703     O
C      0.11461   0.3048  0.07052     C
C      0.11461   0.6952  0.92948     C
C      0.12813  0.21191  0.29281     C
C      0.12813  0.78809  0.70719     C
O      0.12961  0.26396   0.2668     O
O      0.12961  0.73604   0.7332     O
O       0.1517  0.16942  0.69978     O
O       0.1517  0.83058  0.30022     O
O      0.16942  0.30022   0.8483     O
O      0.16942  0.69978   0.1517     O
C      0.16993  0.28565   0.9567     C
C      0.16993  0.71435   0.0433     C
O      0.17323  0.18587   0.3188     O
O      0.17323  0.81413   0.6812     O
C      0.17701  0.29347  0.06837     C
C      0.17701  0.70653  0.93163     C
Al     0.18077  0.30148  0.76072    Al
Al     0.18077  0.69852  0.23928    Al
O       0.1812  0.31413  0.67323     O
O       0.1812  0.68587  0.32677     O
O      0.18587   0.3188  0.17323     O
O      0.18587   0.6812  0.82677     O
H       0.1887    0.405   0.6096     H
H       0.1887    0.595   0.3904     H
N       0.1912  0.48586    0.524     N
N       0.1912  0.51414    0.476     N
C        0.193  0.42029  0.51682     C
C        0.193  0.57971  0.48318     C
C       0.1952  0.38539  0.57052     C
C       0.1952  0.61461  0.42948     C
Al     0.19852  0.31923  0.26072    Al
Al     0.19852  0.68077  0.73928    Al
C      0.19911  0.27659  0.89346     C
C      0.19911  0.72341  0.10654     C
O      0.19978  0.33058   0.3483     O
O      0.19978  0.66942   0.6517     O
H       0.2003   0.4155   0.4219     H
H       0.2003   0.5845   0.5781     H
C       0.2023  0.39172  0.45909     C
C       0.2023  0.60828  0.54091     C
C      0.20565  0.28111  0.01089     C
C      0.20565  0.71889  0.98911     C
C      0.20653  0.32299  0.56837     C
C      0.20653  0.67701  0.43163     C
C      0.20719  0.28809  0.62813     C
C      0.20719  0.71191  0.37187     C
C      0.21191  0.29281  0.12813     C
C      0.21191  0.70719  0.87187     C
C      0.21435  0.33007   0.4567     C
C      0.21435  0.66993   0.5433     C
C      0.21889  0.29435  0.51089     C
C      0.21889  0.70565  0.48911     C
C      0.22341  0.30089  0.39346     C
C      0.22341  0.69911  0.60654     C
H       0.2301   0.2516   0.5089     H
H       0.2301   0.7484   0.4911     H
O       0.2332  0.23604  0.62961     O
O       0.2332  0.76396  0.37039     O
O      0.23604  0.37039   0.7668     O
O      0.23604  0.62961   0.2332     O
Al     0.23928  0.18077  0.69852    Al
Al     0.23928  0.81923  0.30148    Al
O      0.24062  0.24062  0.75938     O
O      0.24062  0.75938  0.24062     O
O      0.24703  0.11055  0.75128     O
O      0.24703  0.88945  0.24872     O
H       0.2484   0.2699   0.0089     H
H       0.2484   0.7301   0.9911     H
O      0.24872  0.24703  0.88945     O
O      0.24872  0.75297  0.11055     O
O      0.25128  0.38945  0.25297     O
O      0.25128  0.61055  0.74703     O
H       0.2516   0.4911   0.7699     H
H       0.2516   0.5089   0.2301     H
O      0.25297  0.25128  0.38945     O
O      0.25297  0.74872  0.61055     O
O      0.25938  0.25938  0.25938     O
O      0.25938  0.74062  0.74062     O
Al     0.26072  0.19852  0.31923    Al
Al     0.26072  0.80148  0.68077    Al
O      0.26396   0.2668  0.12961     O
O      0.26396   0.7332  0.87039     O
O       0.2668  0.12961  0.26396     O
O       0.2668  0.87039  0.73604     O
H       0.2699   0.0089   0.2484     H
H       0.2699   0.9911   0.7516     H
C      0.27659  0.10654  0.80089     C
C      0.27659  0.89346  0.19911     C
C      0.28111  0.01089  0.20565     C
C      0.28111  0.98911  0.79435     C
C      0.28565   0.0433  0.83007     C
C      0.28565   0.9567  0.16993     C
C      0.28809  0.37187  0.79281     C
C      0.28809  0.62813  0.20719     C
C      0.29281  0.12813  0.21191     C
C      0.29281  0.87187  0.78809     C
C      0.29347  0.06837  0.17701     C
C      0.29347  0.93163  0.82299     C
C      0.29435  0.48911  0.78111     C
C      0.29435  0.51089  0.21889     C
C       0.2977  0.04091  0.89172     C
C       0.2977  0.95909  0.10828     C
H       0.2997   0.0781   0.9155     H
H       0.2997   0.9219   0.0845     H
O      0.30022   0.1517  0.83058     O
O      0.30022   0.8483  0.16942     O
C      0.30089  0.39346  0.22341     C
C      0.30089  0.60654  0.77659     C
Al     0.30148  0.23928  0.81923    Al
Al     0.30148  0.76072  0.18077    Al
C       0.3048  0.07052  0.11461     C
C       0.3048  0.92948  0.88539     C
C        0.307  0.01682  0.07971     C
C        0.307  0.98318  0.92029     C
N       0.3088    0.024  0.01414     N
N       0.3088    0.976  0.98586     N
H       0.3113   0.1096    0.095     H
H       0.3113   0.8904    0.905     H
O      0.31413  0.32677   0.8188     O
O      0.31413  0.67323   0.1812     O
O       0.3188  0.17323  0.18587     O
O       0.3188  0.82677  0.81413     O
Al     0.31923  0.26072  0.19852    Al
Al     0.31923  0.73928  0.80148    Al
C      0.32299  0.43163  0.79347     C
C      0.32299  0.56837  0.20653     C
O      0.32677   0.1812  0.68587     O
O      0.32677   0.8188  0.31413     O
C      0.33007   0.4567  0.21435     C
C      0.33007   0.5433  0.78565     C
O      0.33058   0.3483  0.19978     O
O      0.33058   0.6517  0.80022     O
O       0.3483  0.19978  0.33058     O
O       0.3483  0.80022  0.66942     O
O      0.37039   0.2332  0.76396     O
O      0.37039   0.7668  0.23604     O
C      0.37187  0.20719  0.71191     C
C      0.37187  0.79281  0.28809     C
C      0.38539  0.42948   0.8048     C
C      0.38539  0.57052   0.1952     C
O      0.38945  0.25297  0.25128     O
O      0.38945  0.74703  0.74872     O
H       0.3904   0.1887    0.595     H
H       0.3904   0.8113    0.405     H
C      0.39172  0.45909   0.2023     C
C      0.39172  0.54091   0.7977     C
C      0.39346  0.22341  0.30089     C
C      0.39346  0.77659  0.69911     C
H        0.405   0.3904   0.8113     H
H        0.405   0.6096   0.1887     H
H       0.4155   0.4219   0.2003     H
H       0.4155   0.5781   0.7997     H
C      0.42029  0.48318    0.807     C
C      0.42029  0.51682    0.193     C
H       0.4219   0.2003   0.4155     H
H       0.4219   0.7997   0.5845     H
C      0.42948   0.1952  0.61461     C
C      0.42948   0.8048  0.38539     C
C      0.43163  0.20653  0.67701     C
C      0.43163  0.79347  0.32299     C
C       0.4567  0.21435  0.33007     C
C       0.4567  0.78565  0.66993     C
C      0.45909   0.2023  0.39172     C
C      0.45909   0.7977  0.60828     C
N        0.476   0.1912  0.51414     N
N        0.476   0.8088  0.48586     N
C      0.48318    0.193  0.57971     C
C      0.48318    0.807  0.42029     C
N      0.48586    0.476   0.8088     N
N      0.48586    0.524   0.1912     N
C      0.48911  0.21889  0.70565     C
C      0.48911  0.78111  0.29435     C
H       0.4911   0.2301   0.7484     H
H       0.4911   0.7699   0.2516     H
H       0.5089   0.2301   0.2516     H
H       0.5089   0.7699   0.7484     H
C      0.51089  0.21889  0.29435     C
C      0.51089  0.78111  0.70565     C
N      0.51414    0.476   0.1912     N
N      0.51414    0.524   0.8088     N
C      0.51682    0.193  0.42029     C
C      0.51682    0.807  0.57971     C
N        0.524   0.1912  0.48586     N
N        0.524   0.8088  0.51414     N
C      0.54091   0.2023  0.60828     C
C      0.54091   0.7977  0.39172     C
C       0.5433  0.21435  0.66993     C
C       0.5433  0.78565  0.33007     C
C      0.56837  0.20653  0.32299     C
C      0.56837  0.79347  0.67701     C
C      0.57052   0.1952  0.38539     C
C      0.57052   0.8048  0.61461     C
H       0.5781   0.2003   0.5845     H
H       0.5781   0.7997   0.4155     H
C      0.57971  0.48318    0.193     C
C      0.57971  0.51682    0.807     C
H       0.5845   0.4219   0.7997     H
H       0.5845   0.5781   0.2003     H
H        0.595   0.3904   0.1887     H
H        0.595   0.6096   0.8113     H
C      0.60654  0.22341  0.69911     C
C      0.60654  0.77659  0.30089     C
C      0.60828  0.45909   0.7977     C
C      0.60828  0.54091   0.2023     C
H       0.6096   0.1887    0.405     H
H       0.6096   0.8113    0.595     H
O      0.61055  0.25297  0.74872     O
O      0.61055  0.74703  0.25128     O
C      0.61461  0.42948   0.1952     C
C      0.61461  0.57052   0.8048     C
C      0.62813  0.20719  0.28809     C
C      0.62813  0.79281  0.71191     C
O      0.62961   0.2332  0.23604     O
O      0.62961   0.7668  0.76396     O
O       0.6517  0.19978  0.66942     O
O       0.6517  0.80022  0.33058     O
O      0.66942   0.3483  0.80022     O
O      0.66942   0.6517  0.19978     O
C      0.66993   0.4567  0.78565     C
C      0.66993   0.5433  0.21435     C
O      0.67323   0.1812  0.31413     O
O      0.67323   0.8188  0.68587     O
C      0.67701  0.43163  0.20653     C
C      0.67701  0.56837  0.79347     C
Al     0.68077  0.26072  0.80148    Al
Al     0.68077  0.73928  0.19852    Al
O       0.6812  0.17323  0.81413     O
O       0.6812  0.82677  0.18587     O
O      0.68587  0.32677   0.1812     O
O      0.68587  0.67323   0.8188     O
H       0.6887   0.1096    0.905     H
H       0.6887   0.8904    0.095     H
N       0.6912    0.024  0.98586     N
N       0.6912    0.976  0.01414     N
C        0.693  0.01682  0.92029     C
C        0.693  0.98318  0.07971     C
C       0.6952  0.07052  0.88539     C
C       0.6952  0.92948  0.11461     C
Al     0.69852  0.23928  0.18077    Al
Al     0.69852  0.76072  0.81923    Al
C      0.69911  0.39346  0.77659     C
C      0.69911  0.60654  0.22341     C
O      0.69978   0.1517  0.16942     O
O      0.69978   0.8483  0.83058     O
H       0.7003   0.0781   0.0845     H
H       0.7003   0.9219   0.9155     H
C       0.7023  0.04091  0.10828     C
C       0.7023  0.95909  0.89172     C
C      0.70565  0.48911  0.21889     C
C      0.70565  0.51089  0.78111     C
C      0.70653  0.06837  0.82299     C
C      0.70653  0.93163  0.17701     C
C      0.70719  0.12813  0.78809     C
C      0.70719  0.87187  0.21191     C
C      0.71191  0.37187  0.20719     C
C      0.71191  0.62813  0.79281     C
C      0.71435   0.0433  0.16993     C
C      0.71435   0.9567  0.83007     C
C      0.71889  0.01089  0.79435     C
C      0.71889  0.98911  0.20565     C
C      0.72341  0.10654  0.19911     C
C      0.72341  0.89346  0.80089     C
H       0.7301   0.0089   0.7516     H
H       0.7301   0.9911   0.2484     H
O       0.7332  0.12961  0.73604     O
O       0.7332  0.87039  0.26396     O
O      0.73604   0.2668  0.87039     O
O      0.73604   0.7332  0.12961     O
Al     0.73928  0.19852  0.68077    Al
Al     0.73928  0.80148  0.31923    Al
O      0.74062  0.25938  0.74062     O
O      0.74062  0.74062  0.25938     O
O      0.74703  0.25128  0.61055     O
O      0.74703  0.74872  0.38945     O
H       0.7484   0.4911   0.2301     H
H       0.7484   0.5089   0.7699     H
O      0.74872  0.38945  0.74703     O
O      0.74872  0.61055  0.25297     O
O      0.75128  0.24703  0.11055     O
O      0.75128  0.75297  0.88945     O
H       0.7516   0.2699   0.9911     H
H       0.7516   0.7301   0.0089     H
O      0.75297  0.11055  0.24872     O
O      0.75297  0.88945  0.75128     O
O      0.75938  0.24062  0.24062     O
O      0.75938  0.75938  0.75938     O
Al     0.76072  0.18077  0.30148    Al
Al     0.76072  0.81923  0.69852    Al
O      0.76396  0.37039   0.2332     O
O      0.76396  0.62961   0.7668     O
O       0.7668  0.23604  0.37039     O
O       0.7668  0.76396  0.62961     O
H       0.7699   0.2516   0.4911     H
H       0.7699   0.7484   0.5089     H
C      0.77659  0.30089  0.60654     C
C      0.77659  0.69911  0.39346     C
C      0.78111  0.29435  0.48911     C
C      0.78111  0.70565  0.51089     C
C      0.78565  0.33007   0.5433     C
C      0.78565  0.66993   0.4567     C
C      0.78809  0.29281  0.87187     C
C      0.78809  0.70719  0.12813     C
C      0.79281  0.28809  0.37187     C
C      0.79281  0.71191  0.62813     C
C      0.79347  0.32299  0.43163     C
C      0.79347  0.67701  0.56837     C
C      0.79435  0.28111  0.98911     C
C      0.79435  0.71889  0.01089     C
C       0.7977  0.39172  0.54091     C
C       0.7977  0.60828  0.45909     C
H       0.7997   0.4155   0.5781     H
H       0.7997   0.5845   0.4219     H
O      0.80022  0.33058   0.6517     O
O      0.80022  0.66942   0.3483     O
C      0.80089  0.27659  0.10654     C
C      0.80089  0.72341  0.89346     C
Al     0.80148  0.31923  0.73928    Al
Al     0.80148  0.68077  0.26072    Al
C       0.8048  0.38539  0.42948     C
C       0.8048  0.61461  0.57052     C
C        0.807  0.42029  0.48318     C
C        0.807  0.57971  0.51682     C
N       0.8088  0.48586    0.476     N
N       0.8088  0.51414    0.524     N
H       0.8113    0.405   0.3904     H
H       0.8113    0.595   0.6096     H
O      0.81413   0.3188  0.82677     O
O      0.81413   0.6812  0.17323     O
O       0.8188  0.31413  0.32677     O
O       0.8188  0.68587  0.67323     O
Al     0.81923  0.30148  0.23928    Al
Al     0.81923  0.69852  0.76072    Al
C      0.82299  0.29347  0.93163     C
C      0.82299  0.70653  0.06837     C
O      0.82677  0.18587   0.6812     O
O      0.82677  0.81413   0.3188     O
C      0.83007  0.28565   0.0433     C
C      0.83007  0.71435   0.9567     C
O      0.83058  0.30022   0.1517     O
O      0.83058  0.69978   0.8483     O
O       0.8483  0.16942  0.30022     O
O       0.8483  0.83058  0.69978     O
O      0.87039  0.26396   0.7332     O
O      0.87039  0.73604   0.2668     O
C      0.87187  0.21191  0.70719     C
C      0.87187  0.78809  0.29281     C
C      0.88539   0.3048  0.92948     C
C      0.88539   0.6952  0.07052     C
O      0.88945  0.24872  0.24703     O
O      0.88945  0.75128  0.75297     O
H       0.8904    0.095   0.6887     H
H       0.8904    0.905   0.3113     H
C      0.89172   0.2977  0.04091     C
C      0.89172   0.7023  0.95909     C
C      0.89346  0.19911  0.27659     C
C      0.89346  0.80089  0.72341     C
H        0.905   0.3113   0.8904     H
H        0.905   0.6887   0.1096     H
H       0.9155   0.2997   0.0781     H
H       0.9155   0.7003   0.9219     H
C      0.92029    0.307  0.98318     C
C      0.92029    0.693  0.01682     C
H       0.9219   0.0845   0.2997     H
H       0.9219   0.9155   0.7003     H
C      0.92948  0.11461   0.6952     C
C      0.92948  0.88539   0.3048     C
C      0.93163  0.17701  0.70653     C
C      0.93163  0.82299  0.29347     C
C       0.9567  0.16993  0.28565     C
C       0.9567  0.83007  0.71435     C
C      0.95909  0.10828   0.2977     C
C      0.95909  0.89172   0.7023     C
N        0.976  0.01414   0.6912     N
N        0.976  0.98586   0.3088     N
C      0.98318  0.07971    0.693     C
C      0.98318  0.92029    0.307     C
N      0.98586   0.3088    0.976     N
N      0.98586   0.6912    0.024     N
C      0.98911  0.20565  0.71889     C
C      0.98911  0.79435  0.28111     C
H       0.9911   0.2484   0.7301     H
H       0.9911   0.7516   0.2699     H
