data_I
_chemical_name_common  '/home/zhangsd/repos/MofS-CGCNN/ML/data/SSD/clean_cifs/JEMNAR_clean'
_cell_length_a  9.35490
_cell_length_b 13.10400
_cell_length_c 10.88300
_cell_angle_alpha 113.08000
_cell_angle_beta  90.00000
_cell_angle_gamma 90.00000
_space_group_name_H-M_alt      'P 1'


loop_
_space_group_symop_operation_xyz
  'x, y, z' 

loop_
_atom_site_label
_atom_site_fract_x
_atom_site_fract_y
_atom_site_fract_z
_atom_site_type_symbol
H       0.0082    0.096   0.2234     H
C       0.0316   0.0573   0.0247     C
C       0.0364   0.5793   0.4055     C
C       0.0413   0.1226   0.1609     C
O       0.0576   0.4841   0.3144     O
H       0.0735   0.0636    0.848     H
C        0.079   0.1038   0.9397     C
O       0.0844   0.3745   0.5712     O
C       0.1004   0.2267   0.2018     C
H       0.1063   0.2689   0.2931     H
H       0.1203    0.647    0.997     H
C       0.1353     0.21   0.9886     C
O       0.1455   0.4862   0.0674     O
H       0.1462   0.6383   0.5814     H
N       0.1494   0.2709   0.1194     N
H       0.1559   0.7173    0.505     H
C       0.1594   0.6402    0.494     C
H       0.1643   0.2402   0.9282     H
C        0.168    0.482   0.9522     C
O        0.169   0.3962   0.8462     O
O       0.1809   0.5854   0.8067     O
C       0.1925   0.5944   0.9427     C
Ni     0.23839  0.42563  0.19334    Ni
Ni     0.26161  0.42563  0.69334    Ni
C       0.3075   0.5944   0.4427     C
O       0.3191   0.5854   0.3067     O
O        0.331   0.3962   0.3462     O
C        0.332    0.482   0.4522     C
H       0.3357   0.2402   0.4282     H
C       0.3406   0.6402    0.994     C
H       0.3441   0.7173    0.005     H
N       0.3506   0.2709   0.6194     N
H       0.3538   0.6383   0.0814     H
O       0.3545   0.4862   0.5674     O
C       0.3647     0.21   0.4886     C
H       0.3797    0.647    0.497     H
H       0.3937   0.2689   0.7931     H
C       0.3996   0.2267   0.7018     C
O       0.4156   0.3745   0.0712     O
C        0.421   0.1038   0.4397     C
H       0.4265   0.0636    0.348     H
O       0.4424   0.4841   0.8144     O
C       0.4587   0.1226   0.6609     C
C       0.4636   0.5793   0.9055     C
C       0.4684   0.0573   0.5247     C
H       0.4918    0.096   0.7234     H
H       0.5082    0.904   0.2766     H
C       0.5316   0.9427   0.4753     C
C       0.5364   0.4207   0.0945     C
C       0.5413   0.8774   0.3391     C
O       0.5576   0.5159   0.1856     O
H       0.5735   0.9364    0.652     H
C        0.579   0.8962   0.5603     C
O       0.5844   0.6255   0.9288     O
C       0.6004   0.7733   0.2982     C
H       0.6063   0.7311   0.2069     H
H       0.6203    0.353    0.503     H
C       0.6353     0.79   0.5114     C
O       0.6455   0.5138   0.4326     O
H       0.6462   0.3617   0.9186     H
N       0.6494   0.7291   0.3806     N
H       0.6559   0.2827    0.995     H
C       0.6594   0.3598    0.006     C
H       0.6643   0.7598   0.5718     H
C        0.668    0.518   0.5478     C
O        0.669   0.6038   0.6538     O
O       0.6809   0.4146   0.6933     O
C       0.6925   0.4056   0.5573     C
Ni     0.73839  0.57437  0.30666    Ni
Ni     0.76161  0.57437  0.80666    Ni
C       0.8075   0.4056   0.0573     C
O       0.8191   0.4146   0.1933     O
O        0.831   0.6038   0.1538     O
C        0.832    0.518   0.0478     C
H       0.8357   0.7598   0.0718     H
C       0.8406   0.3598    0.506     C
H       0.8441   0.2827    0.495     H
N       0.8506   0.7291   0.8806     N
H       0.8538   0.3617   0.4186     H
O       0.8545   0.5138   0.9326     O
C       0.8647     0.79   0.0114     C
H       0.8797    0.353    0.003     H
H       0.8937   0.7311   0.7069     H
C       0.8996   0.7733   0.7982     C
O       0.9156   0.6255   0.4288     O
C        0.921   0.8962   0.0603     C
H       0.9265   0.9364    0.152     H
O       0.9424   0.5159   0.6856     O
C       0.9587   0.8774   0.8391     C
C       0.9636   0.4207   0.5945     C
C       0.9684   0.9427   0.9753     C
H       0.9918    0.904   0.7766     H
