data_I
_chemical_name_common  '/home/zhangsd/repos/MofS-CGCNN/ML/data/SSD/clean_cifs/JITPOS_SL'
_cell_length_a 23.14510
_cell_length_b 27.39760
_cell_length_c 10.54820
_cell_angle_alpha 90.00000
_cell_angle_beta  90.00000
_cell_angle_gamma 90.00000
_space_group_name_H-M_alt      'P 1'


loop_
_space_group_symop_operation_xyz
  'x, y, z' 

loop_
_atom_site_label
_atom_site_fract_x
_atom_site_fract_y
_atom_site_fract_z
_atom_site_type_symbol
C      -0.9948   0.0235   -0.766     C
C      -0.9948   0.4765   -0.766     C
H       -0.982    0.051  -0.7207     H
H       -0.982    0.449  -0.7207     H
C      -0.9741    0.551  -0.8721     C
C      -0.9741    0.949  -0.8721     C
C      -0.9681   0.0563  -0.0982     C
C      -0.9681   0.4437  -0.0982     C
H      -0.9562   0.0831  -0.0493     H
H      -0.9562   0.4169  -0.0493     H
C      -0.9554   0.5116   -0.801     C
C      -0.9554   0.9884   -0.801     C
H      -0.9473   0.5743  -0.9005     H
H      -0.9473   0.9257  -0.9005     H
C      -0.9471   0.5193  -0.2038     C
C      -0.9471   0.9807  -0.2038     C
O      -0.9356   0.6115  -0.2451     O
O      -0.9356   0.8885  -0.2451     O
C      -0.9273   0.0227  -0.1394     C
C      -0.9273   0.4773  -0.1394     C
S      -0.9001  0.56768  -0.2472     S
S      -0.9001  0.93232  -0.2472     S
H      -0.8949   0.2115  -0.5791     H
H      -0.8949   0.2885  -0.5791     H
C      -0.8927   0.5075   -0.759     C
C      -0.8927   0.9925   -0.759     C
H      -0.8913   0.1279  -0.5842     H
H      -0.8913   0.3721  -0.5842     H
O      -0.8795   0.5572  -0.3749     O
O      -0.8795   0.9428  -0.3749     O
O      -0.8791  0.02983  -0.6961     O
O      -0.8791  0.47017  -0.6961     O
C      -0.8647   0.0334  -0.1119     C
C      -0.8647   0.4666  -0.1119     C
O      -0.8602  0.54253  -0.7903     O
O      -0.8602  0.95747  -0.7903     O
C      -0.8589   0.1957  -0.5853     C
C      -0.8589   0.3043  -0.5853     C
H      -0.8587   0.2122  -0.9082     H
H      -0.8587   0.2878  -0.9082     H
C      -0.8564   0.1453   -0.588     C
C      -0.8564   0.3547   -0.588     C
H      -0.8554   0.1278   -0.912     H
H      -0.8554   0.3722   -0.912     H
O      -0.8543   0.5684  -0.1544     O
O      -0.8543   0.9316  -0.1544     O
O      -0.8514  0.03727  -0.9969     O
O      -0.8514  0.46273  -0.9969     O
H      -0.8487   0.7123  -0.7998     H
H      -0.8487   0.7877  -0.7998     H
H      -0.8471    0.629  -0.7917     H
H      -0.8471    0.871  -0.7917     H
H     -0.83501  0.53793   -0.568     H
H     -0.83501  0.96207   -0.568     H
O      -0.8312  0.04066  -0.2026     O
O      -0.8312  0.45934  -0.2026     O
C      -0.8229   0.1963  -0.9158     C
C      -0.8229   0.3037  -0.9158     C
H      -0.8221   0.2126  -0.2473     H
H      -0.8221   0.2874  -0.2473     H
C      -0.8205   0.1452  -0.9182     C
C      -0.8205   0.3548  -0.9182     C
H      -0.8197    0.129  -0.2459     H
H      -0.8197    0.371  -0.2459     H
H       -0.814   0.7133  -0.4425     H
H       -0.814   0.7867  -0.4425     H
C      -0.8135   0.6962  -0.7859     C
C      -0.8135   0.8038  -0.7859     C
H      -0.8124   0.6299  -0.4392     H
H      -0.8124   0.8701  -0.4392     H
C      -0.8122    0.646  -0.7811     C
C      -0.8122    0.854  -0.7811     C
C      -0.8079   0.2237  -0.5917     C
C      -0.8079   0.2763  -0.5917     C
N      -0.8068   0.1196  -0.5957     N
N      -0.8068   0.3804  -0.5957     N
Zn    -0.80428  0.04145 -0.58679    Zn
Zn    -0.80428  0.45855 -0.58679    Zn
H       -0.796    0.549   -0.995     H
H       -0.796    0.951   -0.995     H
O      -0.7918  0.53793   -0.568     O
O      -0.7918  0.96207   -0.568     O
H     -0.78651  0.53091  -0.2537     H
H     -0.78651  0.96909  -0.2537     H
C      -0.7865   0.1964  -0.2559     C
C      -0.7865   0.3036  -0.2559     C
C      -0.7847   0.1462  -0.2538     C
C      -0.7847   0.3538  -0.2538     C
H      -0.7792   0.7127  -0.1056     H
H      -0.7792   0.7873  -0.1056     H
C      -0.7785   0.6969  -0.4351     C
C      -0.7785   0.8031  -0.4351     C
H      -0.7772   0.6296  -0.1071     H
H      -0.7772   0.8704  -0.1071     H
C      -0.7771   0.6467  -0.4348     C
C      -0.7771   0.8533  -0.4348     C
C      -0.7727   0.2234  -0.9246     C
C      -0.7727   0.2766  -0.9246     C
N      -0.7719   0.1201  -0.9285     N
N      -0.7719   0.3799  -0.9285     N
Zn    -0.77087  0.54411 -0.75709    Zn
Zn    -0.77087  0.95589 -0.75709    Zn
Zn    -0.76938  0.04152 -0.93758    Zn
Zn    -0.76938  0.45848 -0.93758    Zn
N      -0.7646   0.6206  -0.7625     N
N      -0.7646   0.8794  -0.7625     N
C      -0.7634   0.7232  -0.7705     C
C      -0.7634   0.7768  -0.7705     C
O      -0.7612   0.5384  -0.9521     O
O      -0.7612   0.9616  -0.9521     O
C      -0.7581   0.1464  -0.6017     C
C      -0.7581   0.3536  -0.6017     C
O      -0.7567  0.03091  -0.7537     O
O      -0.7567  0.46909  -0.7537     O
C      -0.7565   0.1965  -0.6005     C
C      -0.7565   0.3035  -0.6005     C
C      -0.7435   0.6965  -0.1005     C
C      -0.7435   0.8035  -0.1005     C
O      -0.7433  0.53091  -0.2537     O
O      -0.7433  0.96909  -0.2537     O
C      -0.7419   0.6464  -0.1017     C
C      -0.7419   0.8536  -0.1017     C
O      -0.7388   0.0384  -0.4521     O
O      -0.7388   0.4616  -0.4521     O
C      -0.7366   0.2232  -0.2705     C
C      -0.7366   0.2768  -0.2705     C
N      -0.7354   0.1206  -0.2625     N
N      -0.7354   0.3794  -0.2625     N
Zn    -0.73062  0.54152 -0.43758    Zn
Zn    -0.73062  0.95848 -0.43758    Zn
Zn    -0.72913  0.04411 -0.25709    Zn
Zn    -0.72913  0.45589 -0.25709    Zn
N      -0.7281   0.6201  -0.4285     N
N      -0.7281   0.8799  -0.4285     N
C      -0.7273   0.7234  -0.4246     C
C      -0.7273   0.7766  -0.4246     C
C      -0.7229   0.1467  -0.9348     C
C      -0.7229   0.3533  -0.9348     C
H      -0.7228   0.1296  -0.6071     H
H      -0.7228   0.3704  -0.6071     H
C      -0.7215   0.1969  -0.9351     C
C      -0.7215   0.3031  -0.9351     C
H      -0.7208   0.2127  -0.6056     H
H      -0.7208   0.2873  -0.6056     H
C      -0.7153   0.6462  -0.7538     C
C      -0.7153   0.8538  -0.7538     C
C      -0.7135   0.6964  -0.7559     C
C      -0.7135   0.8036  -0.7559     C
H     -0.71349  0.03091  -0.7537     H
H     -0.71349  0.46909  -0.7537     H
O      -0.7082  0.03793   -0.068     O
O      -0.7082  0.46207   -0.068     O
H       -0.704    0.049   -0.495     H
H       -0.704    0.451   -0.495     H
Zn    -0.69572  0.54145 -0.08679    Zn
Zn    -0.69572  0.95855 -0.08679    Zn
N      -0.6932   0.6196  -0.0957     N
N      -0.6932   0.8804  -0.0957     N
C      -0.6921   0.7237  -0.0917     C
C      -0.6921   0.7763  -0.0917     C
C      -0.6878    0.146  -0.2811     C
C      -0.6878    0.354  -0.2811     C
H      -0.6876   0.1299  -0.9392     H
H      -0.6876   0.3701  -0.9392     H
C      -0.6865   0.1962  -0.2859     C
C      -0.6865   0.3038  -0.2859     C
H       -0.686   0.2133  -0.9425     H
H       -0.686   0.2867  -0.9425     H
H      -0.6803    0.629  -0.7459     H
H      -0.6803    0.871  -0.7459     H
C      -0.6795   0.6452  -0.4182     C
C      -0.6795   0.8548  -0.4182     C
H      -0.6779   0.7126  -0.7473     H
H      -0.6779   0.7874  -0.7473     H
C      -0.6771   0.6963  -0.4158     C
C      -0.6771   0.8037  -0.4158     C
O      -0.6688  0.54066  -0.7026     O
O      -0.6688  0.95934  -0.7026     O
H     -0.66499  0.03793   -0.068     H
H     -0.66499  0.46207   -0.068     H
H      -0.6529    0.129  -0.2917     H
H      -0.6529    0.371  -0.2917     H
H      -0.6513   0.2123  -0.2998     H
H      -0.6513   0.2877  -0.2998     H
O      -0.6486  0.53727  -0.4969     O
O      -0.6486  0.96273  -0.4969     O
O      -0.6457   0.0684  -0.6544     O
O      -0.6457   0.4316  -0.6544     O
H      -0.6446   0.6278   -0.412     H
H      -0.6446   0.8722   -0.412     H
C      -0.6436   0.6453   -0.088     C
C      -0.6436   0.8547   -0.088     C
H      -0.6413   0.7122  -0.4082     H
H      -0.6413   0.7878  -0.4082     H
C      -0.6411   0.6957  -0.0853     C
C      -0.6411   0.8043  -0.0853     C
O      -0.6398  0.04253  -0.2903     O
O      -0.6398  0.45747  -0.2903     O
C      -0.6353   0.5334  -0.6119     C
C      -0.6353   0.9666  -0.6119     C
O      -0.6209  0.52983  -0.1961     O
O      -0.6209  0.97017  -0.1961     O
O      -0.6205   0.0572  -0.8749     O
O      -0.6205   0.4428  -0.8749     O
H      -0.6087   0.6279  -0.0842     H
H      -0.6087   0.8721  -0.0842     H
C      -0.6073   0.0075   -0.259     C
C      -0.6073   0.4925   -0.259     C
H      -0.6051   0.7115  -0.0791     H
H      -0.6051   0.7885  -0.0791     H
S      -0.5999  0.06768  -0.7472     S
S      -0.5999  0.43232  -0.7472     S
C      -0.5727   0.5227  -0.6394     C
C      -0.5727   0.9773  -0.6394     C
O      -0.5644   0.1115  -0.7451     O
O      -0.5644   0.3885  -0.7451     O
C      -0.5529   0.0193  -0.7038     C
C      -0.5529   0.4807  -0.7038     C
H      -0.5527   0.0743  -0.4005     H
H      -0.5527   0.4257  -0.4005     H
C      -0.5446   0.0116   -0.301     C
C      -0.5446   0.4884   -0.301     C
H      -0.5438   0.5831  -0.5493     H
H      -0.5438   0.9169  -0.5493     H
C      -0.5319   0.5563  -0.5982     C
C      -0.5319   0.9437  -0.5982     C
C      -0.5259    0.051  -0.3721     C
C      -0.5259    0.449  -0.3721     C
H       -0.518    0.551  -0.2207     H
H       -0.518    0.949  -0.2207     H
C      -0.5052   0.5235   -0.266     C
C      -0.5052   0.9765   -0.266     C
C      -0.4948   0.0235   -0.734     C
C      -0.4948   0.4765   -0.734     C
H       -0.482    0.051  -0.7793     H
H       -0.482    0.449  -0.7793     H
C      -0.4741    0.551  -0.6279     C
C      -0.4741    0.949  -0.6279     C
C      -0.4681   0.0563  -0.4018     C
C      -0.4681   0.4437  -0.4018     C
H      -0.4562   0.0831  -0.4507     H
H      -0.4562   0.4169  -0.4507     H
C      -0.4554   0.5116   -0.699     C
C      -0.4554   0.9884   -0.699     C
H      -0.4473   0.5743  -0.5995     H
H      -0.4473   0.9257  -0.5995     H
C      -0.4471   0.5193  -0.2962     C
C      -0.4471   0.9807  -0.2962     C
O      -0.4356   0.6115  -0.2549     O
O      -0.4356   0.8885  -0.2549     O
C      -0.4273   0.0227  -0.3606     C
C      -0.4273   0.4773  -0.3606     C
S      -0.4001  0.56768  -0.2528     S
S      -0.4001  0.93232  -0.2528     S
H      -0.3949   0.2115  -0.9209     H
H      -0.3949   0.2885  -0.9209     H
C      -0.3927   0.5075   -0.741     C
C      -0.3927   0.9925   -0.741     C
H      -0.3913   0.1279  -0.9158     H
H      -0.3913   0.3721  -0.9158     H
O      -0.3795   0.5572  -0.1251     O
O      -0.3795   0.9428  -0.1251     O
O      -0.3791  0.02983  -0.8039     O
O      -0.3791  0.47017  -0.8039     O
C      -0.3647   0.0334  -0.3881     C
C      -0.3647   0.4666  -0.3881     C
O      -0.3602  0.54253  -0.7097     O
O      -0.3602  0.95747  -0.7097     O
C      -0.3589   0.1957  -0.9147     C
C      -0.3589   0.3043  -0.9147     C
H      -0.3587   0.2122  -0.5918     H
H      -0.3587   0.2878  -0.5918     H
C      -0.3564   0.1453   -0.912     C
C      -0.3564   0.3547   -0.912     C
H      -0.3554   0.1278   -0.588     H
H      -0.3554   0.3722   -0.588     H
O      -0.3543   0.5684  -0.3456     O
O      -0.3543   0.9316  -0.3456     O
O      -0.3514  0.03727  -0.5031     O
O      -0.3514  0.46273  -0.5031     O
H      -0.3487   0.7123  -0.7002     H
H      -0.3487   0.7877  -0.7002     H
H      -0.3471    0.629  -0.7083     H
H      -0.3471    0.871  -0.7083     H
H     -0.33501  0.53793   -0.932     H
H     -0.33501  0.96207   -0.932     H
O      -0.3312  0.04066  -0.2974     O
O      -0.3312  0.45934  -0.2974     O
C      -0.3229   0.1963  -0.5842     C
C      -0.3229   0.3037  -0.5842     C
H      -0.3221   0.2126  -0.2527     H
H      -0.3221   0.2874  -0.2527     H
C      -0.3205   0.1452  -0.5818     C
C      -0.3205   0.3548  -0.5818     C
H      -0.3197    0.129  -0.2541     H
H      -0.3197    0.371  -0.2541     H
H       -0.314   0.7133  -0.0575     H
H       -0.314   0.7867  -0.0575     H
C      -0.3135   0.6962  -0.7141     C
C      -0.3135   0.8038  -0.7141     C
H      -0.3124   0.6299  -0.0608     H
H      -0.3124   0.8701  -0.0608     H
C      -0.3122    0.646  -0.7189     C
C      -0.3122    0.854  -0.7189     C
C      -0.3079   0.2237  -0.9083     C
C      -0.3079   0.2763  -0.9083     C
N      -0.3068   0.1196  -0.9043     N
N      -0.3068   0.3804  -0.9043     N
Zn    -0.30428  0.04145 -0.91321    Zn
Zn    -0.30428  0.45855 -0.91321    Zn
H       -0.296    0.549   -0.505     H
H       -0.296    0.951   -0.505     H
O      -0.2918  0.53793   -0.932     O
O      -0.2918  0.96207   -0.932     O
H     -0.28651  0.53091  -0.2463     H
H     -0.28651  0.96909  -0.2463     H
C      -0.2865   0.1964  -0.2441     C
C      -0.2865   0.3036  -0.2441     C
C      -0.2847   0.1462  -0.2462     C
C      -0.2847   0.3538  -0.2462     C
H      -0.2792   0.7127  -0.3944     H
H      -0.2792   0.7873  -0.3944     H
C      -0.2785   0.6969  -0.0649     C
C      -0.2785   0.8031  -0.0649     C
H      -0.2772   0.6296  -0.3929     H
H      -0.2772   0.8704  -0.3929     H
C      -0.2771   0.6467  -0.0652     C
C      -0.2771   0.8533  -0.0652     C
C      -0.2727   0.2234  -0.5754     C
C      -0.2727   0.2766  -0.5754     C
N      -0.2719   0.1201  -0.5715     N
N      -0.2719   0.3799  -0.5715     N
Zn    -0.27087  0.54411 -0.74291    Zn
Zn    -0.27087  0.95589 -0.74291    Zn
Zn    -0.26938  0.04152 -0.56242    Zn
Zn    -0.26938  0.45848 -0.56242    Zn
N      -0.2646   0.6206  -0.7375     N
N      -0.2646   0.8794  -0.7375     N
C      -0.2634   0.7232  -0.7295     C
C      -0.2634   0.7768  -0.7295     C
O      -0.2612   0.5384  -0.5479     O
O      -0.2612   0.9616  -0.5479     O
C      -0.2581   0.1464  -0.8983     C
C      -0.2581   0.3536  -0.8983     C
O      -0.2567  0.03091  -0.7463     O
O      -0.2567  0.46909  -0.7463     O
C      -0.2565   0.1965  -0.8995     C
C      -0.2565   0.3035  -0.8995     C
C      -0.2435   0.6965  -0.3995     C
C      -0.2435   0.8035  -0.3995     C
O      -0.2433  0.53091  -0.2463     O
O      -0.2433  0.96909  -0.2463     O
C      -0.2419   0.6464  -0.3983     C
C      -0.2419   0.8536  -0.3983     C
O      -0.2388   0.0384  -0.0479     O
O      -0.2388   0.4616  -0.0479     O
C      -0.2366   0.2232  -0.2295     C
C      -0.2366   0.2768  -0.2295     C
N      -0.2354   0.1206  -0.2375     N
N      -0.2354   0.3794  -0.2375     N
Zn    -0.23062  0.54152 -0.06242    Zn
Zn    -0.23062  0.95848 -0.06242    Zn
Zn    -0.22913  0.04411 -0.24291    Zn
Zn    -0.22913  0.45589 -0.24291    Zn
N      -0.2281   0.6201  -0.0715     N
N      -0.2281   0.8799  -0.0715     N
C      -0.2273   0.7234  -0.0754     C
C      -0.2273   0.7766  -0.0754     C
C      -0.2229   0.1467  -0.5652     C
C      -0.2229   0.3533  -0.5652     C
H      -0.2228   0.1296  -0.8929     H
H      -0.2228   0.3704  -0.8929     H
C      -0.2215   0.1969  -0.5649     C
C      -0.2215   0.3031  -0.5649     C
H      -0.2208   0.2127  -0.8944     H
H      -0.2208   0.2873  -0.8944     H
C      -0.2153   0.6462  -0.7462     C
C      -0.2153   0.8538  -0.7462     C
C      -0.2135   0.6964  -0.7441     C
C      -0.2135   0.8036  -0.7441     C
H     -0.21349  0.03091  -0.7463     H
H     -0.21349  0.46909  -0.7463     H
O      -0.2082  0.03793   -0.432     O
O      -0.2082  0.46207   -0.432     O
H       -0.204    0.049   -0.005     H
H       -0.204    0.451   -0.005     H
Zn    -0.19572  0.54145 -0.41321    Zn
Zn    -0.19572  0.95855 -0.41321    Zn
N      -0.1932   0.6196  -0.4043     N
N      -0.1932   0.8804  -0.4043     N
C      -0.1921   0.7237  -0.4083     C
C      -0.1921   0.7763  -0.4083     C
C      -0.1878    0.146  -0.2189     C
C      -0.1878    0.354  -0.2189     C
H      -0.1876   0.1299  -0.5608     H
H      -0.1876   0.3701  -0.5608     H
C      -0.1865   0.1962  -0.2141     C
C      -0.1865   0.3038  -0.2141     C
H       -0.186   0.2133  -0.5575     H
H       -0.186   0.2867  -0.5575     H
H      -0.1803    0.629  -0.7541     H
H      -0.1803    0.871  -0.7541     H
C      -0.1795   0.6452  -0.0818     C
C      -0.1795   0.8548  -0.0818     C
H      -0.1779   0.7126  -0.7527     H
H      -0.1779   0.7874  -0.7527     H
C      -0.1771   0.6963  -0.0842     C
C      -0.1771   0.8037  -0.0842     C
O      -0.1688  0.54066  -0.7974     O
O      -0.1688  0.95934  -0.7974     O
H     -0.16499  0.03793   -0.432     H
H     -0.16499  0.46207   -0.432     H
H      -0.1529    0.129  -0.2083     H
H      -0.1529    0.371  -0.2083     H
H      -0.1513   0.2123  -0.2002     H
H      -0.1513   0.2877  -0.2002     H
O      -0.1486  0.53727  -0.0031     O
O      -0.1486  0.96273  -0.0031     O
O      -0.1457   0.0684  -0.8456     O
O      -0.1457   0.4316  -0.8456     O
H      -0.1446   0.6278   -0.088     H
H      -0.1446   0.8722   -0.088     H
C      -0.1436   0.6453   -0.412     C
C      -0.1436   0.8547   -0.412     C
H      -0.1413   0.7122  -0.0918     H
H      -0.1413   0.7878  -0.0918     H
C      -0.1411   0.6957  -0.4147     C
C      -0.1411   0.8043  -0.4147     C
O      -0.1398  0.04253  -0.2097     O
O      -0.1398  0.45747  -0.2097     O
C      -0.1353   0.5334  -0.8881     C
C      -0.1353   0.9666  -0.8881     C
O      -0.1209  0.52983  -0.3039     O
O      -0.1209  0.97017  -0.3039     O
O      -0.1205   0.0572  -0.6251     O
O      -0.1205   0.4428  -0.6251     O
H      -0.1087   0.6279  -0.4158     H
H      -0.1087   0.8721  -0.4158     H
C      -0.1073   0.0075   -0.241     C
C      -0.1073   0.4925   -0.241     C
H      -0.1051   0.7115  -0.4209     H
H      -0.1051   0.7885  -0.4209     H
S      -0.0999  0.06768  -0.7528     S
S      -0.0999  0.43232  -0.7528     S
C      -0.0727   0.5227  -0.8606     C
C      -0.0727   0.9773  -0.8606     C
O      -0.0644   0.1115  -0.7549     O
O      -0.0644   0.3885  -0.7549     O
C      -0.0529   0.0193  -0.7962     C
C      -0.0529   0.4807  -0.7962     C
H      -0.0527   0.0743  -0.0995     H
H      -0.0527   0.4257  -0.0995     H
C      -0.0446   0.0116   -0.199     C
C      -0.0446   0.4884   -0.199     C
H      -0.0438   0.5831  -0.9507     H
H      -0.0438   0.9169  -0.9507     H
C      -0.0319   0.5563  -0.9018     C
C      -0.0319   0.9437  -0.9018     C
C      -0.0259    0.051  -0.1279     C
C      -0.0259    0.449  -0.1279     C
H       -0.018    0.551  -0.2793     H
H       -0.018    0.949  -0.2793     H
C      -0.0052   0.5235   -0.234     C
C      -0.0052   0.9765   -0.234     C
