data_I
_chemical_name_common  '/home/zhangsd/repos/MofS-CGCNN/ML/data/SSD/clean_cifs/JIVHIG_clean'
_cell_length_a 13.86830
_cell_length_b 16.22810
_cell_length_c 20.49100
_cell_angle_alpha 90.00000
_cell_angle_beta  104.71500
_cell_angle_gamma 90.00000
_space_group_name_H-M_alt      'P 1'


loop_
_space_group_symop_operation_xyz
  'x, y, z' 

loop_
_atom_site_label
_atom_site_fract_x
_atom_site_fract_y
_atom_site_fract_z
_atom_site_type_symbol
H        0.001   0.1339   0.2042     H
H        0.001   0.3661   0.7042     H
K      0.01002  0.10217  0.38517     K
K      0.01002  0.39783  0.88517     K
O       0.0135   0.5195   0.0011     O
O       0.0135   0.9805   0.5011     O
H       0.0223   0.1598    0.786     H
H       0.0223   0.3402    0.286     H
C       0.0241   0.6894  0.31169     C
C       0.0241   0.8106  0.81169     C
C       0.0276   0.6729   0.5291     C
C       0.0276   0.8271   0.0291     C
H       0.0309   0.6319   0.5647     H
H       0.0309   0.8681   0.0647     H
O      0.03221  0.73023   0.2001     O
O      0.03221  0.76977   0.7001     O
H       0.0372   0.0752   0.0775     H
H       0.0372   0.4248   0.5775     H
H       0.0383    0.728   0.5491     H
H       0.0383    0.772   0.0491     H
C       0.0485   0.2148  0.80276     C
C       0.0485   0.2852  0.30276     C
O      0.05819  0.24344   0.1917     O
O      0.05819  0.25656   0.6917     O
H       0.0636   0.6845   0.3591     H
H       0.0636   0.8155   0.8591     H
K      0.06504  0.12882  0.61015     K
K      0.06504  0.37118  0.11015     K
H        0.074   0.0267    0.725     H
H        0.074   0.4733    0.225     H
H       0.0746   0.2105   0.0573     H
H       0.0746   0.2895   0.5573     H
C       0.0749   0.1692   0.0211     C
C       0.0749   0.3308   0.5211     C
H       0.0794    0.661   0.5055     H
H       0.0794    0.839   0.0055     H
H       0.0875   0.0427   0.0202     H
H       0.0875   0.4573   0.5202     H
H       0.0878   0.2086   0.8501     H
H       0.0878   0.2914   0.3501     H
C       0.0893   0.7211  0.26896     C
C       0.0893   0.7789  0.76896     C
C         0.09   0.0853   0.0545     C
C         0.09   0.4147   0.5545     C
H       0.0963   0.5511   0.7357     H
H       0.0963   0.9489   0.2357     H
O       0.1075  0.53499  0.90228     O
O       0.1075  0.96501  0.40228     O
C       0.1139   0.2468  0.76065     C
C       0.1139   0.2532  0.26065     C
H       0.1179    0.725   0.7866     H
H       0.1179    0.775   0.2866     H
O       0.1203  0.16219  0.50187     O
O       0.1203  0.33781  0.00187     O
H       0.1318   0.0117   0.8415     H
H       0.1318   0.4883   0.3415     H
C       0.1358   0.5002   0.2432     C
C       0.1358   0.9998   0.7432     C
H       0.1424   0.1995   0.2787     H
H       0.1424   0.3005   0.7787     H
H       0.1449   0.6822    0.271     H
H       0.1449   0.8178    0.771     H
H       0.1483   0.6679   0.9711     H
H       0.1483   0.8321   0.4711     H
H       0.1522    0.022   0.2078     H
H       0.1522    0.478   0.7078     H
H        0.155   0.0836   0.0874     H
H        0.155   0.4164   0.5874     H
C       0.1552   0.1951  0.98745     C
C       0.1552   0.3049  0.48745     C
O      0.15957  0.51693  0.13378     O
O      0.15957  0.98307  0.63378     O
C       0.1615   0.5284   0.7351     C
C       0.1615   0.9716   0.2351     C
H       0.1697    0.208   0.7629     H
H       0.1697    0.292   0.2629     H
C       0.1697   0.5098   0.3127     C
C       0.1697   0.9902   0.8127     C
C       0.1706   0.2191  0.47841     C
C       0.1706   0.2809  0.97841     C
C       0.1727   0.5915  0.89764     C
C       0.1727   0.9085  0.39764     C
H       0.1766   0.0307   0.3241     H
H       0.1766   0.4693   0.8241     H
C       0.1871   0.6621   0.9392     C
C       0.1871   0.8379   0.4392     C
C       0.1911   0.5295   0.1996     C
C       0.1911   0.9705   0.6996     C
H       0.1985   0.5689   0.7155     H
H       0.1985   0.9311   0.2155     H
H       0.2015   0.0816    0.969     H
H       0.2015   0.4184    0.469     H
H       0.2102   0.6708   0.1233     H
H       0.2102   0.8292   0.6233     H
C       0.2111   0.1386   0.9622     C
C       0.2111   0.3614   0.4622     C
C        0.219   0.5086   0.8059     C
C        0.219   0.9914   0.3059     C
K      0.21901  0.01849  0.52823     K
K      0.21901  0.48151  0.02823     K
C       0.2321   0.5842   0.8512     C
C       0.2321   0.9158   0.3512     C
C       0.2406   0.1976  0.44219     C
C       0.2406   0.3024  0.94219     C
H       0.2511    0.141   0.4345     H
H       0.2511    0.359   0.9345     H
C       0.2548   0.7227   0.9357     C
C       0.2548   0.7773   0.4357     C
C       0.2586   0.5506   0.3402     C
C       0.2586   0.9494   0.8402     C
H        0.262   0.7306   0.4644     H
H        0.262   0.7694   0.9644     H
H       0.2779   0.7297   0.1792     H
H       0.2779   0.7703   0.6792     H
C       0.2788   0.6868   0.1457     C
C       0.2788   0.8132   0.6457     C
C       0.2802   0.5738   0.2278     C
C       0.2802   0.9262   0.7278     C
C       0.2805   0.1616   0.9273     C
C       0.2805   0.3384   0.4273     C
H       0.2826   0.5568   0.3877     H
H       0.2826   0.9432   0.8877     H
C       0.2944    0.244   0.9174     C
C       0.2944    0.256   0.4174     C
H       0.2971   0.0858   0.2793     H
H       0.2971   0.4142   0.7793     H
C       0.3003    0.646   0.8486     C
C       0.3003    0.854   0.3486     C
C       0.3114   0.7151   0.8905     C
C       0.3114   0.7849   0.3905     C
H       0.3117   0.7079   0.1122     H
H       0.3117   0.7921   0.6122     H
C       0.3118   0.5823   0.2971     C
C       0.3118   0.9177   0.7971     C
C       0.3125   0.0361   0.3071     C
C       0.3125   0.4639   0.8071     C
H       0.3177   0.1212   0.9106     H
H       0.3177   0.3788   0.4106     H
C       0.3358   0.6115    0.181     C
C       0.3358   0.8885    0.681     C
H       0.3366   0.5697   0.1453     H
H       0.3366   0.9303   0.6453     H
H       0.3404   0.6411   0.8175     H
H       0.3404   0.8589   0.3175     H
H       0.3413   0.2391   0.3934     H
H       0.3413   0.2609   0.8934     H
H       0.3456   0.0516   0.3536     H
H       0.3456   0.4484   0.8536     H
H       0.3567   0.0004   0.2892     H
H       0.3567   0.4996   0.7892     H
H       0.3583   0.7433   0.3875     H
H       0.3583   0.7567   0.8875     H
H       0.3722   0.6108   0.3159     H
H       0.3722   0.8892   0.8159     H
H        0.392    0.605   0.0071     H
H        0.392    0.895   0.5071     H
O       0.4054  0.01717  0.51107     O
O       0.4054  0.48283  0.01107     O
C       0.4434    0.635    0.213     C
C       0.4434    0.865    0.713     C
H       0.4454   0.6785   0.2465     H
H       0.4454   0.8215   0.7465     H
C       0.4466    0.564   0.0185     C
C       0.4466    0.936   0.5185     C
H       0.4564   0.1328   0.5196     H
H       0.4564   0.3672   0.0196     H
H       0.4744   0.6551   0.1781     H
H       0.4744   0.8449   0.6781     H
H       0.4776   0.5709   0.9261     H
H       0.4776   0.9291   0.4261     H
H       0.4799   0.5866   0.2352     H
H       0.4799   0.9134   0.7352     H
H       0.4836   0.5729   0.0661     H
H       0.4836   0.9271   0.5661     H
C       0.4847   0.0765   0.5261     C
C       0.4847   0.4235   0.0261     C
C       0.5153   0.5765   0.9739     C
C       0.5153   0.9235   0.4739     C
H       0.5164   0.0729   0.4339     H
H       0.5164   0.4271   0.9339     H
H       0.5201   0.0866   0.2648     H
H       0.5201   0.4134   0.7648     H
H       0.5224   0.0709   0.5739     H
H       0.5224   0.4291   0.0739     H
H       0.5256   0.1551   0.3219     H
H       0.5256   0.3449   0.8219     H
H       0.5436   0.6328   0.9804     H
H       0.5436   0.8672   0.4804     H
C       0.5534    0.064   0.4815     C
C       0.5534    0.436   0.9815     C
H       0.5546   0.1785   0.2535     H
H       0.5546   0.3215   0.7535     H
C       0.5566    0.135    0.287     C
C       0.5566    0.365    0.787     C
O       0.5946  0.51717  0.98893     O
O       0.5946  0.98283  0.48893     O
H        0.608    0.105   0.4929     H
H        0.608    0.395   0.9929     H
H       0.6278   0.1108   0.1841     H
H       0.6278   0.3892   0.6841     H
H       0.6417   0.2433   0.1125     H
H       0.6417   0.2567   0.6125     H
H       0.6433   0.5004   0.2108     H
H       0.6433   0.9996   0.7108     H
H       0.6544   0.5516   0.1464     H
H       0.6544   0.9484   0.6464     H
H       0.6587   0.7391   0.1066     H
H       0.6587   0.7609   0.6066     H
H       0.6596   0.1411   0.6825     H
H       0.6596   0.3589   0.1825     H
H       0.6634   0.0697   0.3547     H
H       0.6634   0.4303   0.8547     H
C       0.6642   0.1115    0.319     C
C       0.6642   0.3885    0.819     C
H       0.6823   0.6212   0.5894     H
H       0.6823   0.8788   0.0894     H
C       0.6875   0.5361   0.1929     C
C       0.6875   0.9639   0.6929     C
C       0.6882   0.0823   0.2029     C
C       0.6882   0.4177   0.7029     C
H       0.6883   0.2079   0.3878     H
H       0.6883   0.2921   0.8878     H
C       0.6886   0.2151   0.6095     C
C       0.6886   0.2849   0.1095     C
C       0.6997    0.146   0.6514     C
C       0.6997    0.354   0.1514     C
H       0.7029   0.5858   0.2207     H
H       0.7029   0.9142   0.7207     H
C       0.7056    0.744   0.5826     C
C       0.7056    0.756   0.0826     C
H       0.7174   0.0568   0.1123     H
H       0.7174   0.4432   0.6123     H
C       0.7195   0.6616   0.5727     C
C       0.7195   0.8384   0.0727     C
C       0.7198   0.0738   0.2722     C
C       0.7198   0.4262   0.7722     C
C       0.7212   0.1868   0.3543     C
C       0.7212   0.3132   0.8543     C
H       0.7221   0.2297   0.3208     H
H       0.7221   0.2703   0.8208     H
H        0.738   0.2306   0.0356     H
H        0.738   0.2694   0.5356     H
C       0.7414   0.0506   0.1598     C
C       0.7414   0.4494   0.6598     C
C       0.7452   0.2227   0.5643     C
C       0.7452   0.2773   0.0643     C
H       0.7489    0.641   0.0655     H
H       0.7489    0.859   0.5655     H
C       0.7594   0.6976  0.05781     C
C       0.7594   0.8024  0.55781     C
C       0.7679   0.0842   0.6488     C
C       0.7679   0.4158   0.1488     C
K      0.78099  0.51849  0.97177     K
K      0.78099  0.98151  0.47177     K
C        0.781   0.0086   0.6941     C
C        0.781   0.4914   0.1941     C
C       0.7889   0.6386   0.5378     C
C       0.7889   0.8614   0.0378     C
H       0.7898   0.1708   0.3767     H
H       0.7898   0.3292   0.8767     H
H       0.7985   0.5816    0.531     H
H       0.7985   0.9184    0.031     H
H       0.8015   0.0689   0.7845     H
H       0.8015   0.4311   0.2845     H
C       0.8089   0.0295   0.3004     C
C       0.8089   0.4705   0.8004     C
C       0.8129   0.1621   0.5608     C
C       0.8129   0.3379   0.0608     C
H       0.8234   0.5307   0.1759     H
H       0.8234   0.9693   0.6759     H
C       0.8273   0.0915  0.60236     C
C       0.8273   0.4085  0.10236     C
C       0.8294   0.7191  0.02159     C
C       0.8294   0.7809  0.52159     C
C       0.8303   0.0098   0.1873     C
C       0.8303   0.4902   0.6873     C
H       0.8303    0.708   0.7371     H
H       0.8303    0.792   0.2371     H
C       0.8385   0.0284   0.7649     C
C       0.8385   0.4716   0.2649     C
O      0.84043  0.01693  0.36622     O
O      0.84043  0.48307  0.86622     O
C       0.8448   0.6951  0.51255     C
C       0.8448   0.8049  0.01255     C
H        0.845   0.5836   0.4126     H
H        0.845   0.9164   0.9126     H
H       0.8478    0.522   0.2922     H
H       0.8478    0.978   0.7922     H
H       0.8517   0.1679   0.5289     H
H       0.8517   0.3321   0.0289     H
H       0.8551   0.1822    0.229     H
H       0.8551   0.3178    0.729     H
H       0.8576   0.6995   0.2213     H
H       0.8576   0.8005   0.7213     H
C       0.8642   0.0002   0.2568     C
C       0.8642   0.4998   0.7568     C
H       0.8682   0.5117   0.6585     H
H       0.8682   0.9883   0.1585     H
O       0.8797  0.66219  0.99813     O
O       0.8797  0.83781  0.49813     O
H       0.8821    0.225   0.7134     H
H       0.8821    0.275   0.2134     H
C       0.8861   0.7468  0.73935     C
C       0.8861   0.7532  0.23935     C
O       0.8925  0.03499  0.59772     O
O       0.8925  0.46501  0.09772     O
H       0.9037   0.0511   0.7643     H
H       0.9037   0.4489   0.2643     H
C         0.91   0.5853   0.4455     C
C         0.91   0.9147   0.9455     C
C       0.9107   0.2211  0.23104     C
C       0.9107   0.2789  0.73104     C
H       0.9122   0.7086   0.6499     H
H       0.9122   0.7914   0.1499     H
H       0.9125   0.5427   0.4798     H
H       0.9125   0.9573   0.9798     H
H       0.9206    0.161   0.9945     H
H       0.9206    0.339   0.4945     H
C       0.9251   0.6692   0.4789     C
C       0.9251   0.8308   0.9789     C
H       0.9254   0.7105   0.4427     H
H       0.9254   0.7895   0.9427     H
H        0.926   0.5267    0.775     H
H        0.926   0.9733    0.275     H
K      0.93496  0.62882  0.88985     K
K      0.93496  0.87118  0.38985     K
H       0.9364   0.1845   0.1409     H
H       0.9364   0.3155   0.6409     H
O      0.94181  0.74344   0.3083     O
O      0.94181  0.75656   0.8083     O
C       0.9515   0.7148  0.69724     C
C       0.9515   0.7852  0.19724     C
H       0.9617    0.228   0.9509     H
H       0.9617    0.272   0.4509     H
H       0.9628   0.5752   0.4225     H
H       0.9628   0.9248   0.9225     H
O      0.96779  0.23023   0.2999     O
O      0.96779  0.26977   0.7999     O
H       0.9691   0.1319   0.9353     H
H       0.9691   0.3681   0.4353     H
C       0.9724   0.1729   0.9709     C
C       0.9724   0.3271   0.4709     C
C       0.9759   0.1894  0.18831     C
C       0.9759   0.3106  0.68831     C
H       0.9777   0.6598    0.714     H
H       0.9777   0.8402    0.214     H
O       0.9865   0.0195   0.4989     O
O       0.9865   0.4805   0.9989     O
K      0.98998  0.60217  0.11483     K
K      0.98998  0.89783  0.61483     K
H        0.999   0.6339   0.2958     H
H        0.999   0.8661   0.7958     H
