data_I
_chemical_name_common  '/home/zhangsd/repos/MofS-CGCNN/ML/data/SSD/clean_cifs/JODFOZ_clean'
_cell_length_a  8.50460
_cell_length_b 13.33740
_cell_length_c 14.15840
_cell_angle_alpha 61.90020
_cell_angle_beta  85.71900
_cell_angle_gamma 80.88100
_space_group_name_H-M_alt      'P 1'


loop_
_space_group_symop_operation_xyz
  'x, y, z' 

loop_
_atom_site_label
_atom_site_fract_x
_atom_site_fract_y
_atom_site_fract_z
_atom_site_type_symbol
C       0.0068   0.9159   0.1128     C
H       0.0111   0.0952    0.862     H
C       0.0256   0.0654    0.936     C
C       0.0451   0.7664    0.631     C
C         0.05    0.859   0.5326     C
H       0.0519   0.4122   0.8678     H
C       0.0562   0.4321   0.7946     C
C       0.0609   0.9844   0.1508     C
H       0.0725   0.9556    0.225     H
C       0.0751   0.4871   0.5856     C
H       0.0778   0.5081   0.5122     H
C       0.0826   0.1338   0.9742     C
C       0.0969   0.0914   0.0834     C
O       0.1087   0.2972   0.3548     O
H         0.11   0.2064   0.9264     H
C       0.1476   0.1633   0.1262     C
O       0.1536  0.12601  0.22638     O
O       0.1781  0.26581  0.06498     O
H       0.1804   0.6336   0.7494     H
C       0.1855   0.6963   0.6808     C
H       0.1859   0.4952   0.2434     H
C       0.1942   0.8823   0.4824     C
H       0.1975   0.9461   0.4146     H
Co     0.20098  0.29714  0.19284    Co
C       0.2036   0.4139   0.7516     C
C       0.2134   0.4403   0.6456     C
C        0.233   0.5269    0.175     C
N       0.2542   0.4644   0.1206     N
H        0.259   0.6734   0.1746     H
C       0.2773    0.633   0.1346     C
H       0.2954   0.3839   0.7946     H
H       0.2999   0.4335   0.4728     H
C       0.3168   0.5145   0.0212     C
H        0.328   0.4745   0.9808     H
C       0.3304   0.7167   0.6322     C
H       0.3349   0.1284   0.4056     H
C       0.3389   0.8112   0.5316     C
C       0.3505   0.6831    0.033     C
C       0.3652   0.6215   0.9764     C
C       0.3718   0.4185   0.6016     C
C       0.3914   0.4172   0.5136     C
H       0.4044    0.815   0.1142     H
C       0.4071   0.7954   0.9866     C
H       0.4084   0.6526    0.907     H
N        0.421   0.2153   0.2602     N
C       0.4287   0.1387   0.3644     C
H        0.429   0.8311   0.9128     H
C       0.4297   0.8498    0.041     C
H       0.4373   0.8277    0.497     H
H       0.4468   0.4152   0.3344     H
H       0.4627    0.405   0.6422     H
O        0.463   0.5583   0.7836     O
C       0.4754   0.6362   0.6896     C
H       0.4815    0.004   0.8386     H
C       0.4908   0.9604   0.9962     C
C       0.5068   0.0287   0.8872     C
H       0.5111   0.9572    0.138     H
C       0.5256   0.0014    0.064     C
C       0.5451   0.3974    0.369     C
C         0.55   0.3916   0.4674     C
H       0.5519     0.28   0.1322     H
C       0.5562   0.2267   0.2054     C
C       0.5609   0.1352   0.8492     C
H       0.5725   0.1806    0.775     H
C       0.5751   0.0727   0.4144     C
H       0.5778   0.0203   0.4878     H
C       0.5826    0.108   0.0258     C
C       0.5969   0.1748   0.9166     C
O       0.6087    0.652   0.6452     O
H         0.61   0.1328   0.0736     H
C       0.6476   0.2895   0.8738     C
O       0.6536  0.35239  0.77362     O
O       0.6781  0.33079  0.93502     O
H       0.6804    0.383   0.2506     H
C       0.6855   0.3771   0.3192     C
H       0.6859   0.7386   0.7566     H
C       0.6942   0.3647   0.5176     C
H       0.6975   0.3607   0.5854     H
Co     0.70098  0.48998  0.80716    Co
C       0.7036   0.1655   0.2484     C
C       0.7134   0.0859   0.3544     C
C        0.733   0.7019    0.825     C
N       0.7542    0.585   0.8794     N
H        0.759    0.848   0.8254     H
C       0.7773   0.7676   0.8654     C
H       0.7954   0.1785   0.2054     H
H       0.7999   0.9063   0.5272     H
C       0.8168   0.5357   0.9788     C
H        0.828   0.4553   0.0192     H
C       0.8304   0.3489   0.3678     C
H       0.8349    0.534   0.5944     H
C       0.8389   0.3428   0.4684     C
C       0.8505   0.7161    0.967     C
C       0.8652   0.5979   0.0236     C
C       0.8718   0.0201   0.3984     C
C       0.8914   0.9308   0.4864     C
H       0.9044   0.9292   0.8858     H
C       0.9071    0.782   0.0134     C
H       0.9084   0.5596    0.093     H
N        0.921   0.4755   0.7398     N
C       0.9287   0.5031   0.6356     C
H        0.929   0.7439   0.0872     H
C       0.9297   0.8908    0.959     C
H       0.9373   0.3247    0.503     H
H       0.9468   0.7496   0.6656     H
H       0.9627   0.0472   0.3578     H
O        0.963   0.3419   0.2164     O
C       0.9754   0.3258   0.3104     C
H       0.9815   0.8426   0.1614     H
C       0.9908   0.9566   0.0038     C
