data_I
_chemical_name_common  '/home/zhangsd/repos/MofS-CGCNN/ML/data/SSD/clean_cifs/JOHFIW_manual'
_cell_length_a 10.22300
_cell_length_b 10.22300
_cell_length_c 14.49300
_cell_angle_alpha 90.00000
_cell_angle_beta  90.00000
_cell_angle_gamma 90.00000
_space_group_name_H-M_alt      'P 1'


loop_
_space_group_symop_operation_xyz
  'x, y, z' 

loop_
_atom_site_label
_atom_site_fract_x
_atom_site_fract_y
_atom_site_fract_z
_atom_site_type_symbol
C        0.043      0.5     0.75     C
H       0.0584   0.4243   0.6214     H
H       0.0584   0.5757   0.8786     H
C        0.106    0.453   0.6721     C
C        0.106    0.547   0.8279     C
C        0.114      0.5     0.25     C
O       0.1646   0.4221   0.3075     O
O       0.1646   0.5779   0.1925     O
C        0.245    0.451   0.6714     C
C        0.245    0.549   0.8286     C
O        0.261   0.4052   0.5144     O
O        0.261   0.5948   0.9856     O
C        0.306      0.5     0.75     C
C        0.326    0.411    0.593     C
C        0.326    0.589    0.907     C
Y      0.34977  0.34977    0.375     Y
Y      0.34977  0.65023    0.125     Y
O        0.384    0.439    0.148     O
O        0.384    0.561    0.352     O
H       0.3968      0.5     0.75     H
O       0.4052    0.261   0.2356     O
O       0.4052    0.739   0.2644     O
C        0.411    0.326    0.157     C
C        0.411    0.674    0.343     C
O       0.4221   0.1646   0.4425     O
O       0.4221   0.8354   0.0575     O
H       0.4243   0.0584   0.1286     H
H       0.4243   0.9416   0.3714     H
O        0.439    0.384    0.602     O
O        0.439    0.616    0.898     O
C        0.451    0.245   0.0786     C
C        0.451    0.755   0.4214     C
C        0.453    0.106   0.0779     C
C        0.453    0.894   0.4221     C
C          0.5    0.043      0.0     C
C          0.5    0.114      0.5     C
C          0.5    0.306      0.0     C
H          0.5   0.3968      0.0     H
H          0.5   0.6032      0.5     H
C          0.5    0.694      0.5     C
C          0.5    0.886      0.0     C
C          0.5    0.957      0.5     C
C        0.547    0.106   0.9221     C
C        0.547    0.894   0.5779     C
C        0.549    0.245   0.9214     C
C        0.549    0.755   0.5786     C
O        0.561    0.384    0.398     O
O        0.561    0.616    0.102     O
H       0.5757   0.0584   0.8714     H
H       0.5757   0.9416   0.6286     H
O       0.5779   0.1646   0.5575     O
O       0.5779   0.8354   0.9425     O
C        0.589    0.326    0.843     C
C        0.589    0.674    0.657     C
O       0.5948    0.261   0.7644     O
O       0.5948    0.739   0.7356     O
H       0.6032      0.5     0.25     H
O        0.616    0.439    0.852     O
O        0.616    0.561    0.648     O
Y      0.65023  0.34977    0.625     Y
Y      0.65023  0.65023    0.875     Y
C        0.674    0.411    0.407     C
C        0.674    0.589    0.093     C
C        0.694      0.5     0.25     C
O        0.739   0.4052   0.4856     O
O        0.739   0.5948   0.0144     O
C        0.755    0.451   0.3286     C
C        0.755    0.549   0.1714     C
O       0.8354   0.4221   0.6925     O
O       0.8354   0.5779   0.8075     O
C        0.886      0.5     0.75     C
C        0.894    0.453   0.3279     C
C        0.894    0.547   0.1721     C
H       0.9416   0.4243   0.3786     H
H       0.9416   0.5757   0.1214     H
C        0.957      0.5     0.25     C
