data_I
_chemical_name_common  '/home/zhangsd/repos/MofS-CGCNN/ML/data/SSD/clean_cifs/JORSEQ_clean'
_cell_length_a 36.87300
_cell_length_b  9.31520
_cell_length_c 10.92880
_cell_angle_alpha 90.00000
_cell_angle_beta  93.64300
_cell_angle_gamma 90.00000
_space_group_name_H-M_alt      'P 1'


loop_
_space_group_symop_operation_xyz
  'x, y, z' 

loop_
_atom_site_label
_atom_site_fract_x
_atom_site_fract_y
_atom_site_fract_z
_atom_site_type_symbol
C          0.0    0.026     0.75     C
C          0.0    0.974     0.25     C
C       0.0034    0.213   0.9714     C
C       0.0034    0.787   0.4714     C
C       0.0047    0.304   0.0694     C
C       0.0047    0.696   0.5694     C
H       0.0083   0.0352   0.3178     H
H       0.0083   0.9648   0.8178     H
H       0.0205   0.4605   0.3396     H
H       0.0205   0.5395   0.8396     H
C       0.0232    0.395   0.4039     C
C       0.0232    0.605   0.9039     C
H       0.0233   0.1564   0.9561     H
H       0.0233   0.8436   0.4561     H
H       0.0257   0.3048   0.1214     H
H       0.0257   0.6952   0.6214     H
C       0.0289    0.207   0.6074     C
C       0.0289    0.793   0.1074     C
C       0.0325    0.119   0.7106     C
C       0.0325    0.881   0.2106     C
C       0.0557    0.386   0.4766     C
C       0.0557    0.614   0.9766     C
C       0.0589    0.291   0.5781     C
C       0.0589    0.709   0.0781     C
C       0.0654      0.1   0.7726     C
C       0.0654      0.9   0.2726     C
O       0.0691   0.0054   0.8716     O
O       0.0691   0.9946   0.3716     O
H       0.0754   0.4433   0.4584     H
H       0.0754   0.5567   0.9584     H
H       0.0903   0.0053   0.8995     H
H       0.0903   0.9947   0.3995     H
C       0.0919    0.283    0.652     C
C       0.0919    0.717    0.152     C
C       0.0956    0.185   0.7453     C
C       0.0956    0.815   0.2453     C
H        0.111   0.3436   0.6369     H
H        0.111   0.6564   0.1369     H
C       0.1322    0.173   0.8103     C
C       0.1322    0.827   0.3103     C
O       0.1373   0.0774   0.8942     O
O       0.1373   0.9226   0.3942     O
O       0.1577   0.2531   0.7824     O
O       0.1577   0.7469   0.2824     O
H        0.173   0.1671   0.6185     H
H        0.173   0.8329   0.1185     H
H       0.1796   0.1011   0.4977     H
H       0.1796   0.8989   0.9977     H
N       0.1841   0.1053   0.5758     N
N       0.1841   0.8947   0.0758     N
Cd     0.20749  0.19392  0.89579    Cd
Cd     0.20749  0.80608  0.39579    Cd
C       0.2087   0.0139   0.6318     C
C       0.2087   0.9861   0.1318     C
N       0.2194   0.0182     0.75     N
N       0.2194   0.9818     0.25     N
H       0.2232   0.3069   0.6219     H
H       0.2232   0.6931   0.1219     H
N       0.2262   0.0821   0.0704     N
N       0.2262   0.9179   0.5704     N
N       0.2386   0.3761   0.6269     N
N       0.2386   0.6239   0.1269     N
H       0.2436   0.4227   0.5621     H
H       0.2436   0.5773   0.0621     H
C       0.2447   0.0882   0.2626     C
C       0.2447   0.9118   0.7626     C
N       0.2496   0.3472   0.8429     N
N       0.2496   0.6528   0.3429     N
N       0.2504   0.1528   0.1571     N
N       0.2504   0.8472   0.6571     N
C       0.2553   0.4118   0.7374     C
C       0.2553   0.5882   0.2374     C
H       0.2564   0.0773   0.4379     H
H       0.2564   0.9227   0.9379     H
N       0.2614   0.1239   0.3731     N
N       0.2614   0.8761   0.8731     N
N       0.2738   0.4179   0.9296     N
N       0.2738   0.5821   0.4296     N
H       0.2768   0.1931   0.3781     H
H       0.2768   0.8069   0.8781     H
N       0.2806   0.4818     0.25     N
N       0.2806   0.5182     0.75     N
C       0.2913   0.4861   0.3682     C
C       0.2913   0.5139   0.8682     C
Cd     0.29251  0.30608  0.10421    Cd
Cd     0.29251  0.69392  0.60421    Cd
N       0.3159   0.3947   0.4242     N
N       0.3159   0.6053   0.9242     N
H       0.3204   0.3989   0.5023     H
H       0.3204   0.6011   0.0023     H
H        0.327   0.3329   0.3815     H
H        0.327   0.6671   0.8815     H
O       0.3423   0.2469   0.2176     O
O       0.3423   0.7531   0.7176     O
O       0.3627   0.4226   0.1058     O
O       0.3627   0.5774   0.6058     O
C       0.3678    0.327   0.1897     C
C       0.3678    0.673   0.6897     C
H        0.389   0.1564   0.3631     H
H        0.389   0.8436   0.8631     H
C       0.4044    0.315   0.2547     C
C       0.4044    0.685   0.7547     C
C       0.4081    0.217    0.348     C
C       0.4081    0.783    0.848     C
H       0.4097   0.4947   0.1005     H
H       0.4097   0.5053   0.6005     H
H       0.4246   0.0567   0.5416     H
H       0.4246   0.9433   0.0416     H
O       0.4309   0.4946   0.1284     O
O       0.4309   0.5054   0.6284     O
C       0.4346      0.4   0.2274     C
C       0.4346      0.6   0.7274     C
C       0.4411    0.209   0.4219     C
C       0.4411    0.791   0.9219     C
C       0.4443    0.114   0.5234     C
C       0.4443    0.886   0.0234     C
C       0.4675    0.381   0.2894     C
C       0.4675    0.619   0.7894     C
C       0.4711    0.293   0.3926     C
C       0.4711    0.707   0.8926     C
H       0.4743   0.1952   0.8786     H
H       0.4743   0.8048   0.3786     H
H       0.4767   0.3436   0.0439     H
H       0.4767   0.6564   0.5439     H
C       0.4768    0.105   0.5961     C
C       0.4768    0.895   0.0961     C
H       0.4795   0.0395   0.6604     H
H       0.4795   0.9605   0.1604     H
H       0.4917   0.4648   0.6822     H
H       0.4917   0.5352   0.1822     H
C       0.4953    0.196   0.9306     C
C       0.4953    0.804   0.4306     C
C       0.4966    0.287   0.0286     C
C       0.4966    0.713   0.5286     C
C          0.5    0.474     0.25     C
C          0.5    0.526     0.75     C
C       0.5034    0.287   0.4714     C
C       0.5034    0.713   0.9714     C
C       0.5047    0.196   0.5694     C
C       0.5047    0.804   0.0694     C
H       0.5083   0.4648   0.8178     H
H       0.5083   0.5352   0.3178     H
H       0.5205   0.0395   0.8396     H
H       0.5205   0.9605   0.3396     H
C       0.5232    0.105   0.9039     C
C       0.5232    0.895   0.4039     C
H       0.5233   0.3436   0.4561     H
H       0.5233   0.6564   0.9561     H
H       0.5257   0.1952   0.6214     H
H       0.5257   0.8048   0.1214     H
C       0.5289    0.293   0.1074     C
C       0.5289    0.707   0.6074     C
C       0.5325    0.381   0.2106     C
C       0.5325    0.619   0.7106     C
C       0.5557    0.114   0.9766     C
C       0.5557    0.886   0.4766     C
C       0.5589    0.209   0.0781     C
C       0.5589    0.791   0.5781     C
C       0.5654      0.4   0.2726     C
C       0.5654      0.6   0.7726     C
O       0.5691   0.4946   0.3716     O
O       0.5691   0.5054   0.8716     O
H       0.5754   0.0567   0.9584     H
H       0.5754   0.9433   0.4584     H
H       0.5903   0.4947   0.3995     H
H       0.5903   0.5053   0.8995     H
C       0.5919    0.217    0.152     C
C       0.5919    0.783    0.652     C
C       0.5956    0.315   0.2453     C
C       0.5956    0.685   0.7453     C
H        0.611   0.1564   0.1369     H
H        0.611   0.8436   0.6369     H
C       0.6322    0.327   0.3103     C
C       0.6322    0.673   0.8103     C
O       0.6373   0.4226   0.3942     O
O       0.6373   0.5774   0.8942     O
O       0.6577   0.2469   0.2824     O
O       0.6577   0.7531   0.7824     O
H        0.673   0.3329   0.1185     H
H        0.673   0.6671   0.6185     H
H       0.6796   0.3989   0.9977     H
H       0.6796   0.6011   0.4977     H
N       0.6841   0.3947   0.0758     N
N       0.6841   0.6053   0.5758     N
Cd     0.70749  0.30608  0.39579    Cd
Cd     0.70749  0.69392  0.89579    Cd
C       0.7087   0.4861   0.1318     C
C       0.7087   0.5139   0.6318     C
N       0.7194   0.4818     0.25     N
N       0.7194   0.5182     0.75     N
H       0.7232   0.1931   0.1219     H
H       0.7232   0.8069   0.6219     H
N       0.7262   0.4179   0.5704     N
N       0.7262   0.5821   0.0704     N
N       0.7386   0.1239   0.1269     N
N       0.7386   0.8761   0.6269     N
H       0.7436   0.0773   0.0621     H
H       0.7436   0.9227   0.5621     H
C       0.7447   0.4118   0.7626     C
C       0.7447   0.5882   0.2626     C
N       0.7496   0.1528   0.3429     N
N       0.7496   0.8472   0.8429     N
N       0.7504   0.3472   0.6571     N
N       0.7504   0.6528   0.1571     N
C       0.7553   0.0882   0.2374     C
C       0.7553   0.9118   0.7374     C
H       0.7564   0.4227   0.9379     H
H       0.7564   0.5773   0.4379     H
N       0.7614   0.3761   0.8731     N
N       0.7614   0.6239   0.3731     N
N       0.7738   0.0821   0.4296     N
N       0.7738   0.9179   0.9296     N
H       0.7768   0.3069   0.8781     H
H       0.7768   0.6931   0.3781     H
N       0.7806   0.0182     0.75     N
N       0.7806   0.9818     0.25     N
C       0.7913   0.0139   0.8682     C
C       0.7913   0.9861   0.3682     C
Cd     0.79251  0.19392  0.60421    Cd
Cd     0.79251  0.80608  0.10421    Cd
N       0.8159   0.1053   0.9242     N
N       0.8159   0.8947   0.4242     N
H       0.8204   0.1011   0.0023     H
H       0.8204   0.8989   0.5023     H
H        0.827   0.1671   0.8815     H
H        0.827   0.8329   0.3815     H
O       0.8423   0.2531   0.7176     O
O       0.8423   0.7469   0.2176     O
O       0.8627   0.0774   0.6058     O
O       0.8627   0.9226   0.1058     O
C       0.8678    0.173   0.6897     C
C       0.8678    0.827   0.1897     C
H        0.889   0.3436   0.8631     H
H        0.889   0.6564   0.3631     H
C       0.9044    0.185   0.7547     C
C       0.9044    0.815   0.2547     C
C       0.9081    0.283    0.848     C
C       0.9081    0.717    0.348     C
H       0.9097   0.0053   0.6005     H
H       0.9097   0.9947   0.1005     H
H       0.9246   0.4433   0.0416     H
H       0.9246   0.5567   0.5416     H
O       0.9309   0.0054   0.6284     O
O       0.9309   0.9946   0.1284     O
C       0.9346      0.1   0.7274     C
C       0.9346      0.9   0.2274     C
C       0.9411    0.291   0.9219     C
C       0.9411    0.709   0.4219     C
C       0.9443    0.386   0.0234     C
C       0.9443    0.614   0.5234     C
C       0.9675    0.119   0.7894     C
C       0.9675    0.881   0.2894     C
C       0.9711    0.207   0.8926     C
C       0.9711    0.793   0.3926     C
H       0.9743   0.3048   0.3786     H
H       0.9743   0.6952   0.8786     H
H       0.9767   0.1564   0.5439     H
H       0.9767   0.8436   0.0439     H
C       0.9768    0.395   0.0961     C
C       0.9768    0.605   0.5961     C
H       0.9795   0.4605   0.1604     H
H       0.9795   0.5395   0.6604     H
H       0.9917   0.0352   0.1822     H
H       0.9917   0.9648   0.6822     H
C       0.9953    0.304   0.4306     C
C       0.9953    0.696   0.9306     C
C       0.9966    0.213   0.5286     C
C       0.9966    0.787   0.0286     C
