data_I
_chemical_name_common  '/home/zhangsd/repos/MofS-CGCNN/ML/data/SSD/clean_cifs/JUGQIN_clean'
_cell_length_a 13.22050
_cell_length_b 13.99730
_cell_length_c 14.90000
_cell_angle_alpha 99.68000
_cell_angle_beta  91.00900
_cell_angle_gamma 117.10300
_space_group_name_H-M_alt      'P 1'


loop_
_space_group_symop_operation_xyz
  'x, y, z' 

loop_
_atom_site_label
_atom_site_fract_x
_atom_site_fract_y
_atom_site_fract_z
_atom_site_type_symbol
H       0.0036   0.7396   0.8102     H
O       0.0113   0.6184   0.2878     O
O       0.0213   0.5975   0.6953     O
H       0.0257    0.287   0.8275     H
O       0.0268   0.9107   0.9177     O
H       0.0289   0.6346   0.4239     H
C       0.0344   0.5874   0.3707     C
C       0.0391    0.762   0.2123     C
O       0.0412   0.1496   0.9118     O
C       0.0522   0.5292   0.6323     C
H       0.0531   0.5467   0.5719     H
C       0.0585   0.9103    0.127     C
C       0.0689    0.772    0.781     C
C       0.0756   0.7262   0.2821     C
C       0.0951   0.7089   0.7112     C
C       0.0981   0.8697   0.2012     C
H       0.1109   0.5945   0.3744     H
C       0.1219   0.9521   0.8853     C
H       0.1278   0.5405   0.6519     H
O       0.1279   0.0023   0.1116     O
C       0.1416   0.8829   0.8057     C
Eu     0.15523  0.14805  0.03869    Eu
C        0.173   0.7992   0.3418     C
C       0.1887   0.7563   0.6655     C
C       0.1944   0.9447   0.2631     C
O       0.1948   0.3441    0.044     O
H       0.1995   0.7757   0.3874     H
O       0.2003   0.0472   0.9158     O
H       0.2059   0.7135   0.6199     H
C         0.23   0.9081   0.3319     C
H       0.2334   0.0177   0.2577     H
C       0.2369   0.9328   0.7586     C
C        0.259   0.8707    0.688     C
N       0.2623   0.3624   0.9837     N
O       0.2756   0.5576   0.5337     O
H        0.285   0.0078   0.7751     H
O       0.2899   0.2893   0.9547     O
O       0.2996   0.4485   0.9547     O
O       0.3051   0.6816   0.4522     O
C       0.3302   0.9882   0.3999     C
N       0.3408   0.6396   0.5058     N
O       0.3532   0.0877   0.4188     O
C       0.3572   0.9235   0.6333     C
O       0.3883   0.9535   0.4412     O
O        0.391   0.0238   0.6311     O
O       0.3985   0.8646   0.5936     O
O       0.4471   0.6871   0.5285     O
Eu     0.48974  0.85323  0.45963    Eu
Eu     0.51026  0.14677  0.54037    Eu
O       0.5529   0.3129   0.4715     O
O       0.6015   0.1354   0.4064     O
O        0.609   0.9762   0.3689     O
O       0.6117   0.0465   0.5588     O
C       0.6428   0.0765   0.3667     C
O       0.6468   0.9123   0.5812     O
N       0.6592   0.3604   0.4942     N
C       0.6698   0.0118   0.6001     C
O       0.6949   0.3184   0.5478     O
O       0.7004   0.5515   0.0453     O
O       0.7101   0.7107   0.0453     O
H        0.715   0.9922   0.2249     H
O       0.7244   0.4424   0.4663     O
N       0.7377   0.6376   0.0163     N
C        0.741   0.1293    0.312     C
C       0.7631   0.0672   0.2414     C
H       0.7666   0.9823   0.7423     H
C         0.77   0.0919   0.6681     C
H       0.7941   0.2865   0.3801     H
O       0.7997   0.9528   0.0842     O
H       0.8005   0.2243   0.6126     H
O       0.8052   0.6559    0.956     O
C       0.8056   0.0553   0.7369     C
C       0.8113   0.2437   0.3345     C
C        0.827   0.2008   0.6582     C
Eu     0.84477  0.85195  0.96131    Eu
C       0.8584   0.1171   0.1943     C
O       0.8721   0.9977   0.8884     O
H       0.8722   0.4595   0.3481     H
C       0.8781   0.0479   0.1147     C
H       0.8891   0.4055   0.6256     H
C       0.9019   0.1303   0.7988     C
C       0.9049   0.2911   0.2888     C
C       0.9244   0.2738   0.7179     C
C       0.9311    0.228    0.219     C
C       0.9415   0.0897    0.873     C
H       0.9469   0.4533   0.4281     H
C       0.9478   0.4708   0.3677     C
O       0.9588   0.8504   0.0882     O
C       0.9609    0.238   0.7877     C
C       0.9656   0.4126   0.6293     C
H       0.9711   0.3654   0.5761     H
O       0.9732   0.0893   0.0823     O
H       0.9743    0.713   0.1725     H
O       0.9787   0.4025   0.3047     O
O       0.9887   0.3816   0.7122     O
H       0.9964   0.2604   0.1898     H
