data_I
_chemical_name_common  '/home/zhangsd/repos/MofS-CGCNN/ML/data/SSD/clean_cifs/JUGQOT_clean'
_cell_length_a 13.00900
_cell_length_b 13.77010
_cell_length_c 15.04390
_cell_angle_alpha 99.51300
_cell_angle_beta  90.40200
_cell_angle_gamma 116.52200
_space_group_name_H-M_alt      'P 1'


loop_
_space_group_symop_operation_xyz
  'x, y, z' 

loop_
_atom_site_label
_atom_site_fract_x
_atom_site_fract_y
_atom_site_fract_z
_atom_site_type_symbol
Tb     0.00908  0.14873   0.0397    Tb
O       0.0473   0.3172   0.9755     O
O       0.0979   0.1361   0.9063     O
O       0.1037   0.9745   0.8712     O
O       0.1132   0.0489   0.0574     O
C       0.1367   0.0746    0.867     C
O       0.1491   0.9113   0.0754     O
N       0.1563   0.3639   0.9931     N
C       0.1709   0.0133   0.0956     C
O        0.196   0.3213   0.0427     O
H       0.2092   0.9843   0.7285     H
O       0.2168   0.4456   0.9635     O
O       0.2206   0.6929   0.5218     O
C       0.2376   0.1254   0.8101     C
O       0.2402   0.5484   0.5375     O
C       0.2566   0.0602   0.7405     C
H       0.2669    0.976   0.2343     H
C       0.2697   0.0897   0.1629     C
N       0.2772   0.6366    0.512     N
O       0.2859    0.939    0.583     O
H       0.2898   0.2839   0.8741     H
H       0.3002   0.2276   0.1142     H
C       0.3056   0.0505   0.2308     C
C       0.3069   0.2397   0.8291     C
C        0.327    0.201   0.1572     C
C       0.3488   0.1076    0.686     C
Tb     0.35606  0.85596  0.46486    Tb
O       0.3631   0.6714   0.4684     O
C       0.3643   0.0346   0.6086     C
O       0.3702    0.985   0.3755     O
H       0.3729   0.4581   0.8476     H
H       0.3853   0.4126   0.1348     H
C       0.3997   0.2862   0.7812     C
C       0.4002   0.1232   0.2938     C
C       0.4209   0.2208   0.7088     C
C       0.4249   0.2729   0.2164     C
C       0.4379    0.078   0.3619     C
C       0.4493   0.4658   0.8622     C
H       0.4509   0.4448   0.9204     H
O        0.454   0.0732   0.5681     O
C       0.4586   0.2332   0.2845     C
O       0.4601   0.8623   0.5977     O
C       0.4618   0.4171   0.1343     C
H       0.4644   0.3703   0.0795     H
O       0.4748   0.3974   0.7949     O
H       0.4778   0.7184    0.675     H
H       0.4836   0.2533   0.6759     H
O       0.4879   0.3816    0.213     O
O       0.5121   0.6184    0.787     O
H       0.5164   0.7467   0.3241     H
H       0.5222   0.2816    0.325     H
O       0.5252   0.6026   0.2051     O
H       0.5356   0.6297   0.9205     H
C       0.5382   0.5829   0.8657     C
O       0.5399   0.1377   0.4023     O
C       0.5414   0.7668   0.7155     C
O        0.546   0.9268   0.4319     O
H       0.5491   0.5552   0.0796     H
C       0.5507   0.5342   0.1378     C
C       0.5621    0.922   0.6381     C
C       0.5751   0.7271   0.7836     C
C       0.5791   0.7792   0.2912     C
C       0.5998   0.8768   0.7062     C
C       0.6003   0.7138   0.2188     C
H       0.6147   0.5874   0.8652     H
H       0.6271   0.5419   0.1524     H
O       0.6298    0.015   0.6245     O
C       0.6357   0.9654   0.3914     C
O       0.6369   0.3286   0.5316     O
Tb     0.64394  0.14404  0.53514    Tb
C       0.6512   0.8924    0.314     C
C        0.673    0.799   0.8428     C
C       0.6931   0.7603   0.1709     C
C       0.6944   0.9495   0.7692     C
H       0.6998   0.7724   0.8858     H
H       0.7102   0.7161   0.1259     H
O       0.7141    0.061    0.417     O
N       0.7228   0.3634    0.488     N
C       0.7303   0.9103   0.8371     C
H       0.7331    0.024   0.7657     H
C       0.7434   0.9398   0.2595     C
O       0.7598   0.4516   0.4625     O
C       0.7624   0.8746   0.1899     C
O       0.7794   0.3071   0.4782     O
O       0.7832   0.5544   0.0365     O
H       0.7908   0.0157   0.2715     H
O        0.804   0.6787   0.9573     O
C       0.8291   0.9867   0.9044     C
N       0.8437   0.6361   0.0069     N
O       0.8509   0.0887   0.9246     O
C       0.8633   0.9254    0.133     C
O       0.8868   0.9511   0.9426     O
O       0.8963   0.0255   0.1288     O
O       0.9021   0.8639   0.0937     O
O       0.9527   0.6828   0.0245     O
Tb     0.99092  0.85127   0.9603    Tb
