data_I
_chemical_name_common  '/home/zhangsd/repos/MofS-CGCNN/ML/data/SSD/clean_cifs/JUJTAL_clean'
_cell_length_a 10.03450
_cell_length_b 15.28520
_cell_length_c 18.42100
_cell_angle_alpha 67.73200
_cell_angle_beta  87.02400
_cell_angle_gamma 77.36100
_space_group_name_H-M_alt      'P 1'


loop_
_space_group_symop_operation_xyz
  'x, y, z' 

loop_
_atom_site_label
_atom_site_fract_x
_atom_site_fract_y
_atom_site_fract_z
_atom_site_type_symbol
H       0.0012   0.3492   0.0598     H
C       0.0037    0.486   0.7799     C
C        0.005   0.6246    0.516     C
C       0.0053   0.6865   0.4385     C
C       0.0297   0.5206   0.6938     C
H       0.0326   0.5572   0.5307     H
H       0.0349   0.6614   0.3997     H
H       0.0364   0.1743   0.6348     H
C       0.0376   0.3348   0.4283     C
C       0.0378   0.2152   0.5818     C
C       0.0405   0.5789   0.0579     C
O       0.0409  0.98044  0.37666     O
N       0.0426   0.3882  0.34796     N
C       0.0681   0.6089   0.9774     C
C       0.0814   0.2358   0.4538     C
N       0.0816   0.1758  0.52898     N
H       0.0847   0.7174   0.8308     H
C       0.0878   0.3923   0.9129     C
H       0.0981   0.3602   0.3215     H
C       0.1091   0.4228   0.8349     C
O       0.1092   0.4718  0.66367     O
H       0.1118   0.8602    0.721     H
H       0.1128   0.2088   0.4163     H
C        0.121   0.4863   0.1939     C
O        0.136  0.03152  0.45478     O
C       0.1363   0.0082  0.39679     C
Co     0.13828   0.0196  0.56713    Co
C       0.1472    0.517   0.1131     C
C       0.1516   0.8208   0.6935     C
N       0.1554   0.6863  0.81449     N
H       0.1597    0.351   0.9484     H
H       0.1639   0.0234   0.2491     H
N        0.174    0.864  0.61738     N
C       0.1831   0.7223   0.7342     C
H       0.1917   0.4456   0.2305     H
C       0.1937   0.5784   0.9523     C
H        0.195   0.4018   0.8171     H
C       0.2275   0.8066   0.5784     C
C       0.2336   0.6053   0.8681     C
C       0.2386   0.6636   0.6936     C
O       0.2417   0.0744  0.10284     O
H       0.2434   0.8353   0.5247     H
C       0.2495   0.0184   0.2705     C
H       0.2522   0.4653   0.5029     H
O       0.2545  0.01434  0.66944     O
C       0.2595   0.0122  0.34695     C
C       0.2598   0.7078   0.6144     C
H       0.2611   0.5959   0.7191     H
H       0.2634   0.5022   0.3708     H
C       0.2749    0.487   0.0854     C
H       0.2965   0.6699   0.5852     H
C       0.2974   0.5154   0.0075     C
C       0.3306   0.4836   0.4768     C
O       0.3328   0.5569  0.85019     O
C       0.3365   0.5065   0.3983     C
H       0.3463   0.4465   0.1216     H
C       0.3535   0.0304   0.1402     C
O       0.3545   0.0084  0.56305     O
H       0.3611   0.4428     0.63     H
C       0.3612   0.0075  0.63093     C
C       0.3642   0.0174   0.2249     C
H       0.3831   0.4928   0.9903     H
C       0.3858   0.0082  0.37782     C
H        0.392    0.009   0.4283     H
O       0.3933   0.5234  0.23961     O
H       0.4255   0.6914   0.9792     H
H       0.4293   0.0002   0.7709     H
C       0.4386   0.4612   0.6028     C
H       0.4398   0.8501   0.9386     H
C       0.4406   0.4868   0.5202     C
C       0.4451   0.7158   0.0164     C
C       0.4473   0.5654   0.2694     C
H       0.4507   0.3368   0.7448     H
C       0.4528    0.537   0.3569     C
C        0.454   0.8107   0.9922     C
O       0.4604  0.99921   0.1112     O
H       0.4622   0.5898   0.1106     H
C       0.4646   0.6556   0.0941     C
N       0.4823   0.8493  0.04228     N
H       0.4836   0.1822   0.8458     H
C       0.4876   0.6952    0.147     C
C       0.4917   0.0058   0.2581     C
C       0.4975   0.9971  0.66583     C
C       0.4977   0.7916   0.1182     C
N       0.4982   0.3564  0.77143     N
Co         0.5      0.0      0.0    Co
N       0.5018   0.6436  0.22857     N
C       0.5023   0.2084   0.8818     C
C       0.5025   0.0029  0.33417     C
C       0.5083   0.9942   0.7419     C
C       0.5124   0.3048    0.853     C
H       0.5164   0.8178   0.1542     H
N       0.5177   0.1507  0.95772     N
C       0.5354   0.3444   0.9059     C
H       0.5378   0.4102   0.8894     H
O       0.5396  0.00079   0.8888     O
C        0.546   0.1893   0.0078     C
C       0.5472    0.463   0.6431     C
H       0.5493   0.6632   0.2552     H
C       0.5527   0.4346   0.7306     C
C       0.5549   0.2842   0.9836     C
C       0.5594   0.5132   0.4798     C
H       0.5602   0.1499   0.0614     H
C       0.5614   0.5388   0.3972     C
H       0.5707   0.9998   0.2291     H
H       0.5745   0.3086   0.0208     H
O       0.6067   0.4766  0.76039     O
H        0.608    0.991   0.5717     H
C       0.6142   0.9918  0.62218     C
H       0.6169   0.5072   0.0097     H
C       0.6358   0.9826   0.7751     C
C       0.6388   0.9925  0.36907     C
H       0.6389   0.5572     0.37     H
O       0.6455   0.9916  0.43695     O
C       0.6465   0.9696   0.8598     C
H       0.6537   0.5535   0.8784     H
C       0.6635   0.4935   0.6017     C
O       0.6672   0.4431  0.14981     O
C       0.6694   0.5164   0.5232     C
C       0.7026   0.4846   0.9925     C
H       0.7035   0.3301   0.4148     H
C       0.7251    0.513   0.9146     C
H       0.7366   0.4978   0.6292     H
H       0.7389   0.4041   0.2809     H
C       0.7402   0.2922   0.3856     C
C       0.7405   0.9878  0.65305     C
O       0.7455  0.98566  0.33056     O
H       0.7478   0.5347   0.4971     H
C       0.7505   0.9816   0.7295     C
H       0.7566   0.1647   0.4753     H
O       0.7583   0.9256  0.89716     O
C       0.7614   0.3364   0.3064     C
C       0.7664   0.3947   0.1319     C
C       0.7725   0.1934   0.4216     C
H        0.805   0.5982   0.1829     H
C       0.8063   0.4216   0.0477     C
H       0.8083   0.5544   0.7695     H
C       0.8169   0.2777   0.2658     C
N        0.826    0.136  0.38262     N
H       0.8361   0.9766   0.7509     H
H       0.8403    0.649   0.0516     H
N       0.8446   0.3137  0.18551     N
C       0.8484   0.1792   0.3065     C
C       0.8528    0.483   0.8869     C
Co     0.86172   0.9804  0.43287    Co
C       0.8637   0.9918  0.60321     C
O        0.864  0.96848  0.54522     O
C        0.879   0.5137   0.8061     C
H       0.8872   0.7912   0.5837     H
H       0.8882   0.1398    0.279     H
O       0.8908   0.5282  0.33633     O
C       0.8909   0.5772   0.1651     C
H       0.9019   0.6398   0.6785     H
C       0.9122   0.6077   0.0871     C
H       0.9153   0.2826   0.1692     H
N       0.9184   0.8242  0.47102     N
C       0.9186   0.7642   0.5462     C
C       0.9319   0.3911   0.0226     C
N       0.9574   0.6118  0.65204     N
O       0.9591  0.01956  0.62334     O
C       0.9595   0.4211   0.9421     C
C       0.9622   0.7848   0.4182     C
C       0.9624   0.6652   0.5717     C
H       0.9636   0.8257   0.3652     H
H       0.9651   0.3386   0.6003     H
H       0.9674   0.4428   0.4693     H
C       0.9703   0.4794   0.3062     C
C       0.9947   0.3135   0.5615     C
C        0.995   0.3754    0.484     C
C       0.9963    0.514   0.2201     C
H       0.9988   0.6508   0.9402     H
