data_I
_chemical_name_common  '/home/zhangsd/repos/MofS-CGCNN/ML/data/SSD/clean_cifs/JUTCUW_SL'
_cell_length_a  8.93640
_cell_length_b  8.93640
_cell_length_c  8.93640
_cell_angle_alpha 60.00000
_cell_angle_beta  60.00000
_cell_angle_gamma 60.00000
_space_group_name_H-M_alt      'P 1'


loop_
_space_group_symop_operation_xyz
  'x, y, z' 

loop_
_atom_site_label
_atom_site_fract_x
_atom_site_fract_y
_atom_site_fract_z
_atom_site_type_symbol
C        0.027    0.527    0.527     C
C        0.027    0.527    0.919     C
N        0.027    0.919    0.527     N
Cd       0.125    0.625    0.625    Cd
N        0.419    0.527    0.527     N
C        0.581    0.473    0.473     C
Cd       0.875    0.375    0.375    Cd
C        0.973    0.081    0.473     C
N        0.973    0.473    0.081     N
N        0.973    0.473    0.473     N
