data_I
_chemical_name_common  '/home/zhangsd/repos/MofS-CGCNN/ML/data/SSD/clean_cifs/KAGCAY_charged'
_cell_length_a 21.35140
_cell_length_b 21.35140
_cell_length_c 21.35140
_cell_angle_alpha 60.00000
_cell_angle_beta  60.00000
_cell_angle_gamma 60.00000
_space_group_name_H-M_alt      'P 1'


loop_
_space_group_symop_operation_xyz
  'x, y, z' 

loop_
_atom_site_label
_atom_site_fract_x
_atom_site_fract_y
_atom_site_fract_z
_atom_site_type_symbol
H       0.0036   0.2462   0.8566     H
H       0.0036   0.8566   0.8936     H
H       0.0036   0.8936   0.2462     H
C       0.0296     0.25     0.75     C
C       0.0296     0.75   0.9704     C
C       0.0296   0.9704     0.25     C
C       0.0401   0.2477   0.8081     C
C       0.0401   0.8081   0.9041     C
C       0.0401   0.9041   0.2477     C
C       0.0406     0.25   0.9594     C
C       0.0406     0.75     0.25     C
C       0.0406   0.9594     0.75     C
O       0.0423   0.3159   0.9077     O
O       0.0423   0.7341   0.3159     O
O       0.0423   0.9077   0.7341     O
O       0.0923   0.1841   0.9577     O
O       0.0923   0.7659   0.1841     O
O       0.0923   0.9577   0.7659     O
C       0.0959   0.2523   0.6919     C
C       0.0959   0.6919   0.9599     C
C       0.0959   0.9599   0.2523     C
H       0.1064   0.2538   0.6434     H
H       0.1064   0.6434   0.9964     H
H       0.1064   0.9964   0.2538     H
N       0.1105   0.2479   0.7861     N
N       0.1105   0.7861   0.8555     N
N       0.1105   0.8555   0.2479     N
H       0.1434   0.2538   0.9964     H
H       0.1434   0.6064   0.2538     H
H       0.1434   0.9964   0.6064     H
N       0.1445   0.2521   0.7139     N
N       0.1445   0.7139   0.8895     N
N       0.1445   0.8895   0.2521     N
Cu     0.16013     0.25  0.83987    Cu
Cu     0.16013     0.75     0.25    Cu
Cu     0.16013  0.83987     0.75    Cu
O       0.1841   0.0923   0.4577     O
O       0.1841   0.2659   0.0923     O
O       0.1841   0.4577   0.2659     O
C       0.1919   0.2523   0.9599     C
C       0.1919   0.5959   0.2523     C
C       0.1919   0.9599   0.5959     C
N       0.2139   0.2521   0.8895     N
N       0.2139   0.6445   0.2521     N
N       0.2139   0.8895   0.6445     N
O       0.2341   0.3159   0.5423     O
O       0.2341   0.5423   0.9077     O
O       0.2341   0.9077   0.3159     O
H       0.2462   0.0036   0.3566     H
H       0.2462   0.3566   0.3936     H
H       0.2462   0.3936   0.0036     H
C       0.2477   0.0401   0.3081     C
C       0.2477   0.3081   0.4041     C
C       0.2477   0.4041   0.0401     C
N       0.2479   0.1105   0.2861     N
N       0.2479   0.2861   0.3555     N
N       0.2479   0.3555   0.1105     N
C         0.25   0.0296     0.25     C
C         0.25   0.0406   0.4594     C
Cu        0.25  0.16013  0.33987    Cu
C         0.25     0.25   0.0406     C
Cu        0.25     0.25  0.16013    Cu
O         0.25     0.25     0.25     O
C         0.25     0.25   0.4704     C
C         0.25     0.25   0.5406     C
Cu        0.25     0.25  0.66013    Cu
O         0.25     0.25     0.75     O
C         0.25     0.25   0.9704     C
Cu        0.25  0.33987     0.25    Cu
C         0.25   0.4594     0.25     C
C         0.25   0.4704   0.0296     C
C         0.25   0.5296     0.25     C
C         0.25   0.5406   0.9594     C
Cu        0.25  0.66013  0.83987    Cu
O         0.25     0.75     0.25     O
O         0.25     0.75     0.75     O
Cu        0.25  0.83987     0.25    Cu
C         0.25   0.9594     0.25     C
C         0.25   0.9704   0.5296     C
N       0.2521   0.1445   0.2139     N
N       0.2521   0.2139   0.3895     N
N       0.2521   0.3895   0.1445     N
C       0.2523   0.0959   0.1919     C
C       0.2523   0.1919   0.4599     C
C       0.2523   0.4599   0.0959     C
H       0.2538   0.1064   0.1434     H
H       0.2538   0.1434   0.4964     H
H       0.2538   0.4964   0.1064     H
O       0.2659   0.1841   0.5923     O
O       0.2659   0.5923   0.9577     O
O       0.2659   0.9577   0.1841     O
N       0.2861   0.2479   0.8555     N
N       0.2861   0.6105   0.2479     N
N       0.2861   0.8555   0.6105     N
C       0.3081   0.2477   0.9041     C
C       0.3081   0.5401   0.2477     C
C       0.3081   0.9041   0.5401     C
O       0.3159   0.0423   0.4077     O
O       0.3159   0.2341   0.0423     O
O       0.3159   0.4077   0.2341     O
Cu     0.33987     0.25     0.75    Cu
Cu     0.33987  0.66013     0.25    Cu
Cu     0.33987     0.75  0.66013    Cu
N       0.3555   0.2479   0.6105     N
N       0.3555   0.6105   0.7861     N
N       0.3555   0.7861   0.2479     N
H       0.3566   0.2462   0.8936     H
H       0.3566   0.5036   0.2462     H
H       0.3566   0.8936   0.5036     H
N       0.3895   0.2521   0.6445     N
N       0.3895   0.6445   0.7139     N
N       0.3895   0.7139   0.2521     N
H       0.3936   0.2462   0.5036     H
H       0.3936   0.5036   0.8566     H
H       0.3936   0.8566   0.2462     H
C       0.4041   0.2477   0.5401     C
C       0.4041   0.5401   0.8081     C
C       0.4041   0.8081   0.2477     C
O       0.4077   0.3159   0.7341     O
O       0.4077   0.5423   0.3159     O
O       0.4077   0.7341   0.5423     O
O       0.4577   0.1841   0.7659     O
O       0.4577   0.5923   0.1841     O
O       0.4577   0.7659   0.5923     O
C       0.4594     0.25     0.75     C
C       0.4594   0.5406     0.25     C
C       0.4594     0.75   0.5406     C
C       0.4599   0.2523   0.5959     C
C       0.4599   0.5959   0.6919     C
C       0.4599   0.6919   0.2523     C
C       0.4704     0.25   0.5296     C
C       0.4704   0.5296     0.75     C
C       0.4704     0.75     0.25     C
H       0.4964   0.2538   0.6064     H
H       0.4964   0.6064   0.6434     H
H       0.4964   0.6434   0.2538     H
H       0.5036   0.3566   0.7462     H
H       0.5036   0.3936   0.3566     H
H       0.5036   0.7462   0.3936     H
C       0.5296     0.25     0.75     C
C       0.5296   0.4704     0.25     C
C       0.5296     0.75   0.4704     C
C       0.5401   0.3081   0.7477     C
C       0.5401   0.4041   0.3081     C
C       0.5401   0.7477   0.4041     C
C       0.5406     0.25   0.4594     C
C       0.5406   0.4594     0.75     C
C       0.5406     0.75     0.25     C
O       0.5423   0.2341   0.4077     O
O       0.5423   0.4077   0.8159     O
O       0.5423   0.8159   0.2341     O
O       0.5923   0.2659   0.4577     O
O       0.5923   0.4577   0.6841     O
O       0.5923   0.6841   0.2659     O
C       0.5959   0.1919   0.7523     C
C       0.5959   0.4599   0.1919     C
C       0.5959   0.7523   0.4599     C
H       0.6064   0.1434   0.7538     H
H       0.6064   0.4964   0.1434     H
H       0.6064   0.7538   0.4964     H
N       0.6105   0.2861   0.7479     N
N       0.6105   0.3555   0.2861     N
N       0.6105   0.7479   0.3555     N
H       0.6434   0.1064   0.4964     H
H       0.6434   0.4964   0.7538     H
H       0.6434   0.7538   0.1064     H
N       0.6445   0.2139   0.7521     N
N       0.6445   0.3895   0.2139     N
N       0.6445   0.7521   0.3895     N
Cu     0.66013     0.25  0.33987    Cu
Cu     0.66013  0.33987     0.75    Cu
Cu     0.66013     0.75     0.25    Cu
O       0.6841   0.5923   0.7659     O
O       0.6841   0.7659   0.9577     O
O       0.6841   0.9577   0.5923     O
C       0.6919   0.0959   0.4599     C
C       0.6919   0.4599   0.7523     C
C       0.6919   0.7523   0.0959     C
N       0.7139   0.1445   0.3895     N
N       0.7139   0.3895   0.7521     N
N       0.7139   0.7521   0.1445     N
O       0.7341   0.0423   0.8159     O
O       0.7341   0.4077   0.0423     O
O       0.7341   0.8159   0.4077     O
H       0.7462   0.5036   0.8936     H
H       0.7462   0.8566   0.5036     H
H       0.7462   0.8936   0.8566     H
C       0.7477   0.5401   0.9041     C
C       0.7477   0.8081   0.5401     C
C       0.7477   0.9041   0.8081     C
N       0.7479   0.6105   0.8555     N
N       0.7479   0.7861   0.6105     N
N       0.7479   0.8555   0.7861     N
C         0.75   0.0296   0.4704     C
C         0.75   0.0406     0.75     C
Cu        0.75  0.16013     0.75    Cu
O         0.75     0.25     0.25     O
O         0.75     0.25     0.75     O
Cu        0.75  0.33987  0.16013    Cu
C         0.75   0.4594   0.0406     C
C         0.75   0.4704     0.75     C
C         0.75   0.5296   0.9704     C
C         0.75   0.5406     0.75     C
Cu        0.75  0.66013     0.75    Cu
C         0.75     0.75   0.0296     C
O         0.75     0.75     0.25     O
Cu        0.75     0.75  0.33987    Cu
C         0.75     0.75   0.4594     C
C         0.75     0.75   0.5296     C
O         0.75     0.75     0.75     O
Cu        0.75     0.75  0.83987    Cu
C         0.75     0.75   0.9594     C
Cu        0.75  0.83987  0.66013    Cu
C         0.75   0.9594   0.5406     C
C         0.75   0.9704     0.75     C
N       0.7521   0.6445   0.8895     N
N       0.7521   0.7139   0.6445     N
N       0.7521   0.8895   0.7139     N
C       0.7523   0.5959   0.9599     C
C       0.7523   0.6919   0.5959     C
C       0.7523   0.9599   0.6919     C
H       0.7538   0.6064   0.9964     H
H       0.7538   0.6434   0.6064     H
H       0.7538   0.9964   0.6434     H
O       0.7659   0.0923   0.6841     O
O       0.7659   0.4577   0.0923     O
O       0.7659   0.6841   0.4577     O
N       0.7861   0.1105   0.3555     N
N       0.7861   0.3555   0.7479     N
N       0.7861   0.7479   0.1105     N
C       0.8081   0.0401   0.4041     C
C       0.8081   0.4041   0.7477     C
C       0.8081   0.7477   0.0401     C
O       0.8159   0.5423   0.7341     O
O       0.8159   0.7341   0.9077     O
O       0.8159   0.9077   0.5423     O
Cu     0.83987  0.16013     0.25    Cu
Cu     0.83987     0.25     0.75    Cu
Cu     0.83987     0.75  0.16013    Cu
N       0.8555   0.1105   0.7479     N
N       0.8555   0.2861   0.1105     N
N       0.8555   0.7479   0.2861     N
H       0.8566   0.0036   0.3936     H
H       0.8566   0.3936   0.7462     H
H       0.8566   0.7462   0.0036     H
N       0.8895   0.1445   0.7521     N
N       0.8895   0.2139   0.1445     N
N       0.8895   0.7521   0.2139     N
H       0.8936   0.0036   0.7462     H
H       0.8936   0.3566   0.0036     H
H       0.8936   0.7462   0.3566     H
C       0.9041   0.0401   0.7477     C
C       0.9041   0.3081   0.0401     C
C       0.9041   0.7477   0.3081     C
O       0.9077   0.0423   0.2341     O
O       0.9077   0.2341   0.8159     O
O       0.9077   0.8159   0.0423     O
O       0.9577   0.0923   0.2659     O
O       0.9577   0.2659   0.6841     O
O       0.9577   0.6841   0.0923     O
C       0.9594   0.0406     0.25     C
C       0.9594     0.25     0.75     C
C       0.9594     0.75   0.0406     C
C       0.9599   0.0959   0.7523     C
C       0.9599   0.1919   0.0959     C
C       0.9599   0.7523   0.1919     C
C       0.9704   0.0296     0.75     C
C       0.9704     0.25   0.0296     C
C       0.9704     0.75     0.25     C
H       0.9964   0.1064   0.7538     H
H       0.9964   0.1434   0.1064     H
H       0.9964   0.7538   0.1434     H
