data_I
_chemical_name_common  '/home/zhangsd/repos/MofS-CGCNN/ML/data/SSD/clean_cifs/KAHYID_clean'
_cell_length_a 30.55400
_cell_length_b 16.30600
_cell_length_c 21.65600
_cell_angle_alpha 90.00000
_cell_angle_beta  134.43700
_cell_angle_gamma 90.00000
_space_group_name_H-M_alt      'P 1'


loop_
_space_group_symop_operation_xyz
  'x, y, z' 

loop_
_atom_site_label
_atom_site_fract_x
_atom_site_fract_y
_atom_site_fract_z
_atom_site_type_symbol
H       0.0162   0.3411   0.4966     H
H       0.0162   0.6589   0.9966     H
O       0.0167    0.199   0.0876     O
O       0.0167    0.801   0.5876     O
C       0.0397    0.199    0.459     C
C       0.0397    0.801    0.959     C
C       0.0583   0.3353    0.528     C
C       0.0583   0.6647    0.028     C
O       0.0677   0.1421   0.4594     O
O       0.0677   0.8579   0.9594     O
C       0.0781   0.2669   0.5177     C
C       0.0781   0.7331   0.0177     C
H        0.085   0.4431   0.5905     H
H        0.085   0.5569   0.0905     H
C       0.0988   0.3953   0.5833     C
C       0.0988   0.6047   0.0833     C
Gd     0.10982  0.11952   0.1969    Gd
Gd     0.10982  0.88048   0.6969    Gd
O       0.1331   0.0129   0.1402     O
O       0.1331   0.9871   0.6402     O
N       0.1383   0.2585   0.5627     N
N       0.1383   0.7415   0.0627     N
O       0.1466    0.126    0.337     O
O       0.1466    0.874    0.837     O
C       0.1591   0.3869   0.6282     C
C       0.1591   0.6131   0.1282     C
C        0.164     0.05    0.682     C
C        0.164     0.95    0.182     C
N       0.1689   0.0057   0.7912     N
N       0.1689   0.9943   0.2912     N
C        0.172    0.061     0.39     C
C        0.172    0.939     0.89     C
Gd     0.17443  0.13065    0.545    Gd
Gd     0.17443  0.86935    0.045    Gd
C       0.1788   0.3185   0.6179     C
C       0.1788   0.6815   0.1179     C
O       0.1795   0.1001   0.6557     O
O       0.1795   0.8999   0.1557     O
C       0.1836   0.0654   0.7647     C
C       0.1836   0.9346   0.2647     C
O       0.1862    0.061    0.462     O
O       0.1862    0.939    0.962     O
H       0.1874   0.4288   0.6669     H
H       0.1874   0.5712   0.1669     H
C       0.1885    0.011   0.8701     C
C       0.1885    0.989   0.3701     C
O       0.2176   0.1502   0.2864     O
O       0.2176   0.8498   0.7864     O
C       0.2181   0.1305    0.817     C
C       0.2181   0.8695    0.317     C
C        0.223   0.0761   0.9224     C
C        0.223   0.9239   0.4224     C
H       0.2284   0.1723   0.7984     H
H       0.2284   0.8277   0.2984     H
H       0.2367   0.0798   0.9775     H
H       0.2367   0.9202   0.4775     H
C       0.2377   0.1358   0.8958     C
C       0.2377   0.8642   0.3958     C
H       0.2382   0.3187   0.0676     H
H       0.2382   0.6813   0.5676     H
C        0.242   0.2981   0.6624     C
C        0.242   0.7019   0.1624     C
O       0.2466   0.2701   0.3519     O
O       0.2466   0.7299   0.8519     O
O       0.2534   0.2299   0.6481     O
O       0.2534   0.7701   0.1481     O
C        0.258   0.2019   0.3376     C
C        0.258   0.7981   0.8376     C
H       0.2618   0.1813   0.9324     H
H       0.2618   0.8187   0.4324     H
C       0.2623   0.3642   0.1042     C
C       0.2623   0.6358   0.6042     C
H       0.2633   0.4202   0.0225     H
H       0.2633   0.5798   0.5225     H
H       0.2716   0.3277   0.2016     H
H       0.2716   0.6723   0.7016     H
C        0.277   0.4239   0.0776     C
C        0.277   0.5761   0.5776     C
C       0.2819   0.3695    0.183     C
C       0.2819   0.6305    0.683     C
O       0.2824   0.3498   0.7136     O
O       0.2824   0.6502   0.2136     O
C       0.3115    0.489   0.1299     C
C       0.3115    0.511   0.6299     C
H       0.3126   0.0712   0.3331     H
H       0.3126   0.9288   0.8331     H
O       0.3138    0.439    0.538     O
O       0.3138    0.561    0.038     O
C       0.3164   0.4346   0.2353     C
C       0.3164   0.5654   0.7353     C
O       0.3205   0.3999   0.3443     O
O       0.3205   0.6001   0.8443     O
C       0.3212   0.1815   0.3821     C
C       0.3212   0.8185   0.8821     C
Gd     0.32557  0.36935    0.455    Gd
Gd     0.32557  0.63065    0.955    Gd
C        0.328    0.439     0.61     C
C        0.328    0.561     0.11     C
N       0.3311   0.4943   0.2088     N
N       0.3311   0.5057   0.7088     N
C        0.336     0.45    0.318     C
C        0.336     0.55    0.818     C
C       0.3409   0.1131   0.3718     C
C       0.3409   0.8869   0.8718     C
O       0.3534    0.374    0.663     O
O       0.3534    0.626    0.163     O
N       0.3617   0.2415   0.4373     N
N       0.3617   0.7585   0.9373     N
O       0.3669   0.4871   0.8598     O
O       0.3669   0.5129   0.3598     O
Gd     0.39018  0.38048   0.8031    Gd
Gd     0.39018  0.61952   0.3031    Gd
C       0.4012   0.1047   0.4167     C
C       0.4012   0.8953   0.9167     C
H        0.415   0.0569   0.4095     H
H        0.415   0.9431   0.9095     H
C       0.4219   0.2331   0.4823     C
C       0.4219   0.7669   0.9823     C
O       0.4323   0.3579   0.5406     O
O       0.4323   0.6421   0.0406     O
C       0.4417   0.1647    0.472     C
C       0.4417   0.8353    0.972     C
C       0.4603    0.301    0.541     C
C       0.4603    0.699    0.041     C
O       0.4833    0.301   0.9124     O
O       0.4833    0.699   0.4124     O
H       0.4838   0.1589   0.5034     H
H       0.4838   0.8411   0.0034     H
H       0.5162   0.1589   0.9966     H
H       0.5162   0.8411   0.4966     H
O       0.5167    0.301   0.5876     O
O       0.5167    0.699   0.0876     O
C       0.5397    0.301    0.959     C
C       0.5397    0.699    0.459     C
C       0.5583   0.1647    0.028     C
C       0.5583   0.8353    0.528     C
O       0.5677   0.3579   0.9594     O
O       0.5677   0.6421   0.4594     O
C       0.5781   0.2331   0.0177     C
C       0.5781   0.7669   0.5177     C
H        0.585   0.0569   0.0905     H
H        0.585   0.9431   0.5905     H
C       0.5988   0.1047   0.0833     C
C       0.5988   0.8953   0.5833     C
Gd     0.60982  0.38048   0.6969    Gd
Gd     0.60982  0.61952   0.1969    Gd
O       0.6331   0.4871   0.6402     O
O       0.6331   0.5129   0.1402     O
N       0.6383   0.2415   0.0627     N
N       0.6383   0.7585   0.5627     N
O       0.6466    0.374    0.837     O
O       0.6466    0.626    0.337     O
C       0.6591   0.1131   0.1282     C
C       0.6591   0.8869   0.6282     C
C        0.664     0.45    0.182     C
C        0.664     0.55    0.682     C
N       0.6689   0.4943   0.2912     N
N       0.6689   0.5057   0.7912     N
C        0.672    0.439     0.89     C
C        0.672    0.561     0.39     C
Gd     0.67443  0.36935    0.045    Gd
Gd     0.67443  0.63065    0.545    Gd
C       0.6788   0.1815   0.1179     C
C       0.6788   0.8185   0.6179     C
O       0.6795   0.3999   0.1557     O
O       0.6795   0.6001   0.6557     O
C       0.6836   0.4346   0.2647     C
C       0.6836   0.5654   0.7647     C
O       0.6862    0.439    0.962     O
O       0.6862    0.561    0.462     O
H       0.6874   0.0712   0.1669     H
H       0.6874   0.9288   0.6669     H
C       0.6885    0.489   0.3701     C
C       0.6885    0.511   0.8701     C
O       0.7176   0.3498   0.7864     O
O       0.7176   0.6502   0.2864     O
C       0.7181   0.3695    0.317     C
C       0.7181   0.6305    0.817     C
C        0.723   0.4239   0.4224     C
C        0.723   0.5761   0.9224     C
H       0.7284   0.3277   0.2984     H
H       0.7284   0.6723   0.7984     H
H       0.7367   0.4202   0.4775     H
H       0.7367   0.5798   0.9775     H
C       0.7377   0.3642   0.3958     C
C       0.7377   0.6358   0.8958     C
H       0.7382   0.1813   0.5676     H
H       0.7382   0.8187   0.0676     H
C        0.742   0.2019   0.1624     C
C        0.742   0.7981   0.6624     C
O       0.7466   0.2299   0.8519     O
O       0.7466   0.7701   0.3519     O
O       0.7534   0.2701   0.1481     O
O       0.7534   0.7299   0.6481     O
C        0.758   0.2981   0.8376     C
C        0.758   0.7019   0.3376     C
H       0.7618   0.3187   0.4324     H
H       0.7618   0.6813   0.9324     H
C       0.7623   0.1358   0.6042     C
C       0.7623   0.8642   0.1042     C
H       0.7633   0.0798   0.5225     H
H       0.7633   0.9202   0.0225     H
H       0.7716   0.1723   0.7016     H
H       0.7716   0.8277   0.2016     H
C        0.777   0.0761   0.5776     C
C        0.777   0.9239   0.0776     C
C       0.7819   0.1305    0.683     C
C       0.7819   0.8695    0.183     C
O       0.7824   0.1502   0.2136     O
O       0.7824   0.8498   0.7136     O
C       0.8115    0.011   0.6299     C
C       0.8115    0.989   0.1299     C
H       0.8126   0.4288   0.8331     H
H       0.8126   0.5712   0.3331     H
O       0.8138    0.061    0.038     O
O       0.8138    0.939    0.538     O
C       0.8164   0.0654   0.7353     C
C       0.8164   0.9346   0.2353     C
O       0.8205   0.1001   0.8443     O
O       0.8205   0.8999   0.3443     O
C       0.8212   0.3185   0.8821     C
C       0.8212   0.6815   0.3821     C
Gd     0.82557  0.13065    0.955    Gd
Gd     0.82557  0.86935    0.455    Gd
C        0.828    0.061     0.11     C
C        0.828    0.939     0.61     C
N       0.8311   0.0057   0.7088     N
N       0.8311   0.9943   0.2088     N
C        0.836     0.05    0.818     C
C        0.836     0.95    0.318     C
C       0.8409   0.3869   0.8718     C
C       0.8409   0.6131   0.3718     C
O       0.8534    0.126    0.163     O
O       0.8534    0.874    0.663     O
N       0.8617   0.2585   0.9373     N
N       0.8617   0.7415   0.4373     N
O       0.8669   0.0129   0.3598     O
O       0.8669   0.9871   0.8598     O
Gd     0.89018  0.11952   0.3031    Gd
Gd     0.89018  0.88048   0.8031    Gd
C       0.9012   0.3953   0.9167     C
C       0.9012   0.6047   0.4167     C
H        0.915   0.4431   0.9095     H
H        0.915   0.5569   0.4095     H
C       0.9219   0.2669   0.9823     C
C       0.9219   0.7331   0.4823     C
O       0.9323   0.1421   0.0406     O
O       0.9323   0.8579   0.5406     O
C       0.9417   0.3353    0.972     C
C       0.9417   0.6647    0.472     C
C       0.9603    0.199    0.041     C
C       0.9603    0.801    0.541     C
O       0.9833    0.199   0.4124     O
O       0.9833    0.801   0.9124     O
H       0.9838   0.3411   0.0034     H
H       0.9838   0.6589   0.5034     H
