data_I
_chemical_name_common  '/home/zhangsd/repos/MofS-CGCNN/ML/data/SSD/clean_cifs/KAHYOJ_clean'
_cell_length_a 30.34200
_cell_length_b 16.21900
_cell_length_c 21.78700
_cell_angle_alpha 90.00000
_cell_angle_beta  134.13000
_cell_angle_gamma 90.00000
_space_group_name_H-M_alt      'P 1'


loop_
_space_group_symop_operation_xyz
  'x, y, z' 

loop_
_atom_site_label
_atom_site_fract_x
_atom_site_fract_y
_atom_site_fract_z
_atom_site_type_symbol
H       0.0142   0.3449   0.4898     H
H       0.0142   0.6551   0.9898     H
O       0.0178   0.2029   0.0932     O
O       0.0178   0.7971   0.5932     O
C        0.038   0.1985   0.4531     C
C        0.038   0.8015   0.9531     C
C        0.056   0.3372   0.5236     C
C        0.056   0.6628   0.0236     C
O       0.0657    0.139   0.4567     O
O       0.0657    0.861   0.9567     O
C       0.0776   0.2674   0.5151     C
C       0.0776   0.7326   0.0151     C
H       0.0858   0.4408   0.5946     H
H       0.0858   0.5592   0.0946     H
C       0.0985   0.3955    0.584     C
C       0.0985   0.6045    0.084     C
Tb     0.11072  0.12213  0.20103    Tb
Tb     0.11072  0.87787  0.70103    Tb
O       0.1367    0.019   0.1472     O
O       0.1367    0.981   0.6472     O
N       0.1388   0.2566   0.5615     N
N       0.1388   0.7434   0.0615     N
O       0.1515   0.1247   0.3446     O
O       0.1515   0.8753   0.8446     O
C       0.1595   0.3861   0.6283     C
C       0.1595   0.6139   0.1283     C
C        0.163   0.0467   0.6813     C
C        0.163   0.9533   0.1813     C
N       0.1677   0.0023   0.7912     N
N       0.1677   0.9977   0.2912     N
Tb      0.1722  0.12932  0.54317    Tb
Tb      0.1722  0.87068  0.04317    Tb
C       0.1727   0.0641   0.3922     C
C       0.1727   0.9359   0.8922     C
O       0.1771   0.1012   0.6556     O
O       0.1771   0.8988   0.1556     O
O       0.1772   0.0586   0.4529     O
O       0.1772   0.9414   0.9529     O
C       0.1775   0.3156   0.6154     C
C       0.1775   0.6844   0.1154     C
C       0.1839   0.0625   0.7679     C
C       0.1839   0.9375   0.2679     C
H        0.188   0.4266   0.6662     H
H        0.188   0.5734   0.1662     H
C       0.1881   0.0091   0.8696     C
C       0.1881   0.9909   0.3696     C
O       0.2172   0.1525   0.2862     O
O       0.2172   0.8475   0.7862     O
C       0.2186   0.1305   0.8173     C
C       0.2186   0.8695   0.3173     C
C       0.2237   0.0734   0.9237     C
C       0.2237   0.9266   0.4237     C
H       0.2283   0.1711   0.7982     H
H       0.2283   0.8289   0.2982     H
H       0.2377   0.0746   0.9776     H
H       0.2377   0.9254   0.4776     H
H       0.2381     0.32   0.0647     H
H       0.2381     0.68   0.5647     H
C       0.2389   0.1353   0.8994     C
C       0.2389   0.8647   0.3994     C
C       0.2427   0.2954   0.6624     C
C       0.2427   0.7046   0.1624     C
O       0.2482   0.2726   0.3542     O
O       0.2482   0.7274   0.8542     O
O       0.2518   0.2274   0.6458     O
O       0.2518   0.7726   0.1458     O
C       0.2573   0.2046   0.3376     C
C       0.2573   0.7954   0.8376     C
C       0.2611   0.3647   0.1006     C
C       0.2611   0.6353   0.6006     C
H       0.2619     0.18   0.9353     H
H       0.2619     0.82   0.4353     H
H       0.2623   0.4254   0.0224     H
H       0.2623   0.5746   0.5224     H
H       0.2717   0.3289   0.2018     H
H       0.2717   0.6711   0.7018     H
C       0.2763   0.4266   0.0763     C
C       0.2763   0.5734   0.5763     C
C       0.2814   0.3695   0.1827     C
C       0.2814   0.6305   0.6827     C
O       0.2828   0.3475   0.7138     O
O       0.2828   0.6525   0.2138     O
C       0.3119   0.4909   0.1304     C
C       0.3119   0.5091   0.6304     C
H        0.312   0.0734   0.3338     H
H        0.312   0.9266   0.8338     H
C       0.3161   0.4375   0.2321     C
C       0.3161   0.5625   0.7321     C
C       0.3225   0.1844   0.3846     C
C       0.3225   0.8156   0.8846     C
O       0.3228   0.4414   0.5471     O
O       0.3228   0.5586   0.0471     O
O       0.3229   0.3988   0.3444     O
O       0.3229   0.6012   0.8444     O
C       0.3273   0.4359   0.6078     C
C       0.3273   0.5641   0.1078     C
Tb      0.3278  0.37068  0.45683    Tb
Tb      0.3278  0.62932  0.95683    Tb
N       0.3323   0.4977   0.2088     N
N       0.3323   0.5023   0.7088     N
C        0.337   0.4533   0.3187     C
C        0.337   0.5467   0.8187     C
C       0.3405   0.1139   0.3717     C
C       0.3405   0.8861   0.8717     C
O       0.3485   0.3753   0.6554     O
O       0.3485   0.6247   0.1554     O
N       0.3612   0.2434   0.4385     N
N       0.3612   0.7566   0.9385     N
O       0.3633    0.481   0.8528     O
O       0.3633    0.519   0.3528     O
Tb     0.38928  0.37787  0.79897    Tb
Tb     0.38928  0.62213  0.29897    Tb
C       0.4015   0.1045    0.416     C
C       0.4015   0.8955    0.916     C
H       0.4142   0.0592   0.4054     H
H       0.4142   0.9408   0.9054     H
C       0.4224   0.2326   0.4849     C
C       0.4224   0.7674   0.9849     C
O       0.4343    0.361   0.5433     O
O       0.4343    0.639   0.0433     O
C        0.444   0.1628   0.4764     C
C        0.444   0.8372   0.9764     C
C        0.462   0.3015   0.5469     C
C        0.462   0.6985   0.0469     C
O       0.4822   0.2971   0.9068     O
O       0.4822   0.7029   0.4068     O
H       0.4858   0.1551   0.5102     H
H       0.4858   0.8449   0.0102     H
H       0.5142   0.1551   0.9898     H
H       0.5142   0.8449   0.4898     H
O       0.5178   0.2971   0.5932     O
O       0.5178   0.7029   0.0932     O
C        0.538   0.3015   0.9531     C
C        0.538   0.6985   0.4531     C
C        0.556   0.1628   0.0236     C
C        0.556   0.8372   0.5236     C
O       0.5657    0.361   0.9567     O
O       0.5657    0.639   0.4567     O
C       0.5776   0.2326   0.0151     C
C       0.5776   0.7674   0.5151     C
H       0.5858   0.0592   0.0946     H
H       0.5858   0.9408   0.5946     H
C       0.5985   0.1045    0.084     C
C       0.5985   0.8955    0.584     C
Tb     0.61072  0.37787  0.70103    Tb
Tb     0.61072  0.62213  0.20103    Tb
O       0.6367    0.481   0.6472     O
O       0.6367    0.519   0.1472     O
N       0.6388   0.2434   0.0615     N
N       0.6388   0.7566   0.5615     N
O       0.6515   0.3753   0.8446     O
O       0.6515   0.6247   0.3446     O
C       0.6595   0.1139   0.1283     C
C       0.6595   0.8861   0.6283     C
C        0.663   0.4533   0.1813     C
C        0.663   0.5467   0.6813     C
N       0.6677   0.4977   0.2912     N
N       0.6677   0.5023   0.7912     N
Tb      0.6722  0.37068  0.04317    Tb
Tb      0.6722  0.62932  0.54317    Tb
C       0.6727   0.4359   0.8922     C
C       0.6727   0.5641   0.3922     C
O       0.6771   0.3988   0.1556     O
O       0.6771   0.6012   0.6556     O
O       0.6772   0.4414   0.9529     O
O       0.6772   0.5586   0.4529     O
C       0.6775   0.1844   0.1154     C
C       0.6775   0.8156   0.6154     C
C       0.6839   0.4375   0.2679     C
C       0.6839   0.5625   0.7679     C
H        0.688   0.0734   0.1662     H
H        0.688   0.9266   0.6662     H
C       0.6881   0.4909   0.3696     C
C       0.6881   0.5091   0.8696     C
O       0.7172   0.3475   0.7862     O
O       0.7172   0.6525   0.2862     O
C       0.7186   0.3695   0.3173     C
C       0.7186   0.6305   0.8173     C
C       0.7237   0.4266   0.4237     C
C       0.7237   0.5734   0.9237     C
H       0.7283   0.3289   0.2982     H
H       0.7283   0.6711   0.7982     H
H       0.7377   0.4254   0.4776     H
H       0.7377   0.5746   0.9776     H
H       0.7381     0.18   0.5647     H
H       0.7381     0.82   0.0647     H
C       0.7389   0.3647   0.3994     C
C       0.7389   0.6353   0.8994     C
C       0.7427   0.2046   0.1624     C
C       0.7427   0.7954   0.6624     C
O       0.7482   0.2274   0.8542     O
O       0.7482   0.7726   0.3542     O
O       0.7518   0.2726   0.1458     O
O       0.7518   0.7274   0.6458     O
C       0.7573   0.2954   0.8376     C
C       0.7573   0.7046   0.3376     C
C       0.7611   0.1353   0.6006     C
C       0.7611   0.8647   0.1006     C
H       0.7619     0.32   0.4353     H
H       0.7619     0.68   0.9353     H
H       0.7623   0.0746   0.5224     H
H       0.7623   0.9254   0.0224     H
H       0.7717   0.1711   0.7018     H
H       0.7717   0.8289   0.2018     H
C       0.7763   0.0734   0.5763     C
C       0.7763   0.9266   0.0763     C
C       0.7814   0.1305   0.6827     C
C       0.7814   0.8695   0.1827     C
O       0.7828   0.1525   0.2138     O
O       0.7828   0.8475   0.7138     O
C       0.8119   0.0091   0.6304     C
C       0.8119   0.9909   0.1304     C
H        0.812   0.4266   0.8338     H
H        0.812   0.5734   0.3338     H
C       0.8161   0.0625   0.7321     C
C       0.8161   0.9375   0.2321     C
C       0.8225   0.3156   0.8846     C
C       0.8225   0.6844   0.3846     C
O       0.8228   0.0586   0.0471     O
O       0.8228   0.9414   0.5471     O
O       0.8229   0.1012   0.8444     O
O       0.8229   0.8988   0.3444     O
C       0.8273   0.0641   0.1078     C
C       0.8273   0.9359   0.6078     C
Tb      0.8278  0.12932  0.95683    Tb
Tb      0.8278  0.87068  0.45683    Tb
N       0.8323   0.0023   0.7088     N
N       0.8323   0.9977   0.2088     N
C        0.837   0.0467   0.8187     C
C        0.837   0.9533   0.3187     C
C       0.8405   0.3861   0.8717     C
C       0.8405   0.6139   0.3717     C
O       0.8485   0.1247   0.1554     O
O       0.8485   0.8753   0.6554     O
N       0.8612   0.2566   0.9385     N
N       0.8612   0.7434   0.4385     N
O       0.8633    0.019   0.3528     O
O       0.8633    0.981   0.8528     O
Tb     0.88928  0.12213  0.29897    Tb
Tb     0.88928  0.87787  0.79897    Tb
C       0.9015   0.3955    0.916     C
C       0.9015   0.6045    0.416     C
H       0.9142   0.4408   0.9054     H
H       0.9142   0.5592   0.4054     H
C       0.9224   0.2674   0.9849     C
C       0.9224   0.7326   0.4849     C
O       0.9343    0.139   0.0433     O
O       0.9343    0.861   0.5433     O
C        0.944   0.3372   0.9764     C
C        0.944   0.6628   0.4764     C
C        0.962   0.1985   0.0469     C
C        0.962   0.8015   0.5469     C
O       0.9822   0.2029   0.4068     O
O       0.9822   0.7971   0.9068     O
H       0.9858   0.3449   0.0102     H
H       0.9858   0.6551   0.5102     H
