data_I
_chemical_name_common  '/home/zhangsd/repos/MofS-CGCNN/ML/data/SSD/clean_cifs/KAHYUP_clean'
_cell_length_a 30.41800
_cell_length_b 16.30200
_cell_length_c 21.78000
_cell_angle_alpha 90.00000
_cell_angle_beta  133.82600
_cell_angle_gamma 90.00000
_space_group_name_H-M_alt      'P 1'


loop_
_space_group_symop_operation_xyz
  'x, y, z' 

loop_
_atom_site_label
_atom_site_fract_x
_atom_site_fract_y
_atom_site_fract_z
_atom_site_type_symbol
H       0.0092    0.175   0.5232     H
H       0.0092    0.825   0.0232     H
O        0.026   0.3069   0.9541     O
O        0.026   0.6931   0.4541     O
C       0.0285   0.3138   0.6054     C
C       0.0285   0.6862   0.1054     C
C       0.0491    0.177    0.576     C
C       0.0491    0.823    0.076     C
O       0.0556   0.3784   0.6519     O
O       0.0556   0.6216   0.1519     O
C       0.0695   0.2416   0.6313     C
C       0.0695   0.7584   0.1313     C
H        0.078   0.0713   0.5662     H
H        0.078   0.9287   0.0662     H
C         0.09   0.1155   0.6019     C
C         0.09   0.8845   0.1019     C
Dy     0.12092  0.38037  0.04512    Dy
Dy     0.12092  0.61963  0.54512    Dy
N       0.1269   0.2471    0.708     N
N       0.1269   0.7529    0.208     N
O       0.1379   0.3907   0.9556     O
O       0.1379   0.6093   0.4556     O
O       0.1432   0.4776   0.1476     O
O       0.1432   0.5224   0.6476     O
C       0.1499   0.1199   0.6825     C
C       0.1499   0.8801   0.1825     C
Dy     0.16001   0.3713  0.80124    Dy
Dy     0.16001   0.6287  0.30124    Dy
C       0.1653    0.449   0.9556     C
C       0.1653    0.551   0.4556     C
C       0.1669   0.1861   0.7327     C
C       0.1669   0.8139   0.2327     C
C       0.1703   0.4551   0.6637     C
C       0.1703   0.5449   0.1637     C
N       0.1743   0.4917   0.5635     N
N       0.1743   0.5083   0.0635     N
O       0.1761   0.4538     0.91     O
O       0.1761   0.5462     0.41     O
H       0.1776   0.0781   0.7012     H
H       0.1776   0.9219   0.2012     H
O       0.1834   0.4012    0.718     O
O       0.1834   0.5988    0.218     O
C       0.1881   0.4354    0.617     C
C       0.1881   0.5646    0.117     C
C       0.1883   0.4805   0.5185     C
C       0.1883   0.5195   0.0185     C
C       0.2194   0.3641   0.6304     C
C       0.2194   0.6359   0.1304     C
C       0.2202   0.4132   0.5282     C
C       0.2202   0.5868   0.0282     C
O       0.2281   0.3507   0.1571     O
O       0.2281   0.6493   0.6571     O
H       0.2301   0.3252   0.6701     H
H       0.2301   0.6748   0.1701     H
H       0.2318   0.4091   0.4986     H
H       0.2318   0.5909   0.9986     H
C        0.232    0.201   0.8181     C
C        0.232    0.799   0.3181     C
C       0.2342   0.3523   0.5834     C
C       0.2342   0.6477   0.0834     C
O       0.2402   0.2663   0.8542     O
O       0.2402   0.7337   0.3542     O
H       0.2468   0.1957   0.4109     H
H       0.2468   0.8043   0.9109     H
H       0.2532   0.3043   0.5891     H
H       0.2532   0.6957   0.0891     H
O       0.2598   0.2337   0.1458     O
O       0.2598   0.7663   0.6458     O
C       0.2658   0.1477   0.4166     C
C       0.2658   0.8523   0.9166     C
C        0.268    0.299   0.1819     C
C        0.268    0.701   0.6819     C
H       0.2682   0.0909   0.5014     H
H       0.2682   0.9091   0.0014     H
H       0.2699   0.1748   0.3299     H
H       0.2699   0.8252   0.8299     H
O       0.2719   0.1493   0.8429     O
O       0.2719   0.8507   0.3429     O
C       0.2798   0.0868   0.4718     C
C       0.2798   0.9132   0.9718     C
C       0.2806   0.1359   0.3696     C
C       0.2806   0.8641   0.8696     C
C       0.3117   0.0195   0.4815     C
C       0.3117   0.9805   0.9815     C
C       0.3119   0.0646    0.383     C
C       0.3119   0.9354    0.883     C
O       0.3166   0.0988    0.282     O
O       0.3166   0.9012    0.782     O
H       0.3224   0.4219   0.2988     H
H       0.3224   0.5781   0.7988     H
O       0.3239   0.0462     0.09     O
O       0.3239   0.9538     0.59     O
N       0.3257   0.0083   0.4365     N
N       0.3257   0.9917   0.9365     N
C       0.3297   0.0449   0.3363     C
C       0.3297   0.9551   0.8363     C
C       0.3331   0.3139   0.2673     C
C       0.3331   0.6861   0.7673     C
C       0.3347    0.051   0.0444     C
C       0.3347    0.949   0.5444     C
Dy     0.33999   0.1287  0.19876    Dy
Dy     0.33999   0.8713  0.69876    Dy
C       0.3501   0.3801   0.3175     C
C       0.3501   0.6199   0.8175     C
O       0.3568   0.0224   0.8524     O
O       0.3568   0.9776   0.3524     O
O       0.3621   0.1093   0.0444     O
O       0.3621   0.8907   0.5444     O
N       0.3731   0.2529    0.292     N
N       0.3731   0.7471    0.792     N
Dy     0.37908  0.11963  0.95488    Dy
Dy     0.37908  0.88037  0.45488    Dy
C         0.41   0.3845   0.3981     C
C         0.41   0.6155   0.8981     C
H        0.422   0.4287   0.4338     H
H        0.422   0.5713   0.9338     H
C       0.4305   0.2584   0.3687     C
C       0.4305   0.7416   0.8687     C
O       0.4444   0.1216   0.3481     O
O       0.4444   0.8784   0.8481     O
C       0.4509    0.323    0.424     C
C       0.4509    0.677    0.924     C
C       0.4715   0.1862   0.3946     C
C       0.4715   0.8138   0.8946     C
O        0.474   0.1931   0.0459     O
O        0.474   0.8069   0.5459     O
H       0.4908    0.325   0.4768     H
H       0.4908    0.675   0.9768     H
H       0.5092    0.325   0.0232     H
H       0.5092    0.675   0.5232     H
O        0.526   0.1931   0.4541     O
O        0.526   0.8069   0.9541     O
C       0.5285   0.1862   0.1054     C
C       0.5285   0.8138   0.6054     C
C       0.5491    0.323    0.076     C
C       0.5491    0.677    0.576     C
O       0.5556   0.1216   0.1519     O
O       0.5556   0.8784   0.6519     O
C       0.5695   0.2584   0.1313     C
C       0.5695   0.7416   0.6313     C
H        0.578   0.4287   0.0662     H
H        0.578   0.5713   0.5662     H
C         0.59   0.3845   0.1019     C
C         0.59   0.6155   0.6019     C
Dy     0.62092  0.11963  0.54512    Dy
Dy     0.62092  0.88037  0.04512    Dy
N       0.6269   0.2529    0.208     N
N       0.6269   0.7471    0.708     N
O       0.6379   0.1093   0.4556     O
O       0.6379   0.8907   0.9556     O
O       0.6432   0.0224   0.6476     O
O       0.6432   0.9776   0.1476     O
C       0.6499   0.3801   0.1825     C
C       0.6499   0.6199   0.6825     C
Dy     0.66001   0.1287  0.30124    Dy
Dy     0.66001   0.8713  0.80124    Dy
C       0.6653    0.051   0.4556     C
C       0.6653    0.949   0.9556     C
C       0.6669   0.3139   0.2327     C
C       0.6669   0.6861   0.7327     C
C       0.6703   0.0449   0.1637     C
C       0.6703   0.9551   0.6637     C
N       0.6743   0.0083   0.0635     N
N       0.6743   0.9917   0.5635     N
O       0.6761   0.0462     0.41     O
O       0.6761   0.9538     0.91     O
H       0.6776   0.4219   0.2012     H
H       0.6776   0.5781   0.7012     H
O       0.6834   0.0988    0.218     O
O       0.6834   0.9012    0.718     O
C       0.6881   0.0646    0.117     C
C       0.6881   0.9354    0.617     C
C       0.6883   0.0195   0.0185     C
C       0.6883   0.9805   0.5185     C
C       0.7194   0.1359   0.1304     C
C       0.7194   0.8641   0.6304     C
C       0.7202   0.0868   0.0282     C
C       0.7202   0.9132   0.5282     C
O       0.7281   0.1493   0.6571     O
O       0.7281   0.8507   0.1571     O
H       0.7301   0.1748   0.1701     H
H       0.7301   0.8252   0.6701     H
H       0.7318   0.0909   0.9986     H
H       0.7318   0.9091   0.4986     H
C        0.732    0.299   0.3181     C
C        0.732    0.701   0.8181     C
C       0.7342   0.1477   0.0834     C
C       0.7342   0.8523   0.5834     C
O       0.7402   0.2337   0.3542     O
O       0.7402   0.7663   0.8542     O
H       0.7468   0.3043   0.9109     H
H       0.7468   0.6957   0.4109     H
H       0.7532   0.1957   0.0891     H
H       0.7532   0.8043   0.5891     H
O       0.7598   0.2663   0.6458     O
O       0.7598   0.7337   0.1458     O
C       0.7658   0.3523   0.9166     C
C       0.7658   0.6477   0.4166     C
C        0.768    0.201   0.6819     C
C        0.768    0.799   0.1819     C
H       0.7682   0.4091   0.0014     H
H       0.7682   0.5909   0.5014     H
H       0.7699   0.3252   0.8299     H
H       0.7699   0.6748   0.3299     H
O       0.7719   0.3507   0.3429     O
O       0.7719   0.6493   0.8429     O
C       0.7798   0.4132   0.9718     C
C       0.7798   0.5868   0.4718     C
C       0.7806   0.3641   0.8696     C
C       0.7806   0.6359   0.3696     C
C       0.8117   0.4805   0.9815     C
C       0.8117   0.5195   0.4815     C
C       0.8119   0.4354    0.883     C
C       0.8119   0.5646    0.383     C
O       0.8166   0.4012    0.782     O
O       0.8166   0.5988    0.282     O
H       0.8224   0.0781   0.7988     H
H       0.8224   0.9219   0.2988     H
O       0.8239   0.4538     0.59     O
O       0.8239   0.5462     0.09     O
N       0.8257   0.4917   0.9365     N
N       0.8257   0.5083   0.4365     N
C       0.8297   0.4551   0.8363     C
C       0.8297   0.5449   0.3363     C
C       0.8331   0.1861   0.7673     C
C       0.8331   0.8139   0.2673     C
C       0.8347    0.449   0.5444     C
C       0.8347    0.551   0.0444     C
Dy     0.83999   0.3713  0.69876    Dy
Dy     0.83999   0.6287  0.19876    Dy
C       0.8501   0.1199   0.8175     C
C       0.8501   0.8801   0.3175     C
O       0.8568   0.4776   0.3524     O
O       0.8568   0.5224   0.8524     O
O       0.8621   0.3907   0.5444     O
O       0.8621   0.6093   0.0444     O
N       0.8731   0.2471    0.792     N
N       0.8731   0.7529    0.292     N
Dy     0.87908  0.38037  0.45488    Dy
Dy     0.87908  0.61963  0.95488    Dy
C         0.91   0.1155   0.8981     C
C         0.91   0.8845   0.3981     C
H        0.922   0.0713   0.9338     H
H        0.922   0.9287   0.4338     H
C       0.9305   0.2416   0.8687     C
C       0.9305   0.7584   0.3687     C
O       0.9444   0.3784   0.8481     O
O       0.9444   0.6216   0.3481     O
C       0.9509    0.177    0.924     C
C       0.9509    0.823    0.424     C
C       0.9715   0.3138   0.8946     C
C       0.9715   0.6862   0.3946     C
O        0.974   0.3069   0.5459     O
O        0.974   0.6931   0.0459     O
H       0.9908    0.175   0.9768     H
H       0.9908    0.825   0.4768     H
