data_I
_chemical_name_common  '/home/zhangsd/repos/MofS-CGCNN/ML/data/SSD/clean_cifs/KARLUM_clean'
_cell_length_a 24.66610
_cell_length_b 24.66610
_cell_length_c 24.66610
_cell_angle_alpha 109.47100
_cell_angle_beta  109.47100
_cell_angle_gamma 109.47100
_space_group_name_H-M_alt      'P 1'


loop_
_space_group_symop_operation_xyz
  'x, y, z' 

loop_
_atom_site_label
_atom_site_fract_x
_atom_site_fract_y
_atom_site_fract_z
_atom_site_type_symbol
O          0.0      0.0  0.34878     O
O          0.0  0.34878     -0.0     O
H       0.0068   0.8439   0.7129     H
Ni     0.00947   0.9199  0.32672    Ni
C      0.01079  0.31858  0.11989     C
C      0.01299  0.47018  0.11795     C
C      0.01424  0.76916  0.80106     C
C      0.01612  0.53361  0.15813     C
N       0.0164  0.83423  0.30053     N
C      0.01816  0.29102  0.16672     C
C      0.01964   0.7166  0.25388     C
C      0.02015  0.65257  0.22538     C
C      0.02632  0.83385  0.74569     C
C      0.03142  0.23619  0.62517     C
C       0.0319  0.23084  0.24508     C
C      0.03449  0.20494  0.56765     C
C      0.03737  0.19749  0.28174     C
O      0.04021  0.12896  0.45959     O
C      0.04037  0.28294  0.75563     C
C       0.0404  0.30712  0.81476     C
O      0.04619  0.12137  0.34192     O
O      0.05246  0.41108  0.93478     O
O      0.06321  0.36005  0.13026     O
O      0.06522   0.4763  0.11768     O
H       0.0663   0.2798   0.6595     H
H       0.0669   0.4895   0.8948     H
O      0.06705  0.29684  0.93679     O
C      0.06984  0.59402  0.17998     C
H       0.0712   0.2273   0.5635     H
C      0.07209  0.65387  0.21358     C
C      0.07282   0.8331   0.3116     C
O      0.07518  0.95381  0.29573     O
C      0.07539  0.77659  0.28868     C
Ni      0.0801  0.08957  0.40682    Ni
H       0.0801    0.209   0.3131     H
H       0.0806   0.2991   0.7547     H
H       0.0811   0.3407   0.8544     H
C      0.08168  0.31088   0.2156     C
C      0.08425  0.80251  0.83988     C
C      0.08816  0.28063  0.25431     C
O      0.08875  0.95979  0.41938     O
Ni     0.08957  0.40682   0.0801    Ni
C      0.09528  0.86608   0.7844     C
H       0.1021   0.2248   0.8799     H
H       0.1041    0.791   0.8711     H
C      0.10496  0.45719  0.98701     C
H       0.1052   0.5947   0.1721     H
H       0.1086    0.695   0.2282     H
C       0.1091  0.30779  0.98921     C
C      0.11014  0.52418  0.93016     C
H       0.1133   0.8743    0.337     H
H       0.1169    0.779   0.2971     H
O      0.11768  0.06522   0.4763     O
C      0.11795  0.01299  0.47018     C
H       0.1196   0.5864   0.8914     H
C      0.11989  0.01079  0.31858     C
H       0.1201   0.3449   0.2222     H
O      0.12137  0.34192  0.04619     O
H       0.1227   0.8979   0.7778     H
C       0.1243  0.85144  0.83328     C
H       0.1257    0.239   0.4627     H
H       0.1289   0.9199    0.233     H
O      0.12896  0.45959  0.04021     O
O      0.13026  0.06321  0.36005     O
H        0.131   0.2939   0.2871     H
C      0.13392   0.2292  0.91832     C
C      0.14149  0.58178  0.92791     C
C      0.14201  0.51749  0.98388     C
H       0.1456   0.4863   0.2267     H
C      0.14856  0.27286  0.98184     C
H       0.1561   0.1629    0.869     H
H       0.1561   0.9288   0.4923     H
C      0.15813  0.01612  0.53361     C
C      0.16012  0.96263  0.24437     C
H       0.1629    0.869   0.1561     H
N      0.16577  0.18217   0.4663     N
C      0.16615  0.19247  0.91184     C
C      0.16672  0.01816  0.29102     C
C       0.1669  0.23972   0.4785     C
C      0.17045  0.96551  0.53316     C
H       0.1721   0.1052   0.5947     H
C      0.17998  0.06984  0.59402     C
H       0.1802   0.6621   0.8831     H
N      0.18217   0.4663  0.16577     N
C      0.18524  0.49236  0.22564     C
C      0.19247  0.91184  0.16615     C
C      0.19749  0.28174  0.03737     C
C      0.19869   0.8909  0.88011     C
C      0.19894   0.9681  0.21318     C
C      0.20477  0.96858  0.59375     C
C      0.20494  0.56765  0.03449     C
C      0.20523  0.63242  0.97985     C
H        0.209   0.3131   0.0801     H
C      0.21318  0.19894   0.9681     C
C      0.21329   0.7012  0.92461     C
H       0.2135   0.9337   0.5932     H
C      0.21358  0.07209  0.65387     C
C       0.2156  0.08168  0.31088     C
H       0.2185   0.9194   0.6741     H
O      0.22055  0.87863  0.92482     O
H        0.221   0.3379   0.5181     H
H       0.2222   0.1201   0.3449     H
C      0.22341   0.2988  0.51209     C
H       0.2237    0.761   0.8867     H
H       0.2248   0.8799   0.1021     H
C      0.22538  0.02015  0.65257     C
C      0.22564  0.18524  0.49236     C
H       0.2267   0.1456   0.4863     H
H       0.2273   0.5635   0.0712     H
H       0.2282   0.1086    0.695     H
C       0.2292  0.91832  0.13392     C
O      0.22979  0.93295  0.86974     O
C      0.23084  0.24508   0.0319     C
H        0.233   0.1289   0.9199     H
C      0.23424  0.69696  0.98036     C
C      0.23619  0.62517  0.03142     C
C      0.23878  0.76028  0.92718     C
H        0.239   0.4627   0.1257     H
C      0.23972   0.4785   0.1669     C
C      0.24257  0.95963  0.71526     C
C      0.24437  0.16012  0.96263     C
C      0.24437  0.52731  0.28474     C
C      0.24508   0.0319  0.23084     C
H       0.2453   0.5444   0.3259     H
C      0.25388  0.01964   0.7166     C
C      0.25431  0.08816  0.28063     C
H       0.2596   0.9189   0.7733     H
C      0.26672   0.9596  0.77436     C
C      0.27286  0.98184  0.14856     C
H       0.2798   0.6595   0.0663     H
C      0.28063  0.25431  0.08816     C
C      0.28174  0.03737  0.19749     C
C      0.28294  0.75563  0.04037     C
C       0.2834  0.30304  0.53728     C
N      0.28413  0.81783   0.9836     N
C      0.28474  0.24437  0.52731     C
H       0.2871    0.131   0.2939     H
C      0.28868  0.07539  0.77659     C
C      0.29102  0.16672  0.01816     C
H       0.2939   0.2871    0.131     H
O      0.29573  0.07518  0.95381     O
O      0.29684  0.93679  0.06705     O
H       0.2971   0.1169    0.779     H
C       0.2988  0.51209  0.22341     C
H       0.2991   0.7547   0.0806     H
N      0.30053   0.0164  0.83423     N
C      0.30304  0.53728   0.2834     C
H        0.305   0.4136   0.5332     H
C      0.30712  0.81476   0.0404     C
C      0.30779  0.98921   0.1091     C
C      0.31088   0.2156  0.08168     C
C       0.3116  0.07282   0.8331     C
H       0.3131   0.0801    0.209     H
Ni     0.31725  0.91043  0.99053    Ni
C      0.31858  0.11989  0.01079     C
H       0.3259   0.2453   0.5444     H
Ni     0.32672  0.00947   0.9199    Ni
O      0.33063  0.87104  0.91125     O
H       0.3362   0.7727   0.8439     H
H        0.337   0.1133   0.8743     H
H       0.3379   0.5181    0.221     H
H       0.3405   0.6203   0.4068     H
H       0.3407   0.8544   0.0811     H
O      0.34192  0.04619  0.12137     O
H       0.3449   0.2222   0.1201     H
C      0.34613  0.41822  0.55971     C
C      0.34743  0.36758  0.57281     C
O      0.34878      0.0     -0.0     O
C      0.35223  0.89504  0.88205     C
O      0.35862  0.94754  0.88232     O
O      0.36005  0.13026  0.06321     O
C      0.36271  0.79506  0.82955     C
C      0.36758  0.57281  0.34743     C
C      0.37483  0.61102  0.40625     C
C      0.37548  0.85799  0.84187     C
H       0.3797   0.7202   0.7865     H
C      0.38898  0.76381  0.79523     C
H       0.4053   0.5105   0.5774     H
C      0.40598  0.47582  0.58596     C
C      0.40625  0.37483  0.61102     C
H       0.4068   0.3405   0.6203     H
Ni     0.40682   0.0801  0.08957    Ni
O      0.41108  0.93478  0.05246     O
H       0.4136   0.5332    0.305     H
C      0.41404  0.88986  0.82002     C
C      0.41822  0.55971  0.34613     C
O      0.41938  0.08875  0.95979     O
H       0.4226   0.9331   0.8279     H
C      0.42719  0.79477  0.77462     C
C      0.43235  0.63729  0.46684     C
H       0.4365   0.6638   0.5077     H
C      0.44029  0.85851  0.78642     C
H       0.4556   0.7009   0.7815     H
C      0.45719  0.98701  0.10496     C
O      0.45959  0.04021  0.12896     O
H       0.4627   0.1257    0.239     H
C      0.46272  0.76576  0.74612     C
N       0.4663  0.16577  0.18217     N
C      0.46639  0.48251  0.62452     C
H       0.4668   0.8804   0.7718     H
C      0.46684  0.43235  0.63729     C
C      0.47018  0.11795  0.01299     C
C      0.47269  0.71706  0.75743     C
C      0.47582  0.58596  0.40598     C
O       0.4763  0.11768  0.06522     O
C       0.4785   0.1669  0.23972     C
H       0.4819   0.8198   0.7029     H
C      0.48251  0.62452  0.46639     C
H       0.4863   0.2267   0.1456     H
C      0.48791  0.78671  0.71132     C
H       0.4895   0.8948   0.0669     H
H       0.4923   0.1561   0.9288     H
C      0.49236  0.22564  0.18524     C
C      0.50764  0.69288  0.73328     C
H       0.5077   0.4365   0.6638     H
H       0.5105   0.5774   0.4053     H
C      0.51209  0.22341   0.2988     C
H       0.5137   0.6593   0.7404     H
C      0.51749  0.98388  0.14201     C
H       0.5181    0.221   0.3379     H
C       0.5215  0.76122   0.6884     C
O       0.5237  0.58892  0.64138     O
C      0.52418  0.93016  0.11014     C
C      0.52731  0.28474  0.24437     C
C      0.52982  0.54281  0.64777     C
C      0.53316  0.17045  0.96551     C
H       0.5332    0.305   0.4136     H
C      0.53361  0.15813  0.01612     C
N       0.5337  0.71587  0.69947     N
C      0.53728   0.2834  0.30304     C
H       0.5373   0.7763    0.663     H
O      0.54041  0.66937  0.58062     O
C      0.54281  0.64777  0.52982     C
H       0.5444   0.3259   0.2453     H
C      0.55971  0.34613  0.41822     C
H       0.5635   0.0712   0.2273     H
C      0.56765  0.03449  0.20494     C
C      0.57281  0.34743  0.36758     C
H       0.5774   0.4053   0.5105     H
O      0.58062  0.54041  0.66937     O
C      0.58178  0.92791  0.14149     C
C      0.58596  0.40598  0.47582     C
H       0.5864   0.8914   0.1196     H
O      0.58892  0.64138   0.5237     O
Ni     0.59318  0.68275  0.67328    Ni
H       0.5932   0.2135   0.9337     H
C      0.59375  0.20477  0.96858     C
C      0.59402  0.17998  0.06984     C
H       0.5947   0.1721   0.1052     H
C      0.61102  0.40625  0.37483     C
H       0.6203   0.4068   0.3405     H
C      0.62452  0.46639  0.48251     C
C      0.62517  0.03142  0.23619     C
C      0.63242  0.97985  0.20523     C
C      0.63729  0.46684  0.43235     C
O      0.63995  0.70316  0.77021     O
O      0.64138   0.5237  0.58892     O
C      0.64777  0.52982  0.54281     C
O      0.65122  0.65122  0.65122     O
C      0.65257  0.22538  0.02015     C
C      0.65387  0.21358  0.07209     C
H       0.6551   0.7752   0.8773     H
O      0.65808  0.77945  0.70427     O
H       0.6593   0.7404   0.5137     H
H       0.6595   0.0663   0.2798     H
H       0.6621   0.8831   0.1802     H
H        0.663   0.5373   0.7763     H
H       0.6638   0.5077   0.4365     H
O      0.66937  0.58062  0.54041     O
Ni     0.67328  0.59318  0.68275    Ni
H       0.6741   0.2185   0.9194     H
C      0.68142  0.69221  0.80131     C
Ni     0.68275  0.67328  0.59318    Ni
H       0.6869   0.8959    0.767     H
C       0.6884   0.5215  0.76122     C
C      0.68912   0.7708  0.90472     C
C      0.69221  0.80131  0.68142     C
C      0.69288  0.73328  0.50764     C
H        0.695   0.2282   0.1086     H
C      0.69696  0.98036  0.23424     C
N      0.69947   0.5337  0.71587     N
H       0.7009   0.7815   0.4556     H
C       0.7012  0.92461  0.21329     C
H       0.7029   0.4819   0.8198     H
O      0.70316  0.77021  0.63995     O
O      0.70427  0.65808  0.77945     O
H       0.7061   0.8371   0.9932     H
C      0.70898  0.72714   0.8757     C
C      0.71132  0.48791  0.78671     C
H       0.7129   0.0068   0.8439     H
C      0.71526  0.24257  0.95963     C
N      0.71587  0.69947   0.5337     N
C       0.7166  0.25388  0.01964     C
C      0.71706  0.75743  0.47269     C
C      0.71826  0.91575  0.75563     C
C      0.71937  0.80753  0.97368     C
H       0.7202   0.7865   0.3797     H
C      0.72714   0.8757  0.70898     C
C      0.73328  0.50764  0.69288     C
H       0.7404   0.5137   0.6593     H
C      0.74569  0.02632  0.83385     C
C      0.74612  0.46272  0.76576     C
H       0.7547   0.0806   0.2991     H
C      0.75492  0.98576  0.78682     C
C      0.75563  0.04037  0.28294     C
C      0.75563  0.71826  0.91575     C
C      0.75743  0.47269  0.71706     C
C      0.76028  0.92718  0.23878     C
H        0.761   0.8867   0.2237     H
C      0.76122   0.6884   0.5215     C
C      0.76381  0.79523  0.38898     C
C      0.76576  0.74612  0.46272     C
H        0.767   0.6869   0.8959     H
C      0.76916  0.80106  0.01424     C
O      0.77021  0.63995  0.70316     O
C       0.7708  0.90472  0.68912     C
H       0.7718   0.4668   0.8804     H
H       0.7727   0.8439   0.3362     H
H       0.7733   0.2596   0.9189     H
C      0.77436  0.26672   0.9596     C
C      0.77462  0.42719  0.79477     C
H       0.7752   0.8773   0.6551     H
H       0.7763    0.663   0.5373     H
C      0.77659  0.28868  0.07539     C
H       0.7778   0.1227   0.8979     H
H        0.779   0.2971   0.1169     H
O      0.77945  0.70427  0.65808     O
H       0.7815   0.4556   0.7009     H
C       0.7844  0.09528  0.86608     C
C      0.78642  0.44029  0.85851     C
H       0.7865   0.3797   0.7202     H
C      0.78671  0.71132  0.48791     C
C      0.78682  0.75492  0.98576     C
H        0.791   0.8711   0.1041     H
C      0.79477  0.77462  0.42719     C
C      0.79506  0.82955  0.36271     C
C      0.79523  0.38898  0.76381     C
C      0.80106  0.01424  0.76916     C
C      0.80131  0.68142  0.69221     C
C      0.80251  0.83988  0.08425     C
C      0.80753  0.97368  0.71937     C
C      0.81476   0.0404  0.30712     C
N      0.81783   0.9836  0.28413     N
H       0.8198   0.7029   0.4819     H
C      0.82002  0.41404  0.88986     C
H       0.8279   0.4226   0.9331     H
C      0.82955  0.36271  0.79506     C
C       0.8331   0.3116  0.07282     C
C      0.83328   0.1243  0.85144     C
C      0.83385  0.74569  0.02632     C
N      0.83423  0.30053   0.0164     N
H       0.8371   0.9932   0.7061     H
C      0.83988  0.08425  0.80251     C
C      0.84187  0.37548  0.85799     C
H       0.8439   0.3362   0.7727     H
H       0.8439   0.7129   0.0068     H
C      0.85144  0.83328   0.1243     C
H       0.8544   0.0811   0.3407     H
C      0.85799  0.84187  0.37548     C
C      0.85851  0.78642  0.44029     C
C      0.86608   0.7844  0.09528     C
H        0.869   0.1561   0.1629     H
O      0.86974  0.22979  0.93295     O
O      0.87104  0.91125  0.33063     O
H       0.8711   0.1041    0.791     H
H       0.8743    0.337   0.1133     H
C       0.8757  0.70898  0.72714     C
H       0.8773   0.6551   0.7752     H
O      0.87863  0.92482  0.22055     O
H       0.8799   0.1021   0.2248     H
C      0.88011  0.19869   0.8909     C
H       0.8804   0.7718   0.4668     H
C      0.88205  0.35223  0.89504     C
O      0.88232  0.35862  0.94754     O
H       0.8831   0.1802   0.6621     H
H       0.8867   0.2237    0.761     H
C      0.88986  0.82002  0.41404     C
C       0.8909  0.88011  0.19869     C
H       0.8914   0.1196   0.5864     H
H       0.8948   0.0669   0.4895     H
C      0.89504  0.88205  0.35223     C
H       0.8959    0.767   0.6869     H
H       0.8979   0.7778   0.1227     H
C      0.90472  0.68912   0.7708     C
Ni     0.91043  0.99053  0.31725    Ni
O      0.91125  0.33063  0.87104     O
C      0.91184  0.16615  0.19247     C
C      0.91575  0.75563  0.71826     C
C      0.91832  0.13392   0.2292     C
H       0.9189   0.7733   0.2596     H
H       0.9194   0.6741   0.2185     H
H       0.9199    0.233   0.1289     H
Ni      0.9199  0.32672  0.00947    Ni
C      0.92461  0.21329   0.7012     C
O      0.92482  0.22055  0.87863     O
C      0.92718  0.23878  0.76028     C
C      0.92791  0.14149  0.58178     C
H       0.9288   0.4923   0.1561     H
C      0.93016  0.11014  0.52418     C
O      0.93295  0.86974  0.22979     O
H       0.9331   0.8279   0.4226     H
H       0.9337   0.5932   0.2135     H
O      0.93478  0.05246  0.41108     O
O      0.93679  0.06705  0.29684     O
O      0.94754  0.88232  0.35862     O
O      0.95381  0.29573  0.07518     O
C       0.9596  0.77436  0.26672     C
C      0.95963  0.71526  0.24257     C
O      0.95979  0.41938  0.08875     O
C      0.96263  0.24437  0.16012     C
C      0.96551  0.53316  0.17045     C
C       0.9681  0.21318  0.19894     C
C      0.96858  0.59375  0.20477     C
C      0.97368  0.71937  0.80753     C
C      0.97985  0.20523  0.63242     C
C      0.98036  0.23424  0.69696     C
C      0.98184  0.14856  0.27286     C
N       0.9836  0.28413  0.81783     N
C      0.98388  0.14201  0.51749     C
C      0.98576  0.78682  0.75492     C
C      0.98701  0.10496  0.45719     C
C      0.98921   0.1091  0.30779     C
Ni     0.99053  0.31725  0.91043    Ni
H       0.9932   0.7061   0.8371     H
