data_I
_chemical_name_common  '/home/zhangsd/repos/MofS-CGCNN/ML/data/SSD/clean_cifs/KARTAA_clean'
_cell_length_a 20.64940
_cell_length_b 35.26100
_cell_length_c 10.13180
_cell_angle_alpha 90.00000
_cell_angle_beta  115.00400
_cell_angle_gamma 90.00000
_space_group_name_H-M_alt      'P 1'


loop_
_space_group_symop_operation_xyz
  'x, y, z' 

loop_
_atom_site_label
_atom_site_fract_x
_atom_site_fract_y
_atom_site_fract_z
_atom_site_type_symbol
Sm         0.0  0.28095     0.25    Sm
Sm         0.0  0.71905     0.75    Sm
O      0.01705  0.04808   0.4367     O
O      0.01705  0.95192   0.9367     O
O      0.03451  0.32524   0.4631     O
O      0.03451  0.67476   0.9631     O
S      0.05789  0.03542  0.13942     S
S      0.05789  0.96458  0.63942     S
O      0.06004     0.24   0.4454     O
O      0.06004     0.76   0.9454     O
O       0.0651   0.0013   0.2291     O
O       0.0651   0.9987   0.7291     O
O      0.08288  0.25366   0.1701     O
O      0.08288  0.74634   0.6701     O
O       0.0836  0.38465   0.4263     O
O       0.0836  0.61535   0.9263     O
O      0.08504  0.02804   0.0285     O
O      0.08504  0.97196   0.5285     O
S      0.09642  0.34439  0.45682     S
S      0.09642  0.65561  0.95682     S
O       0.1002  0.06533   0.2416     O
O       0.1002  0.93467   0.7416     O
O       0.1067  0.32447   0.3351     O
O       0.1067  0.67553   0.8351     O
S      0.13267  0.23292  0.55671     S
S      0.13267  0.76708  0.05671     S
Sm     0.13698  0.02992  0.47796    Sm
Sm     0.13698  0.97008  0.97796    Sm
O       0.1397  0.24494   0.6981     O
O       0.1397  0.75506   0.1981     O
O      0.14195  0.09873   0.5369     O
O      0.14195  0.90127   0.0369     O
O       0.1499  0.19246   0.5552     O
O       0.1499  0.80754   0.0552     O
O        0.152  0.24236    0.034     O
O        0.152  0.75764    0.534     O
S      0.15522  0.24701  0.17932     S
S      0.15522  0.75299  0.67932     S
O      0.16344  0.33821    0.588     O
O      0.16344  0.66179    0.088     O
O        0.181   0.4958   0.0781     O
O        0.181   0.5042   0.5781     O
O      0.18457  0.25314   0.5131     O
O      0.18457  0.74686   0.0131     O
O       0.1855  0.21259   0.2664     O
O       0.1855  0.78741   0.7664     O
O      0.18985  0.13441   0.3923     O
O      0.18985  0.86559   0.8923     O
O      0.20031  0.28064   0.2483     O
O      0.20031  0.71936   0.7483     O
S      0.20721  0.10966  0.51999     S
S      0.20721  0.89034  0.01999     S
O         0.21  0.01897   0.7199     O
O         0.21  0.98103   0.2199     O
O        0.214  0.01495   0.9574     O
O        0.214  0.98505   0.4574     O
O       0.2285  0.43355   0.1051     O
O       0.2285  0.56645   0.6051     O
O      0.23954  0.07327   0.5045     O
O      0.23954  0.92673   0.0045     O
O      0.24181  0.36847   0.3548     O
O      0.24181  0.63153   0.8548     O
Sm     0.24301  0.30803  0.48946    Sm
Sm     0.24301  0.69197  0.98946    Sm
S      0.24602  0.47309  0.12656     S
S      0.24602  0.52691  0.62656     S
S      0.25398  0.02691  0.87344     S
S      0.25398  0.97309  0.37344     S
Sm     0.25699  0.19197  0.51054    Sm
Sm     0.25699  0.80803  0.01054    Sm
O      0.25819  0.13153   0.6452     O
O      0.25819  0.86847   0.1452     O
O      0.26046  0.42673   0.4955     O
O      0.26046  0.57327   0.9955     O
O       0.2715  0.06645   0.8949     O
O       0.2715  0.93355   0.3949     O
O        0.286  0.48505   0.0426     O
O        0.286  0.51495   0.5426     O
O         0.29  0.48103   0.2801     O
O         0.29  0.51897   0.7801     O
S      0.29279  0.39034  0.48001     S
S      0.29279  0.60966  0.98001     S
O      0.29969  0.21936   0.7517     O
O      0.29969  0.78064   0.2517     O
O      0.31015  0.36559   0.6077     O
O      0.31015  0.63441   0.1077     O
O       0.3145  0.28741   0.7336     O
O       0.3145  0.71259   0.2336     O
O      0.31543  0.24686   0.4869     O
O      0.31543  0.75314   0.9869     O
O        0.319   0.0042   0.9219     O
O        0.319   0.9958   0.4219     O
O      0.33656  0.16179    0.412     O
O      0.33656  0.83821    0.912     O
S      0.34478  0.25299  0.82068     S
S      0.34478  0.74701  0.32068     S
O        0.348  0.25764    0.966     O
O        0.348  0.74236    0.466     O
O       0.3501  0.30754   0.4448     O
O       0.3501  0.69246   0.9448     O
O      0.35805  0.40127   0.4631     O
O      0.35805  0.59873   0.9631     O
O       0.3603  0.25506   0.3019     O
O       0.3603  0.74494   0.8019     O
Sm     0.36302  0.47008  0.52204    Sm
Sm     0.36302  0.52992  0.02204    Sm
S      0.36733  0.26708  0.44329     S
S      0.36733  0.73292  0.94329     S
O       0.3933  0.17553   0.6649     O
O       0.3933  0.82447   0.1649     O
O       0.3998  0.43467   0.7584     O
O       0.3998  0.56533   0.2584     O
S      0.40358  0.15561  0.54318     S
S      0.40358  0.84439  0.04318     S
O      0.41496  0.47196   0.9715     O
O      0.41496  0.52804   0.4715     O
O       0.4164  0.11535   0.5737     O
O       0.4164  0.88465   0.0737     O
O      0.41712  0.24634   0.8299     O
O      0.41712  0.75366   0.3299     O
O       0.4349   0.4987   0.7709     O
O       0.4349   0.5013   0.2709     O
O      0.43996     0.26   0.5546     O
O      0.43996     0.74   0.0546     O
S      0.44211  0.46458  0.86058     S
S      0.44211  0.53542  0.36058     S
O      0.46549  0.17476   0.5369     O
O      0.46549  0.82524   0.0369     O
O      0.48295  0.45192   0.5633     O
O      0.48295  0.54808   0.0633     O
Sm         0.5  0.21905     0.75    Sm
Sm         0.5  0.78095     0.25    Sm
O      0.51705  0.45192   0.9367     O
O      0.51705  0.54808   0.4367     O
O      0.53451  0.17476   0.9631     O
O      0.53451  0.82524   0.4631     O
S      0.55789  0.46458  0.63942     S
S      0.55789  0.53542  0.13942     S
O      0.56004     0.26   0.9454     O
O      0.56004     0.74   0.4454     O
O       0.5651   0.4987   0.7291     O
O       0.5651   0.5013   0.2291     O
O      0.58288  0.24634   0.6701     O
O      0.58288  0.75366   0.1701     O
O       0.5836  0.11535   0.9263     O
O       0.5836  0.88465   0.4263     O
O      0.58504  0.47196   0.5285     O
O      0.58504  0.52804   0.0285     O
S      0.59642  0.15561  0.95682     S
S      0.59642  0.84439  0.45682     S
O       0.6002  0.43467   0.7416     O
O       0.6002  0.56533   0.2416     O
O       0.6067  0.17553   0.8351     O
O       0.6067  0.82447   0.3351     O
S      0.63267  0.26708  0.05671     S
S      0.63267  0.73292  0.55671     S
Sm     0.63698  0.47008  0.97796    Sm
Sm     0.63698  0.52992  0.47796    Sm
O       0.6397  0.25506   0.1981     O
O       0.6397  0.74494   0.6981     O
O      0.64195  0.40127   0.0369     O
O      0.64195  0.59873   0.5369     O
O       0.6499  0.30754   0.0552     O
O       0.6499  0.69246   0.5552     O
O        0.652  0.25764    0.534     O
O        0.652  0.74236    0.034     O
S      0.65522  0.25299  0.67932     S
S      0.65522  0.74701  0.17932     S
O      0.66344  0.16179    0.088     O
O      0.66344  0.83821    0.588     O
O        0.681   0.0042   0.5781     O
O        0.681   0.9958   0.0781     O
O      0.68457  0.24686   0.0131     O
O      0.68457  0.75314   0.5131     O
O       0.6855  0.28741   0.7664     O
O       0.6855  0.71259   0.2664     O
O      0.68985  0.36559   0.8923     O
O      0.68985  0.63441   0.3923     O
O      0.70031  0.21936   0.7483     O
O      0.70031  0.78064   0.2483     O
S      0.70721  0.39034  0.01999     S
S      0.70721  0.60966  0.51999     S
O         0.71  0.48103   0.2199     O
O         0.71  0.51897   0.7199     O
O        0.714  0.48505   0.4574     O
O        0.714  0.51495   0.9574     O
O       0.7285  0.06645   0.6051     O
O       0.7285  0.93355   0.1051     O
O      0.73954  0.42673   0.0045     O
O      0.73954  0.57327   0.5045     O
O      0.74181  0.13153   0.8548     O
O      0.74181  0.86847   0.3548     O
Sm     0.74301  0.19197  0.98946    Sm
Sm     0.74301  0.80803  0.48946    Sm
S      0.74602  0.02691  0.62656     S
S      0.74602  0.97309  0.12656     S
S      0.75398  0.47309  0.37344     S
S      0.75398  0.52691  0.87344     S
Sm     0.75699  0.30803  0.01054    Sm
Sm     0.75699  0.69197  0.51054    Sm
O      0.75819  0.36847   0.1452     O
O      0.75819  0.63153   0.6452     O
O      0.76046  0.07327   0.9955     O
O      0.76046  0.92673   0.4955     O
O       0.7715  0.43355   0.3949     O
O       0.7715  0.56645   0.8949     O
O        0.786  0.01495   0.5426     O
O        0.786  0.98505   0.0426     O
O         0.79  0.01897   0.7801     O
O         0.79  0.98103   0.2801     O
S      0.79279  0.10966  0.98001     S
S      0.79279  0.89034  0.48001     S
O      0.79969  0.28064   0.2517     O
O      0.79969  0.71936   0.7517     O
O      0.81015  0.13441   0.1077     O
O      0.81015  0.86559   0.6077     O
O       0.8145  0.21259   0.2336     O
O       0.8145  0.78741   0.7336     O
O      0.81543  0.25314   0.9869     O
O      0.81543  0.74686   0.4869     O
O        0.819   0.4958   0.4219     O
O        0.819   0.5042   0.9219     O
O      0.83656  0.33821    0.912     O
O      0.83656  0.66179    0.412     O
S      0.84478  0.24701  0.32068     S
S      0.84478  0.75299  0.82068     S
O        0.848  0.24236    0.466     O
O        0.848  0.75764    0.966     O
O       0.8501  0.19246   0.9448     O
O       0.8501  0.80754   0.4448     O
O      0.85805  0.09873   0.9631     O
O      0.85805  0.90127   0.4631     O
O       0.8603  0.24494   0.8019     O
O       0.8603  0.75506   0.3019     O
Sm     0.86302  0.02992  0.02204    Sm
Sm     0.86302  0.97008  0.52204    Sm
S      0.86733  0.23292  0.94329     S
S      0.86733  0.76708  0.44329     S
O       0.8933  0.32447   0.1649     O
O       0.8933  0.67553   0.6649     O
O       0.8998  0.06533   0.2584     O
O       0.8998  0.93467   0.7584     O
S      0.90358  0.34439  0.04318     S
S      0.90358  0.65561  0.54318     S
O      0.91496  0.02804   0.4715     O
O      0.91496  0.97196   0.9715     O
O       0.9164  0.38465   0.0737     O
O       0.9164  0.61535   0.5737     O
O      0.91712  0.25366   0.3299     O
O      0.91712  0.74634   0.8299     O
O       0.9349   0.0013   0.2709     O
O       0.9349   0.9987   0.7709     O
O      0.93996     0.24   0.0546     O
O      0.93996     0.76   0.5546     O
S      0.94211  0.03542  0.36058     S
S      0.94211  0.96458  0.86058     S
O      0.96549  0.32524   0.0369     O
O      0.96549  0.67476   0.5369     O
O      0.98295  0.04808   0.0633     O
O      0.98295  0.95192   0.5633     O
