data_I
_chemical_name_common  '/home/zhangsd/repos/MofS-CGCNN/ML/data/SSD/clean_cifs/KASPOL_clean'
_cell_length_a  7.02360
_cell_length_b  9.85890
_cell_length_c 10.06650
_cell_angle_alpha 90.82850
_cell_angle_beta  110.41800
_cell_angle_gamma 90.00000
_space_group_name_H-M_alt      'P 1'


loop_
_space_group_symop_operation_xyz
  'x, y, z' 

loop_
_atom_site_label
_atom_site_fract_x
_atom_site_fract_y
_atom_site_fract_z
_atom_site_type_symbol
C       0.0002   0.1238    0.436     C
C       0.0363   0.8816   0.4374     C
C       0.0372   0.0052   0.3738     C
O       0.0584   0.5603   0.7564     O
H       0.0603   0.8021    0.395     H
O       0.0621   0.0855   0.8948     O
Cu     0.06378     0.25      0.0    Cu
O       0.0787    0.653    0.171     O
P      0.08692  0.00691  0.20884     P
O       0.0923    0.153    0.171     O
H       0.0923   0.4692    0.596     H
P      0.12192  0.50691  0.20884     P
O       0.1673   0.4145   0.1052     O
C       0.1712   0.4858    0.694     C
H       0.2078   0.4009   0.7414     H
H        0.292   0.5354    0.701     H
O        0.302   0.9397   0.2436     O
H       0.3347   0.3021    0.395     H
C       0.3366   0.5052   0.3738     C
H        0.393   0.7067    0.393     H
C       0.4011   0.3816   0.4374     C
H        0.409   0.0354    0.701     H
C       0.4358   0.6238    0.436     C
H       0.4664   0.0991   0.2586     H
C       0.4772   0.0142    0.306     C
H       0.4963   0.0308    0.404     H
H       0.5037   0.9692    0.596     H
C       0.5228   0.9858    0.694     C
H       0.5336   0.9009   0.7414     H
C       0.5642   0.3762    0.564     C
H        0.591   0.9646    0.299     H
C       0.5989   0.6184   0.5626     C
H        0.607   0.2933    0.607     H
C       0.6634   0.4948   0.6262     C
H       0.6653   0.6979    0.605     H
O        0.698   0.0603   0.7564     O
H        0.708   0.4646    0.299     H
H       0.7922   0.5991   0.2586     H
C       0.8288   0.5142    0.306     C
O       0.8327   0.5855   0.8948     O
P      0.87808  0.49309  0.79116     P
H       0.9077   0.5308    0.404     H
O       0.9077    0.847    0.829     O
P      0.91308  0.99309  0.79116     P
O       0.9213    0.347    0.829     O
Cu     0.93622     0.75      0.0    Cu
O       0.9379   0.9145   0.1052     O
H       0.9397   0.1979    0.605     H
O       0.9416   0.4397   0.2436     O
C       0.9628   0.9948   0.6262     C
C       0.9637   0.1184   0.5626     C
C       0.9998   0.8762    0.564     C
H          1.0   0.2067    0.393     H
H          1.0   0.7933    0.607     H
