data_I
_chemical_name_common  '/home/zhangsd/repos/MofS-CGCNN/ML/data/SSD/clean_cifs/KAVTEI_clean'
_cell_length_a 32.20700
_cell_length_b 13.37800
_cell_length_c 15.87100
_cell_angle_alpha 90.00000
_cell_angle_beta  91.05000
_cell_angle_gamma 90.00000
_space_group_name_H-M_alt      'P 1'


loop_
_space_group_symop_operation_xyz
  'x, y, z' 

loop_
_atom_site_label
_atom_site_fract_x
_atom_site_fract_y
_atom_site_fract_z
_atom_site_type_symbol
Cd         0.0  0.27497     0.25    Cd
Cd         0.0  0.72503     0.75    Cd
H       0.0169   0.4667   0.5804     H
H       0.0169   0.5333   0.0804     H
C       0.0182   0.0658   0.4421     C
C       0.0182   0.9342   0.9421     C
H       0.0246   0.3498   0.4707     H
H       0.0246   0.6502   0.9707     H
C      0.02497   0.0478   0.0609     C
C      0.02497   0.9522   0.5609     C
H       0.0307   0.1099   0.4032     H
H       0.0307   0.8901   0.9032     H
O      0.03108   0.3835   0.1672     O
O      0.03108   0.6165   0.6672     O
O      0.03544   0.1471   0.1852     O
O      0.03544   0.8529   0.6852     O
C      0.04208   0.4649   0.5502     C
C      0.04208   0.5351   0.0502     C
C      0.04218   0.0169    0.504     C
C      0.04218   0.9831    0.004     C
C       0.0467    0.394   0.4854     C
C       0.0467    0.606   0.9854     C
C      0.05159   0.0971   0.1263     C
C      0.05159   0.9029   0.6263     C
O      0.05887   0.2705   0.3423     O
O      0.05887   0.7295   0.8423     O
C      0.06661    0.387   0.1364     C
C      0.06661    0.613   0.6364     C
H       0.0713   0.0288   0.5068     H
H       0.0713   0.9712   0.0068     H
C      0.07333    0.468   0.0708     C
C      0.07333    0.532   0.5708     C
H       0.0804   0.0336   0.7583     H
H       0.0804   0.9664   0.2583     H
C      0.08404     0.39   0.4434     C
C      0.08404     0.61   0.9434     C
C       0.0902   0.3161    0.373     C
C       0.0902   0.6839    0.873     C
O      0.09067   0.0867    0.123     O
O      0.09067   0.9133    0.623     O
H       0.0907    0.176   0.8393     H
H       0.0907    0.824   0.3393     H
O      0.09681    0.332   0.1541     O
O      0.09681    0.668   0.6541     O
C       0.0991   0.0299   0.8052     C
C       0.0991   0.9701   0.3052     C
C       0.1057   0.1167   0.8525     C
C       0.1057   0.8833   0.3525     C
Cd     0.10601  0.19508  0.23557    Cd
Cd     0.10601  0.80492  0.73557    Cd
C      0.11085   0.4749   0.0283     C
C      0.11085   0.5251   0.5283     C
C       0.1162   0.4545   0.4667     C
C       0.1162   0.5455   0.9667     C
N      0.11699   0.0566   0.3215     N
N      0.11699   0.9434   0.8215     N
H       0.1251    0.264   0.9491     H
H       0.1251    0.736   0.4491     H
O      0.12626   0.3015   0.3467     O
O      0.12626   0.6985   0.8467     O
H       0.1329   0.4303   0.0422     H
H       0.1329   0.5697   0.5422     H
C        0.134   0.1158    0.918     C
C        0.134   0.8842    0.418     C
H       0.1402   0.1975   0.0279     H
H       0.1402   0.8025   0.5279     H
H       0.1422   0.4496   0.4395     H
H       0.1422   0.5504   0.9395     H
C       0.1436    0.059   0.3879     C
C       0.1436    0.941   0.8879     C
C       0.1442   0.2097   0.9671     C
C       0.1442   0.7903   0.4671     C
C       0.1532   0.0259   0.9358     C
C       0.1532   0.9741   0.4358     C
H       0.1564   0.1207   0.4027     H
H       0.1564   0.8793   0.9027     H
H       0.1729   0.0217   0.9809     H
H       0.1729   0.9783   0.4809     H
N      0.17577   0.1989   0.1983     N
N      0.17577   0.8011   0.6983     N
H       0.1791    0.346   0.2066     H
H       0.1791    0.654   0.7066     H
H        0.181   0.3452   0.8566     H
H        0.181   0.6548   0.3566     H
H       0.1811   0.2322   0.8233     H
H       0.1811   0.7678   0.3233     H
H       0.1832   0.0571   0.1751     H
H       0.1832   0.9429   0.6751     H
C       0.1894   0.2422   0.9526     C
C       0.1894   0.7578   0.4526     C
C       0.1947   0.2795   0.8631     C
C       0.1947    0.287   0.1962     C
C       0.1947    0.713   0.6962     C
C       0.1947   0.7205   0.3631     C
H       0.1971    0.296   0.9928     H
H       0.1971    0.704   0.4928     H
C       0.1973   0.1195    0.177     C
C       0.1973   0.8805    0.677     C
H       0.2082   0.1849   0.9631     H
H       0.2082   0.8151   0.4631     H
C       0.2361   0.2948   0.1793     C
C       0.2361   0.7052   0.6793     C
C       0.2382   0.1201   0.1575     C
C       0.2382   0.8799   0.6575     C
C       0.2406   0.2896   0.8413     C
C       0.2406   0.7104   0.3413     C
H        0.248   0.4402   0.8567     H
H        0.248   0.5598   0.3567     H
H       0.2492   0.3584   0.1815     H
H       0.2492   0.6416   0.6815     H
H       0.2508   0.1416   0.8185     H
H       0.2508   0.8584   0.3185     H
H        0.252   0.0598   0.1433     H
H        0.252   0.9402   0.6433     H
C       0.2594   0.2104   0.1587     C
C       0.2594   0.7896   0.6587     C
C       0.2618   0.3799   0.8425     C
C       0.2618   0.6201   0.3425     C
C       0.2639   0.2052   0.8207     C
C       0.2639   0.7948   0.3207     C
H       0.2918   0.3151   0.0369     H
H       0.2918   0.6849   0.5369     H
C       0.3027   0.3805    0.823     C
C       0.3027   0.6195    0.323     C
H       0.3029    0.204   0.0072     H
H       0.3029    0.796   0.5072     H
C       0.3053    0.213   0.8038     C
C       0.3053   0.2205   0.1369     C
C       0.3053   0.7795   0.6369     C
C       0.3053    0.787   0.3038     C
C       0.3106   0.2578   0.0474     C
C       0.3106   0.7422   0.5474     C
H       0.3168   0.4429   0.8249     H
H       0.3168   0.5571   0.3249     H
H       0.3189   0.2678   0.1767     H
H       0.3189   0.7322   0.6767     H
H        0.319   0.1548   0.1434     H
H        0.319   0.8452   0.6434     H
H       0.3209    0.154   0.7934     H
H       0.3209    0.846   0.2934     H
N      0.32423   0.3011   0.8017     N
N      0.32423   0.6989   0.3017     N
H       0.3271   0.4783   0.0191     H
H       0.3271   0.5217   0.5191     H
H       0.3436   0.3793   0.5973     H
H       0.3436   0.6207   0.0973     H
C       0.3468   0.4741   0.0642     C
C       0.3468   0.5259   0.5642     C
C       0.3558   0.2903   0.0329     C
C       0.3558   0.7097   0.5329     C
C       0.3564    0.441   0.6121     C
C       0.3564    0.559   0.1121     C
H       0.3578   0.0504   0.5605     H
H       0.3578   0.9496   0.0605     H
H       0.3598   0.3025   0.9721     H
H       0.3598   0.6975   0.4721     H
C        0.366   0.3842    0.082     C
C        0.366   0.6158    0.582     C
H       0.3671   0.0697   0.9578     H
H       0.3671   0.9303   0.4578     H
O      0.37374   0.1985   0.6533     O
O      0.37374   0.8015   0.1533     O
H       0.3749    0.236   0.0509     H
H       0.3749    0.764   0.5509     H
N      0.38301   0.4434   0.6785     N
N      0.38301   0.5566   0.1785     N
C       0.3838   0.0455   0.5333     C
C       0.3838   0.9545   0.0333     C
C      0.38915   0.0251   0.9717     C
C      0.38915   0.9749   0.4717     C
Cd     0.39399  0.30492  0.76443    Cd
Cd     0.39399  0.69508  0.26443    Cd
C       0.3943   0.3833   0.1475     C
C       0.3943   0.6167   0.6475     C
C       0.4009   0.4701   0.1948     C
C       0.4009   0.5299   0.6948     C
O      0.40319    0.168   0.8459     O
O      0.40319    0.832   0.3459     O
H       0.4093    0.324   0.1607     H
H       0.4093    0.676   0.6607     H
O      0.40933   0.4133    0.877     O
O      0.40933   0.5867    0.377     O
C       0.4098   0.1839    0.627     C
C       0.4098   0.8161    0.127     C
C      0.41596     0.11   0.5566     C
C      0.41596     0.89   0.0566     C
H       0.4196   0.4664   0.2417     H
H       0.4196   0.5336   0.7417     H
C      0.42667    0.032   0.9292     C
C      0.42667    0.968   0.4292     C
H       0.4287   0.4712   0.4932     H
H       0.4287   0.5288   0.9932     H
C      0.43339    0.113   0.8636     C
C      0.43339    0.887   0.3636     C
O      0.44113   0.2295   0.6577     O
O      0.44113   0.7705   0.1577     O
C      0.44841   0.4029   0.8737     C
C      0.44841   0.5971   0.3737     C
C       0.4533    0.106   0.5146     C
C       0.4533    0.894   0.0146     C
C      0.45782   0.4831    0.496     C
C      0.45782   0.5169    0.996     C
C      0.45792   0.0351   0.4498     C
C      0.45792   0.9649   0.9498     C
O      0.46456   0.3529   0.8148     O
O      0.46456   0.6471   0.3148     O
O      0.46892   0.1165   0.8328     O
O      0.46892   0.8835   0.3328     O
H       0.4693   0.3901   0.5968     H
H       0.4693   0.6099   0.0968     H
C      0.47503   0.4522   0.9391     C
C      0.47503   0.5478   0.4391     C
H       0.4754   0.1502   0.5293     H
H       0.4754   0.8498   0.0293     H
C       0.4818   0.4342   0.5579     C
C       0.4818   0.5658   0.0579     C
H       0.4831   0.0333   0.4196     H
H       0.4831   0.9667   0.9196     H
Cd         0.5  0.22503     0.75    Cd
Cd         0.5  0.77497     0.25    Cd
H       0.5169   0.0333   0.0804     H
H       0.5169   0.9667   0.5804     H
C       0.5182   0.4342   0.9421     C
C       0.5182   0.5658   0.4421     C
H       0.5246   0.1502   0.9707     H
H       0.5246   0.8498   0.4707     H
C      0.52497   0.4522   0.5609     C
C      0.52497   0.5478   0.0609     C
H       0.5307   0.3901   0.9032     H
H       0.5307   0.6099   0.4032     H
O      0.53108   0.1165   0.6672     O
O      0.53108   0.8835   0.1672     O
O      0.53544   0.3529   0.6852     O
O      0.53544   0.6471   0.1852     O
C      0.54208   0.0351   0.0502     C
C      0.54208   0.9649   0.5502     C
C      0.54218   0.4831    0.004     C
C      0.54218   0.5169    0.504     C
C       0.5467    0.106   0.9854     C
C       0.5467    0.894   0.4854     C
C      0.55159   0.4029   0.6263     C
C      0.55159   0.5971   0.1263     C
O      0.55887   0.2295   0.8423     O
O      0.55887   0.7705   0.3423     O
C      0.56661    0.113   0.6364     C
C      0.56661    0.887   0.1364     C
H       0.5713   0.4712   0.0068     H
H       0.5713   0.5288   0.5068     H
C      0.57333    0.032   0.5708     C
C      0.57333    0.968   0.0708     C
H       0.5804   0.4664   0.2583     H
H       0.5804   0.5336   0.7583     H
C      0.58404     0.11   0.9434     C
C      0.58404     0.89   0.4434     C
C       0.5902   0.1839    0.873     C
C       0.5902   0.8161    0.373     C
O      0.59067   0.4133    0.623     O
O      0.59067   0.5867    0.123     O
H       0.5907    0.324   0.3393     H
H       0.5907    0.676   0.8393     H
O      0.59681    0.168   0.6541     O
O      0.59681    0.832   0.1541     O
C       0.5991   0.4701   0.3052     C
C       0.5991   0.5299   0.8052     C
C       0.6057   0.3833   0.3525     C
C       0.6057   0.6167   0.8525     C
Cd     0.60601  0.30492  0.73557    Cd
Cd     0.60601  0.69508  0.23557    Cd
C      0.61085   0.0251   0.5283     C
C      0.61085   0.9749   0.0283     C
C       0.6162   0.0455   0.9667     C
C       0.6162   0.9545   0.4667     C
N      0.61699   0.4434   0.8215     N
N      0.61699   0.5566   0.3215     N
H       0.6251    0.236   0.4491     H
H       0.6251    0.764   0.9491     H
O      0.62626   0.1985   0.8467     O
O      0.62626   0.8015   0.3467     O
H       0.6329   0.0697   0.5422     H
H       0.6329   0.9303   0.0422     H
C        0.634   0.3842    0.418     C
C        0.634   0.6158    0.918     C
H       0.6402   0.3025   0.5279     H
H       0.6402   0.6975   0.0279     H
H       0.6422   0.0504   0.9395     H
H       0.6422   0.9496   0.4395     H
C       0.6436    0.441   0.8879     C
C       0.6436    0.559   0.3879     C
C       0.6442   0.2903   0.4671     C
C       0.6442   0.7097   0.9671     C
C       0.6532   0.4741   0.4358     C
C       0.6532   0.5259   0.9358     C
H       0.6564   0.3793   0.9027     H
H       0.6564   0.6207   0.4027     H
H       0.6729   0.4783   0.4809     H
H       0.6729   0.5217   0.9809     H
N      0.67577   0.3011   0.6983     N
N      0.67577   0.6989   0.1983     N
H       0.6791    0.154   0.7066     H
H       0.6791    0.846   0.2066     H
H        0.681   0.1548   0.3566     H
H        0.681   0.8452   0.8566     H
H       0.6811   0.2678   0.3233     H
H       0.6811   0.7322   0.8233     H
H       0.6832   0.4429   0.6751     H
H       0.6832   0.5571   0.1751     H
C       0.6894   0.2578   0.4526     C
C       0.6894   0.7422   0.9526     C
C       0.6947    0.213   0.6962     C
C       0.6947   0.2205   0.3631     C
C       0.6947   0.7795   0.8631     C
C       0.6947    0.787   0.1962     C
H       0.6971    0.204   0.4928     H
H       0.6971    0.796   0.9928     H
C       0.6973   0.3805    0.677     C
C       0.6973   0.6195    0.177     C
H       0.7082   0.3151   0.4631     H
H       0.7082   0.6849   0.9631     H
C       0.7361   0.2052   0.6793     C
C       0.7361   0.7948   0.1793     C
C       0.7382   0.3799   0.6575     C
C       0.7382   0.6201   0.1575     C
C       0.7406   0.2104   0.3413     C
C       0.7406   0.7896   0.8413     C
H        0.748   0.0598   0.3567     H
H        0.748   0.9402   0.8567     H
H       0.7492   0.1416   0.6815     H
H       0.7492   0.8584   0.1815     H
H       0.7508   0.3584   0.3185     H
H       0.7508   0.6416   0.8185     H
H        0.752   0.4402   0.6433     H
H        0.752   0.5598   0.1433     H
C       0.7594   0.2896   0.6587     C
C       0.7594   0.7104   0.1587     C
C       0.7618   0.1201   0.3425     C
C       0.7618   0.8799   0.8425     C
C       0.7639   0.2948   0.3207     C
C       0.7639   0.7052   0.8207     C
H       0.7918   0.1849   0.5369     H
H       0.7918   0.8151   0.0369     H
C       0.8027   0.1195    0.323     C
C       0.8027   0.8805    0.823     C
H       0.8029    0.296   0.5072     H
H       0.8029    0.704   0.0072     H
C       0.8053   0.2795   0.6369     C
C       0.8053    0.287   0.3038     C
C       0.8053    0.713   0.8038     C
C       0.8053   0.7205   0.1369     C
C       0.8106   0.2422   0.5474     C
C       0.8106   0.7578   0.0474     C
H       0.8168   0.0571   0.3249     H
H       0.8168   0.9429   0.8249     H
H       0.8189   0.2322   0.6767     H
H       0.8189   0.7678   0.1767     H
H        0.819   0.3452   0.6434     H
H        0.819   0.6548   0.1434     H
H       0.8209    0.346   0.2934     H
H       0.8209    0.654   0.7934     H
N      0.82423   0.1989   0.3017     N
N      0.82423   0.8011   0.8017     N
H       0.8271   0.0217   0.5191     H
H       0.8271   0.9783   0.0191     H
H       0.8436   0.1207   0.0973     H
H       0.8436   0.8793   0.5973     H
C       0.8468   0.0259   0.5642     C
C       0.8468   0.9741   0.0642     C
C       0.8558   0.2097   0.5329     C
C       0.8558   0.7903   0.0329     C
C       0.8564    0.059   0.1121     C
C       0.8564    0.941   0.6121     C
H       0.8578   0.4496   0.0605     H
H       0.8578   0.5504   0.5605     H
H       0.8598   0.1975   0.4721     H
H       0.8598   0.8025   0.9721     H
C        0.866   0.1158    0.582     C
C        0.866   0.8842    0.082     C
H       0.8671   0.4303   0.4578     H
H       0.8671   0.5697   0.9578     H
O      0.87374   0.3015   0.1533     O
O      0.87374   0.6985   0.6533     O
H       0.8749    0.264   0.5509     H
H       0.8749    0.736   0.0509     H
N      0.88301   0.0566   0.1785     N
N      0.88301   0.9434   0.6785     N
C       0.8838   0.4545   0.0333     C
C       0.8838   0.5455   0.5333     C
C      0.88915   0.4749   0.4717     C
C      0.88915   0.5251   0.9717     C
Cd     0.89399  0.19508  0.26443    Cd
Cd     0.89399  0.80492  0.76443    Cd
C       0.8943   0.1167   0.6475     C
C       0.8943   0.8833   0.1475     C
C       0.9009   0.0299   0.6948     C
C       0.9009   0.9701   0.1948     C
O      0.90319    0.332   0.3459     O
O      0.90319    0.668   0.8459     O
H       0.9093    0.176   0.6607     H
H       0.9093    0.824   0.1607     H
O      0.90933   0.0867    0.377     O
O      0.90933   0.9133    0.877     O
C       0.9098   0.3161    0.127     C
C       0.9098   0.6839    0.627     C
C      0.91596     0.39   0.0566     C
C      0.91596     0.61   0.5566     C
H       0.9196   0.0336   0.7417     H
H       0.9196   0.9664   0.2417     H
C      0.92667    0.468   0.4292     C
C      0.92667    0.532   0.9292     C
H       0.9287   0.0288   0.9932     H
H       0.9287   0.9712   0.4932     H
C      0.93339    0.387   0.3636     C
C      0.93339    0.613   0.8636     C
O      0.94113   0.2705   0.1577     O
O      0.94113   0.7295   0.6577     O
C      0.94841   0.0971   0.3737     C
C      0.94841   0.9029   0.8737     C
C       0.9533    0.394   0.0146     C
C       0.9533    0.606   0.5146     C
C      0.95782   0.0169    0.996     C
C      0.95782   0.9831    0.496     C
C      0.95792   0.4649   0.9498     C
C      0.95792   0.5351   0.4498     C
O      0.96456   0.1471   0.3148     O
O      0.96456   0.8529   0.8148     O
O      0.96892   0.3835   0.3328     O
O      0.96892   0.6165   0.8328     O
H       0.9693   0.1099   0.0968     H
H       0.9693   0.8901   0.5968     H
C      0.97503   0.0478   0.4391     C
C      0.97503   0.9522   0.9391     C
H       0.9754   0.3498   0.0293     H
H       0.9754   0.6502   0.5293     H
C       0.9818   0.0658   0.0579     C
C       0.9818   0.9342   0.5579     C
H       0.9831   0.4667   0.9196     H
H       0.9831   0.5333   0.4196     H
