data_I
_chemical_name_common  '/home/zhangsd/repos/MofS-CGCNN/ML/data/SSD/clean_cifs/KEDQAN_clean'
_cell_length_a 11.98000
_cell_length_b 17.98200
_cell_length_c 18.62500
_cell_angle_alpha 90.00000
_cell_angle_beta  90.00000
_cell_angle_gamma 90.00000
_space_group_name_H-M_alt      'P 1'


loop_
_space_group_symop_operation_xyz
  'x, y, z' 

loop_
_atom_site_label
_atom_site_fract_x
_atom_site_fract_y
_atom_site_fract_z
_atom_site_type_symbol
C          0.0     0.25    0.105     C
N          0.0     0.25  0.18067     N
C          0.0     0.25  0.64155     C
C          0.0     0.25  0.72215     C
C          0.0     0.25   0.8735     C
C          0.0     0.25   0.9531     C
C          0.0     0.75   0.0469     C
C          0.0     0.75   0.1265     C
C          0.0     0.75  0.27785     C
C          0.0     0.75  0.35845     C
N          0.0     0.75  0.81933     N
C          0.0     0.75    0.895     C
O      0.00559  0.13234  0.47355     O
O      0.00559  0.63234  0.52645     O
H       0.0109   0.1057   0.1622     H
H       0.0109   0.6057   0.8378     H
C       0.0342  0.38256  0.20126     C
C       0.0342  0.88256  0.79874     C
C       0.0509  0.30884  0.21982     C
C       0.0509  0.80884  0.78018     C
H       0.0513   0.0103   0.4226     H
H       0.0513   0.5103   0.5774     H
C       0.0675  0.29817  0.83443     C
C       0.0675  0.79817  0.16557     C
C       0.0684  0.29769  0.76041     C
C       0.0684  0.79769  0.23959     C
H       0.0717   0.4885   0.2277     H
H       0.0717   0.9885   0.7723     H
O      0.07694  0.28439  0.61068     O
O      0.07694  0.78439  0.38932     O
C       0.0844  0.43921   0.2405     C
C       0.0844  0.93921   0.7595     C
C       0.0847   0.2834  0.99253     C
C       0.0847   0.7834  0.00747     C
C       0.0857    0.283   0.0666     C
C       0.0857    0.783   0.9334     C
C        0.098  0.15069   0.4477     C
C        0.098  0.65069   0.5523     C
H       0.1031   0.0658   0.6738     H
H       0.1031   0.5658   0.3262     H
Zn      0.1101  0.30265  0.50913    Zn
Zn      0.1101  0.80265  0.49087    Zn
H       0.1131   0.3315   0.8588     H
H       0.1131   0.8315   0.1412     H
C       0.1155  0.29292   0.2788     C
C       0.1155  0.79292   0.7212     C
H       0.1157   0.3299   0.7358     H
H       0.1157   0.8299   0.2642     H
C       0.1207  0.02173  0.40304     C
C       0.1207  0.52173  0.59696     C
H       0.1255   0.2437   0.2928     H
H       0.1255   0.7437   0.7072     H
O       0.1396  0.21489   0.4515     O
O       0.1396  0.71489   0.5485     O
H       0.1426   0.3069   0.9682     H
H       0.1426   0.8069   0.0318     H
H       0.1447   0.3051    0.091     H
H       0.1447   0.8051    0.909     H
H       0.1512   0.4197   0.6372     H
H       0.1512   0.9197   0.3628     H
C       0.1531  0.42307  0.29836     C
C       0.1531  0.92307  0.70164     C
C       0.1631  0.09275  0.40982     C
C       0.1631  0.59275  0.59018     C
C       0.1658  0.34932  0.31753     C
C       0.1658  0.84932  0.68247     C
C       0.1726  0.05418   0.6546     C
C       0.1726  0.55418   0.3454     C
C       0.1811  0.46718  0.63278     C
C       0.1811  0.96718  0.36722     C
H       0.2028   0.1558   0.6138     H
H       0.2028   0.6558   0.3862     H
H       0.2091   0.3374   0.3573     H
H       0.2091   0.8374   0.6427     H
C       0.2146  0.48228  0.33776     C
C       0.2146  0.98228  0.66224     C
C       0.2326  0.10836   0.6188     C
C       0.2326  0.60836   0.3812     C
O         0.25  0.35254      0.5     O
H         0.25   0.4043      0.5     H
O         0.25  0.85254      0.5     O
H         0.25   0.9043      0.5     H
C       0.2674  0.10836   0.3812     C
C       0.2674  0.60836   0.6188     C
C       0.2854  0.48228  0.66224     C
C       0.2854  0.98228  0.33776     C
H       0.2909   0.3374   0.6427     H
H       0.2909   0.8374   0.3573     H
H       0.2972   0.1558   0.3862     H
H       0.2972   0.6558   0.6138     H
C       0.3189  0.46718  0.36722     C
C       0.3189  0.96718  0.63278     C
C       0.3274  0.05418   0.3454     C
C       0.3274  0.55418   0.6546     C
C       0.3342  0.34932  0.68247     C
C       0.3342  0.84932  0.31753     C
C       0.3369  0.09275  0.59018     C
C       0.3369  0.59275  0.40982     C
C       0.3469  0.42307  0.70164     C
C       0.3469  0.92307  0.29836     C
H       0.3488   0.4197   0.3628     H
H       0.3488   0.9197   0.6372     H
H       0.3553   0.3051    0.909     H
H       0.3553   0.8051    0.091     H
H       0.3574   0.3069   0.0318     H
H       0.3574   0.8069   0.9682     H
O       0.3604  0.21489   0.5485     O
O       0.3604  0.71489   0.4515     O
H       0.3745   0.2437   0.7072     H
H       0.3745   0.7437   0.2928     H
C       0.3793  0.02173  0.59696     C
C       0.3793  0.52173  0.40304     C
H       0.3843   0.3299   0.2642     H
H       0.3843   0.8299   0.7358     H
C       0.3845  0.29292   0.7212     C
C       0.3845  0.79292   0.2788     C
H       0.3869   0.3315   0.1412     H
H       0.3869   0.8315   0.8588     H
Zn      0.3899  0.30265  0.49087    Zn
Zn      0.3899  0.80265  0.50913    Zn
H       0.3969   0.0658   0.3262     H
H       0.3969   0.5658   0.6738     H
C        0.402  0.15069   0.5523     C
C        0.402  0.65069   0.4477     C
C       0.4143    0.283   0.9334     C
C       0.4143    0.783   0.0666     C
C       0.4153   0.2834  0.00747     C
C       0.4153   0.7834  0.99253     C
C       0.4156  0.43921   0.7595     C
C       0.4156  0.93921   0.2405     C
O      0.42306  0.28439  0.38932     O
O      0.42306  0.78439  0.61068     O
H       0.4283   0.4885   0.7723     H
H       0.4283   0.9885   0.2277     H
C       0.4316  0.29769  0.23959     C
C       0.4316  0.79769  0.76041     C
C       0.4325  0.29817  0.16557     C
C       0.4325  0.79817  0.83443     C
H       0.4487   0.0103   0.5774     H
H       0.4487   0.5103   0.4226     H
C       0.4491  0.30884  0.78018     C
C       0.4491  0.80884  0.21982     C
C       0.4658  0.38256  0.79874     C
C       0.4658  0.88256  0.20126     C
H       0.4891   0.1057   0.8378     H
H       0.4891   0.6057   0.1622     H
O      0.49441  0.13234  0.52645     O
O      0.49441  0.63234  0.47355     O
C          0.5     0.25   0.0469     C
C          0.5     0.25   0.1265     C
C          0.5     0.25  0.27785     C
C          0.5     0.25  0.35845     C
N          0.5     0.25  0.81933     N
C          0.5     0.25    0.895     C
C          0.5     0.75    0.105     C
N          0.5     0.75  0.18067     N
C          0.5     0.75  0.64155     C
C          0.5     0.75  0.72215     C
C          0.5     0.75   0.8735     C
C          0.5     0.75   0.9531     C
O      0.50559  0.36766  0.52645     O
O      0.50559  0.86766  0.47355     O
H       0.5109   0.3943   0.8378     H
H       0.5109   0.8943   0.1622     H
C       0.5342  0.11744  0.79874     C
C       0.5342  0.61744  0.20126     C
C       0.5509  0.19116  0.78018     C
C       0.5509  0.69116  0.21982     C
H       0.5513   0.4897   0.5774     H
H       0.5513   0.9897   0.4226     H
C       0.5675  0.20183  0.16557     C
C       0.5675  0.70183  0.83443     C
C       0.5684  0.20231  0.23959     C
C       0.5684  0.70231  0.76041     C
H       0.5717   0.0115   0.7723     H
H       0.5717   0.5115   0.2277     H
O      0.57694  0.21561  0.38932     O
O      0.57694  0.71561  0.61068     O
C       0.5844  0.06079   0.7595     C
C       0.5844  0.56079   0.2405     C
C       0.5847   0.2166  0.00747     C
C       0.5847   0.7166  0.99253     C
C       0.5857    0.217   0.9334     C
C       0.5857    0.717   0.0666     C
C        0.598  0.34931   0.5523     C
C        0.598  0.84931   0.4477     C
H       0.6031   0.4342   0.3262     H
H       0.6031   0.9342   0.6738     H
Zn      0.6101  0.19735  0.49087    Zn
Zn      0.6101  0.69735  0.50913    Zn
H       0.6131   0.1685   0.1412     H
H       0.6131   0.6685   0.8588     H
C       0.6155  0.20708   0.7212     C
C       0.6155  0.70708   0.2788     C
H       0.6157   0.1701   0.2642     H
H       0.6157   0.6701   0.7358     H
C       0.6207  0.47827  0.59696     C
C       0.6207  0.97827  0.40304     C
H       0.6255   0.2563   0.7072     H
H       0.6255   0.7563   0.2928     H
O       0.6396  0.28511   0.5485     O
O       0.6396  0.78511   0.4515     O
H       0.6426   0.1931   0.0318     H
H       0.6426   0.6931   0.9682     H
H       0.6447   0.1949    0.909     H
H       0.6447   0.6949    0.091     H
H       0.6512   0.0803   0.3628     H
H       0.6512   0.5803   0.6372     H
C       0.6531  0.07693  0.70164     C
C       0.6531  0.57693  0.29836     C
C       0.6631  0.40725  0.59018     C
C       0.6631  0.90725  0.40982     C
C       0.6658  0.15068  0.68247     C
C       0.6658  0.65068  0.31753     C
C       0.6726  0.44582   0.3454     C
C       0.6726  0.94582   0.6546     C
C       0.6811  0.03282  0.36722     C
C       0.6811  0.53282  0.63278     C
H       0.7028   0.3442   0.3862     H
H       0.7028   0.8442   0.6138     H
H       0.7091   0.1626   0.6427     H
H       0.7091   0.6626   0.3573     H
C       0.7146  0.01772  0.66224     C
C       0.7146  0.51772  0.33776     C
C       0.7326  0.39164   0.3812     C
C       0.7326  0.89164   0.6188     C
H         0.75   0.0957      0.5     H
O         0.75  0.14746      0.5     O
H         0.75   0.5957      0.5     H
O         0.75  0.64746      0.5     O
C       0.7674  0.39164   0.6188     C
C       0.7674  0.89164   0.3812     C
C       0.7854  0.01772  0.33776     C
C       0.7854  0.51772  0.66224     C
H       0.7909   0.1626   0.3573     H
H       0.7909   0.6626   0.6427     H
H       0.7972   0.3442   0.6138     H
H       0.7972   0.8442   0.3862     H
C       0.8189  0.03282  0.63278     C
C       0.8189  0.53282  0.36722     C
C       0.8274  0.44582   0.6546     C
C       0.8274  0.94582   0.3454     C
C       0.8342  0.15068  0.31753     C
C       0.8342  0.65068  0.68247     C
C       0.8369  0.40725  0.40982     C
C       0.8369  0.90725  0.59018     C
C       0.8469  0.07693  0.29836     C
C       0.8469  0.57693  0.70164     C
H       0.8488   0.0803   0.6372     H
H       0.8488   0.5803   0.3628     H
H       0.8553   0.1949    0.091     H
H       0.8553   0.6949    0.909     H
H       0.8574   0.1931   0.9682     H
H       0.8574   0.6931   0.0318     H
O       0.8604  0.28511   0.4515     O
O       0.8604  0.78511   0.5485     O
H       0.8745   0.2563   0.2928     H
H       0.8745   0.7563   0.7072     H
C       0.8793  0.47827  0.40304     C
C       0.8793  0.97827  0.59696     C
H       0.8843   0.1701   0.7358     H
H       0.8843   0.6701   0.2642     H
C       0.8845  0.20708   0.2788     C
C       0.8845  0.70708   0.7212     C
H       0.8869   0.1685   0.8588     H
H       0.8869   0.6685   0.1412     H
Zn      0.8899  0.19735  0.50913    Zn
Zn      0.8899  0.69735  0.49087    Zn
H       0.8969   0.4342   0.6738     H
H       0.8969   0.9342   0.3262     H
C        0.902  0.34931   0.4477     C
C        0.902  0.84931   0.5523     C
C       0.9143    0.217   0.0666     C
C       0.9143    0.717   0.9334     C
C       0.9153   0.2166  0.99253     C
C       0.9153   0.7166  0.00747     C
C       0.9156  0.06079   0.2405     C
C       0.9156  0.56079   0.7595     C
O      0.92306  0.21561  0.61068     O
O      0.92306  0.71561  0.38932     O
H       0.9283   0.0115   0.2277     H
H       0.9283   0.5115   0.7723     H
C       0.9316  0.20231  0.76041     C
C       0.9316  0.70231  0.23959     C
C       0.9325  0.20183  0.83443     C
C       0.9325  0.70183  0.16557     C
H       0.9487   0.4897   0.4226     H
H       0.9487   0.9897   0.5774     H
C       0.9491  0.19116  0.21982     C
C       0.9491  0.69116  0.78018     C
C       0.9658  0.11744  0.20126     C
C       0.9658  0.61744  0.79874     C
H       0.9891   0.3943   0.1622     H
H       0.9891   0.8943   0.8378     H
O      0.99441  0.36766  0.47355     O
O      0.99441  0.86766  0.52645     O
