data_I
_chemical_name_common  '/home/zhangsd/repos/MofS-CGCNN/ML/data/SSD/clean_cifs/KEFBEE_clean'
_cell_length_a 15.41280
_cell_length_b 15.41280
_cell_length_c 15.41280
_cell_angle_alpha 76.34120
_cell_angle_beta  76.34120
_cell_angle_gamma 76.34120
_space_group_name_H-M_alt      'P 1'


loop_
_space_group_symop_operation_xyz
  'x, y, z' 

loop_
_atom_site_label
_atom_site_fract_x
_atom_site_fract_y
_atom_site_fract_z
_atom_site_type_symbol
H       0.0132   0.4936   0.8031     H
H       0.0132   0.8031   0.4936     H
O      0.01421  0.49441  0.64267     O
O      0.01421  0.64267  0.49441     O
C      0.02317  0.02317  0.50237     C
C      0.02317  0.50237  0.02317     C
C      0.04762  0.17342  0.50962     C
C      0.04762  0.50962  0.17342     C
C       0.0655  0.32924  0.51427     C
C       0.0655  0.51427  0.32924     C
C      0.08242  0.08242  0.50867     C
C      0.08242  0.50867  0.08242     C
Zn     0.08821  0.51326  0.51326    Zn
C      0.10383  0.23005  0.51534     C
C      0.10383  0.51534  0.23005     C
O      0.11925  0.37579  0.52149     O
O      0.11925  0.52149  0.37579     O
C      0.17342  0.04762  0.50962     C
C      0.17342  0.50962  0.04762     C
C      0.19501  0.19501  0.51866     C
C      0.19501  0.51866  0.19501     C
H       0.1969   0.5064   0.9868     H
H       0.1969   0.9868   0.5064     H
C      0.23005  0.10383  0.51534     C
C      0.23005  0.51534  0.10383     C
H       0.2325   0.2325    0.523     H
H       0.2325    0.523   0.2325     H
C      0.32924   0.0655  0.51427     C
C      0.32924  0.51427   0.0655     C
O      0.35733  0.50559  0.98579     O
O      0.35733  0.98579  0.50559     O
O      0.37579  0.11925  0.52149     O
O      0.37579  0.52149  0.11925     O
H        0.477   0.7675   0.7675     H
O      0.47851  0.62421  0.88075     O
O      0.47851  0.88075  0.62421     O
C      0.48134  0.80499  0.80499     C
C      0.48466  0.76995  0.89617     C
C      0.48466  0.89617  0.76995     C
C      0.48573  0.67076   0.9345     C
C      0.48573   0.9345  0.67076     C
Zn     0.48674  0.48674  0.91179    Zn
Zn     0.48674  0.91179  0.48674    Zn
C      0.49038  0.82658  0.95238     C
C      0.49038  0.95238  0.82658     C
C      0.49133  0.91758  0.91758     C
H       0.4936   0.0132   0.8031     H
H       0.4936   0.8031   0.0132     H
O      0.49441  0.01421  0.64267     O
O      0.49441  0.64267  0.01421     O
C      0.49763  0.97683  0.97683     C
C      0.50237  0.02317  0.02317     C
O      0.50559  0.35733  0.98579     O
O      0.50559  0.98579  0.35733     O
H       0.5064   0.1969   0.9868     H
H       0.5064   0.9868   0.1969     H
C      0.50867  0.08242  0.08242     C
C      0.50962  0.04762  0.17342     C
C      0.50962  0.17342  0.04762     C
Zn     0.51326  0.08821  0.51326    Zn
Zn     0.51326  0.51326  0.08821    Zn
C      0.51427   0.0655  0.32924     C
C      0.51427  0.32924   0.0655     C
C      0.51534  0.10383  0.23005     C
C      0.51534  0.23005  0.10383     C
C      0.51866  0.19501  0.19501     C
O      0.52149  0.11925  0.37579     O
O      0.52149  0.37579  0.11925     O
H        0.523   0.2325   0.2325     H
O      0.62421  0.47851  0.88075     O
O      0.62421  0.88075  0.47851     O
O      0.64267  0.01421  0.49441     O
O      0.64267  0.49441  0.01421     O
C      0.67076  0.48573   0.9345     C
C      0.67076   0.9345  0.48573     C
H       0.7675    0.477   0.7675     H
H       0.7675   0.7675    0.477     H
C      0.76995  0.48466  0.89617     C
C      0.76995  0.89617  0.48466     C
H       0.8031   0.0132   0.4936     H
H       0.8031   0.4936   0.0132     H
C      0.80499  0.48134  0.80499     C
C      0.80499  0.80499  0.48134     C
C      0.82658  0.49038  0.95238     C
C      0.82658  0.95238  0.49038     C
O      0.88075  0.47851  0.62421     O
O      0.88075  0.62421  0.47851     O
C      0.89617  0.48466  0.76995     C
C      0.89617  0.76995  0.48466     C
Zn     0.91179  0.48674  0.48674    Zn
C      0.91758  0.49133  0.91758     C
C      0.91758  0.91758  0.49133     C
C       0.9345  0.48573  0.67076     C
C       0.9345  0.67076  0.48573     C
C      0.95238  0.49038  0.82658     C
C      0.95238  0.82658  0.49038     C
C      0.97683  0.49763  0.97683     C
C      0.97683  0.97683  0.49763     C
O      0.98579  0.35733  0.50559     O
O      0.98579  0.50559  0.35733     O
H       0.9868   0.1969   0.5064     H
H       0.9868   0.5064   0.1969     H
