data_I
_chemical_name_common  '/home/zhangsd/repos/MofS-CGCNN/ML/data/SSD/clean_cifs/KEHGOV_manual'
_cell_length_a  8.78090
_cell_length_b 28.23330
_cell_length_c 11.38330
_cell_angle_alpha 90.00000
_cell_angle_beta  90.00000
_cell_angle_gamma 90.00000
_space_group_name_H-M_alt      'P 1'


loop_
_space_group_symop_operation_xyz
  'x, y, z' 

loop_
_atom_site_label
_atom_site_fract_x
_atom_site_fract_y
_atom_site_fract_z
_atom_site_type_symbol
Cd     0.00039    4e-05 -0.00067    Cd
C      0.00121  0.35113  0.00032     C
H      0.01575  0.88182  0.49969     H
H      0.01743  0.15577  0.75386     H
H      0.01875   0.1555  0.24578     H
C      0.01919  0.87991  0.22411     C
C      0.02046   0.8796  0.77546     C
N      0.02443  0.79772 -0.00031     N
C       0.0298  0.75019 -0.00037     C
N      0.03323  0.09511  0.86684     N
N      0.03412  0.09493  0.13245     N
C      0.03432  0.40442  0.00027     C
N      0.03859  0.94628  0.13032     N
N      0.03943  0.94609  0.86883     N
H      0.06657  0.40868  0.80927     H
H      0.06747  0.40866   0.1912     H
H      0.06771  0.65752  0.92032     H
H      0.06801  0.65755  0.07856     H
H      0.09907   0.9399  0.49987     H
N      0.11089  0.56894 -0.00041     N
N      0.11109  0.26957   0.0001     N
Cl     0.11113  0.62878  0.63405    Cl
Cl     0.11256  0.62912  0.36408    Cl
N      0.12059  0.19016   -9e-05     N
C      0.12556  0.90154  0.49966     C
N      0.12878  0.90418   0.2818     N
C      0.12947  0.41696  0.89083     C
N       0.1297  0.90392  0.71753     N
C      0.13001  0.41696  0.10947     C
C      0.13616  0.94579  0.22134     C
H      0.13618  0.73096 -0.00033     H
C      0.13684  0.94559  0.77774     C
H       0.1473  0.81414  0.38712     H
H      0.14753  0.81401  0.61125     H
H      0.14952  0.45568  0.89267     H
H      0.14994  0.45568  0.10761     H
C      0.15047  0.32124  0.00011     C
H      0.16612  0.56027  0.81568     H
H       0.1664  0.56024  0.18347     H
H      0.17345  0.73213  0.49901     H
N      0.17643  0.03303  0.44165     N
N      0.17649   0.0331  0.55786     N
H      0.18028  0.32542  0.80791     H
H      0.18122  0.32545  0.19224     H
Cd     0.18345  0.11675 -0.00063    Cd
C      0.19553  0.55505  0.90675     C
C      0.19566  0.55503  0.09236     C
C      0.20322  0.23087   -4e-05     C
H      0.21073  0.97509  0.24095     H
H      0.21093  0.97496  0.75778     H
C      0.21726  0.88953  0.38733     C
C      0.21764  0.88937  0.61168     C
C       0.2449  0.33499  0.88853     C
Cl     0.24501   0.5325  0.49901    Cl
C      0.24551    0.335  0.11144     C
C      0.25453  0.83506  0.38778     C
C       0.2548  0.83491  0.61068     C
Cl     0.25538  0.03256  0.99854    Cl
C      0.28211  0.38946  0.88772     C
C      0.28279  0.38948  0.11208     C
H      0.28829  0.47498  0.74119     H
H      0.29021  0.47513  0.25794     H
C       0.2966  0.73085  0.49922     C
C       0.3044  0.05499  0.40682     C
C       0.3045  0.05509  0.59243     C
Cd     0.31656  0.61673  0.49958    Cd
H      0.31889  0.82558  0.30697     H
H      0.31934  0.82527  0.69129     H
N      0.32357  0.53308  0.94139     N
N      0.32364  0.53307   0.0576     N
H      0.32637  0.23215 -0.00023     H
H      0.33371  0.06014  0.31571     H
H      0.33388  0.06036   0.6835     H
C      0.34938  0.82123  0.49911     C
H      0.34996  0.95575  0.39221     H
H      0.35035  0.95558   0.6071     H
H      0.35215  0.31409  0.88779     H
H      0.35273  0.31408  0.11193     H
C      0.36267  0.44565  0.72145     C
H      0.36387  0.23097  0.49976     H
C      0.36449  0.44579  0.27773     C
C      0.36999  0.91704  0.39018     C
N         0.37  0.40403  0.78187     N
C      0.37031  0.91686  0.60879     C
N      0.37142   0.4041  0.21756     N
C      0.37431  0.40155 -0.00028     C
N      0.37925  0.69014  0.49967     N
Cl     0.38808  0.12928  0.86441    Cl
Cl     0.38819  0.12876  0.13442    Cl
N      0.38874  0.76956    0.499     N
N      0.38914  0.06895  0.49954     N
H      0.40079  0.43991 -0.00035     H
H       0.4321  0.15757  0.57832     H
H      0.43226  0.15753  0.42008     H
H      0.43263  0.90882  0.30845     H
H       0.4331   0.9085  0.69036     H
N      0.46035  0.44615   0.6305     N
N      0.46199  0.44628  0.36878     N
C      0.46557   0.9044  0.49938     C
N      0.46571  0.59497  0.63292     N
N      0.46709  0.59506  0.36737     N
C      0.47025   0.2502  0.49961     C
N      0.47565  0.29773  0.49987     N
C      0.47954  0.37974  0.72418     C
C      0.48078  0.37978  0.27543     C
H      0.48131  0.65559  0.74608     H
H      0.48213  0.65559  0.25392     H
H      0.48413  0.38183 -0.00046     H
C      0.49866  0.85111  0.49911     C
Cd     0.50004      0.5  0.49995    Cd
C       0.5013  0.14889  0.49926     C
H      0.51584  0.61815  0.00045     H
H      0.51787  0.34443  0.74605     H
H      0.51861  0.34438   0.2539     H
C      0.51914  0.62019  0.72454     C
C      0.52047  0.62028  0.27578     C
N      0.52439  0.70227  0.49962     N
C      0.52975  0.74981  0.49923     C
N      0.53288  0.40495  0.63255     N
N      0.53425  0.40502    0.367     N
C      0.53437  0.09559  0.49942     C
N      0.53797  0.55371  0.63114     N
N      0.53967  0.55386  0.36943     N
H      0.56689  0.09146  0.69041     H
H      0.56726  0.09123  0.30847     H
H       0.5677   0.8425  0.41992     H
H      0.56785  0.84241  0.57816     H
H      0.59919  0.56009  0.00041     H
N      0.61078  0.93105  0.49953     N
N      0.61125  0.23044   0.4993     N
Cl     0.61185  0.87091  0.86452    Cl
Cl     0.61204  0.87134  0.13458    Cl
N       0.6208  0.30985  0.49971     N
C      0.62566  0.59844  0.00027     C
N      0.62846  0.59586  0.78242     N
C      0.62966  0.08311  0.60882     C
C      0.62992  0.08299  0.39017     C
N      0.63005  0.59601  0.21811     N
C      0.63542  0.55418  0.72222     C
H      0.63612  0.76904   0.4992     H
C      0.63738  0.55438  0.27851     C
H      0.64719  0.68588   0.8879     H
H      0.64782  0.68594  0.11205     H
H      0.64959  0.04439  0.60709     H
H      0.64991  0.04428  0.39212     H
C      0.65059  0.17876   0.4993     C
H        0.666  0.93964   0.6835     H
H      0.66623  0.93988  0.31572     H
H       0.6735  0.76785 -0.00065     H
N      0.67632  0.46693  0.94242     N
N      0.67643  0.46692  0.05862     N
H      0.68069  0.17466  0.69146     H
H      0.68101  0.17448  0.30714     H
Cd     0.68336  0.38328  0.50028    Cd
C      0.69541  0.94491  0.59244     C
C      0.69554  0.94502  0.40683     C
C      0.70342  0.26914  0.49945     C
H      0.70972  0.52484    0.742     H
H      0.71178  0.52505  0.25878     H
C      0.71715  0.61049  0.88787     C
C       0.7179  0.61057  0.11223     C
C      0.74519  0.16505  0.61081     C
Cl     0.74536  0.96754  0.99829    Cl
C      0.74541  0.16496  0.38791     C
C      0.75441  0.66496  0.88841     C
C      0.75507  0.66504  0.11131     C
Cl     0.75513  0.46749  0.50097    Cl
C      0.78235  0.11058  0.61169     C
C      0.78267  0.11048  0.38734     C
H      0.78948  0.02494  0.75761     H
H      0.78963  0.02487  0.24117     H
C      0.79665  0.76914 -0.00048     C
C      0.80429  0.44497  0.90763     C
C      0.80449  0.44496  0.09325     C
Cd     0.81664  0.88328 -0.00063    Cd
H      0.81867  0.67448  0.80757     H
H      0.81974  0.67464  0.19189     H
N      0.82343  0.96689  0.55789     N
N      0.82352  0.96697  0.44168     N
H      0.82657  0.26785  0.49952     H
H      0.83353  0.43976  0.81652     H
H      0.83393  0.43974  0.18431     H
C      0.84946  0.67876 -0.00032     C
H      0.85003  0.54429   0.8924     H
H       0.8505  0.54435  0.10735     H
H      0.85245  0.18595   0.6114     H
H      0.85264  0.18588  0.38727     H
C      0.86356  0.05432  0.77755     C
H       0.8637  0.26905   -1e-05     H
C      0.86408  0.05419  0.22149     C
C      0.86994  0.58301  0.89049     C
N      0.87043  0.09602  0.71745     N
C      0.87053  0.58307  0.10913     C
N      0.87117  0.09584   0.2818     N
C      0.87437  0.09844  0.49963     C
N      0.87928  0.80985 -0.00034     N
Cl     0.88716  0.37079  0.63597    Cl
N       0.8888  0.73043 -0.00045     N
Cl     0.88904  0.37131  0.36599    Cl
N       0.8891  0.43107  0.00039     N
H      0.90085  0.06009  0.49978     H
H      0.93192  0.34248  0.92129     H
H      0.93226  0.34246  0.07952     H
H      0.93247  0.59129  0.80874     H
H      0.93345  0.59137  0.19067     H
N      0.96111  0.05383  0.86857     N
N      0.96172   0.0537  0.13051     N
C      0.96566  0.59558 -0.00034     C
N      0.96597  0.90509  0.13237     N
N      0.96707  0.90485  0.86701     N
C      0.97007  0.24982    2e-05     C
N      0.97544  0.20228  -0.0001     N
C      0.97963  0.12037  0.77538     C
C      0.98071  0.12013  0.22408     C
H      0.98097  0.84457  0.24588     H
H      0.98243  0.84422  0.75385     H
H      0.98418  0.11816  0.49968     H
C      0.99874  0.64888 -0.00048     C
