data_I
_chemical_name_common  '/home/zhangsd/repos/MofS-CGCNN/ML/data/SSD/clean_cifs/KEHGIP_clean'
_cell_length_a 17.16230
_cell_length_b 13.15600
_cell_length_c 12.86310
_cell_angle_alpha 90.00000
_cell_angle_beta  90.00000
_cell_angle_gamma 90.00000
_space_group_name_H-M_alt      'P 1'


loop_
_space_group_symop_operation_xyz
  'x, y, z' 

loop_
_atom_site_label
_atom_site_fract_x
_atom_site_fract_y
_atom_site_fract_z
_atom_site_type_symbol
N       0.0024     0.25   0.4746     N
H       0.0124   0.6542   0.3436     H
H       0.0124   0.8458   0.3436     H
C       0.0216     0.25   0.3718     C
H       0.0325     0.25   0.8173     H
C       0.0414   0.1542    0.631     C
C       0.0414   0.3458    0.631     C
N       0.0438     0.75   0.6838     N
H       0.0442   0.1099   0.9275     H
H       0.0442   0.3901   0.9275     H
H       0.0493   0.0931   0.5887     H
H       0.0493   0.4069   0.5887     H
N       0.0513   0.5415   0.9129     N
N       0.0513   0.9585   0.9129     N
C        0.057     0.25   0.5658     C
C       0.0572   0.0542    0.885     C
C       0.0572   0.4458    0.885     C
Cu     0.06616     0.75  0.83615    Cu
H       0.0725     0.25   0.3447     H
N       0.0752   0.5975    0.831     N
N       0.0752   0.9025    0.831     N
C       0.0768     0.75   0.5257     C
N       0.0845   0.0615    0.787     N
N       0.0845   0.4385    0.787     N
C       0.0858     0.25   0.7898     C
C       0.0932   0.5344   0.7563     C
C       0.0932   0.9656   0.7563     C
N       0.0939     0.75   0.0722     N
C       0.0989    0.155   0.7235     C
C       0.0989    0.345   0.7235     C
N       0.1059     0.75   0.6165     N
H       0.1071     0.75   0.4648     H
H         0.11   0.5541   0.6898     H
H         0.11   0.9459   0.6898     H
H        0.122     0.25   0.8487     H
N       0.1226     0.75   0.9719     N
C       0.1402     0.25   0.5246     C
H       0.1491   0.1896   0.4817     H
H       0.1491   0.3104   0.4817     H
H       0.1542     0.75   0.2058     H
C       0.1561     0.75   0.1328     C
C       0.1835   0.1538   0.6837     C
C       0.1835   0.3462   0.6837     C
H       0.1926   0.0931   0.6412     H
H       0.1926   0.4069   0.6412     H
C       0.1968     0.25   0.6182     C
C       0.1986     0.75   0.9775     C
H       0.2198   0.1525   0.7425     H
H       0.2198   0.3475   0.7425     H
N       0.2225     0.75   0.0774     N
H       0.2321     0.75   0.9197     H
H       0.2679     0.25   0.4197     H
N       0.2775     0.25   0.5774     N
H       0.2802   0.6525   0.2425     H
H       0.2802   0.8475   0.2425     H
C       0.3014     0.25   0.4775     C
C       0.3032     0.75   0.1182     C
H       0.3074   0.5931   0.1412     H
H       0.3074   0.9069   0.1412     H
C       0.3165   0.6538   0.1837     C
C       0.3165   0.8462   0.1837     C
C       0.3439     0.25   0.6328     C
H       0.3458     0.25   0.7058     H
H       0.3509   0.6896   0.9817     H
H       0.3509   0.8104   0.9817     H
C       0.3598     0.75   0.0246     C
N       0.3774     0.25   0.4719     N
H        0.378     0.75   0.3487     H
H         0.39   0.0541   0.1898     H
H         0.39   0.4459   0.1898     H
H       0.3929     0.25   0.9648     H
N       0.3941     0.25   0.1165     N
C       0.4011    0.655   0.2235     C
C       0.4011    0.845   0.2235     C
N       0.4061     0.25   0.5722     N
C       0.4068   0.0344   0.2563     C
C       0.4068   0.4656   0.2563     C
C       0.4142     0.75   0.2898     C
N       0.4155   0.5615    0.287     N
N       0.4155   0.9385    0.287     N
C       0.4232     0.25   0.0257     C
N       0.4248   0.0975    0.331     N
N       0.4248   0.4025    0.331     N
H       0.4275     0.75   0.8447     H
Cu     0.43384     0.25  0.33615    Cu
C       0.4428   0.5542    0.385     C
C       0.4428   0.9458    0.385     C
C        0.443     0.75   0.0658     C
N       0.4487   0.0415   0.4129     N
N       0.4487   0.4585   0.4129     N
H       0.4507   0.5931   0.0887     H
H       0.4507   0.9069   0.0887     H
H       0.4558   0.6099   0.4275     H
H       0.4558   0.8901   0.4275     H
N       0.4562     0.25   0.1838     N
C       0.4586   0.6542    0.131     C
C       0.4586   0.8458    0.131     C
H       0.4675     0.75   0.3173     H
C       0.4784     0.75   0.8718     C
H       0.4876   0.1542   0.8436     H
H       0.4876   0.3458   0.8436     H
N       0.4976     0.75   0.9746     N
N       0.5024     0.25   0.0254     N
H       0.5124   0.6542   0.1564     H
H       0.5124   0.8458   0.1564     H
C       0.5216     0.25   0.1282     C
H       0.5325     0.25   0.6827     H
C       0.5414   0.1542    0.869     C
C       0.5414   0.3458    0.869     C
N       0.5438     0.75   0.8162     N
H       0.5442   0.1099   0.5725     H
H       0.5442   0.3901   0.5725     H
H       0.5493   0.0931   0.9113     H
H       0.5493   0.4069   0.9113     H
N       0.5513   0.5415   0.5871     N
N       0.5513   0.9585   0.5871     N
C        0.557     0.25   0.9342     C
C       0.5572   0.0542    0.615     C
C       0.5572   0.4458    0.615     C
Cu     0.56616     0.75  0.66385    Cu
H       0.5725     0.25   0.1553     H
N       0.5752   0.5975    0.669     N
N       0.5752   0.9025    0.669     N
C       0.5768     0.75   0.9743     C
N       0.5845   0.0615    0.713     N
N       0.5845   0.4385    0.713     N
C       0.5858     0.25   0.7102     C
C       0.5932   0.5344   0.7437     C
C       0.5932   0.9656   0.7437     C
N       0.5939     0.75   0.4278     N
C       0.5989    0.155   0.7765     C
C       0.5989    0.345   0.7765     C
N       0.6059     0.75   0.8835     N
H       0.6071     0.75   0.0352     H
H         0.61   0.5541   0.8102     H
H         0.61   0.9459   0.8102     H
H        0.622     0.25   0.6513     H
N       0.6226     0.75   0.5281     N
C       0.6402     0.25   0.9754     C
H       0.6491   0.1896   0.0183     H
H       0.6491   0.3104   0.0183     H
H       0.6542     0.75   0.2942     H
C       0.6561     0.75   0.3672     C
C       0.6835   0.1538   0.8163     C
C       0.6835   0.3462   0.8163     C
H       0.6926   0.0931   0.8588     H
H       0.6926   0.4069   0.8588     H
C       0.6968     0.25   0.8818     C
C       0.6986     0.75   0.5225     C
H       0.7198   0.1525   0.7575     H
H       0.7198   0.3475   0.7575     H
N       0.7225     0.75   0.4226     N
H       0.7321     0.75   0.5803     H
H       0.7679     0.25   0.0803     H
N       0.7775     0.25   0.9226     N
H       0.7802   0.6525   0.2575     H
H       0.7802   0.8475   0.2575     H
C       0.8014     0.25   0.0225     C
C       0.8032     0.75   0.3818     C
H       0.8074   0.5931   0.3588     H
H       0.8074   0.9069   0.3588     H
C       0.8165   0.6538   0.3163     C
C       0.8165   0.8462   0.3163     C
C       0.8439     0.25   0.8672     C
H       0.8458     0.25   0.7942     H
H       0.8509   0.6896   0.5183     H
H       0.8509   0.8104   0.5183     H
C       0.8598     0.75   0.4754     C
N       0.8774     0.25   0.0281     N
H        0.878     0.75   0.1513     H
H         0.89   0.0541   0.3102     H
H         0.89   0.4459   0.3102     H
H       0.8929     0.25   0.5352     H
N       0.8941     0.25   0.3835     N
C       0.9011    0.655   0.2765     C
C       0.9011    0.845   0.2765     C
N       0.9061     0.25   0.9278     N
C       0.9068   0.0344   0.2437     C
C       0.9068   0.4656   0.2437     C
C       0.9142     0.75   0.2102     C
N       0.9155   0.5615    0.213     N
N       0.9155   0.9385    0.213     N
C       0.9232     0.25   0.4743     C
N       0.9248   0.0975    0.169     N
N       0.9248   0.4025    0.169     N
H       0.9275     0.75   0.6553     H
Cu     0.93384     0.25  0.16385    Cu
C       0.9428   0.5542    0.115     C
C       0.9428   0.9458    0.115     C
C        0.943     0.75   0.4342     C
N       0.9487   0.0415   0.0871     N
N       0.9487   0.4585   0.0871     N
H       0.9507   0.5931   0.4113     H
H       0.9507   0.9069   0.4113     H
H       0.9558   0.6099   0.0725     H
H       0.9558   0.8901   0.0725     H
N       0.9562     0.25   0.3162     N
C       0.9586   0.6542    0.369     C
C       0.9586   0.8458    0.369     C
H       0.9675     0.75   0.1827     H
C       0.9784     0.75   0.6282     C
H       0.9876   0.1542   0.6564     H
H       0.9876   0.3458   0.6564     H
N       0.9976     0.75   0.5254     N
