data_I
_chemical_name_common  '/home/zhangsd/repos/MofS-CGCNN/ML/data/SSD/clean_cifs/KIKDAL_clean'
_cell_length_a 25.79100
_cell_length_b 25.79100
_cell_length_c 11.12840
_cell_angle_alpha 90.00000
_cell_angle_beta  90.00000
_cell_angle_gamma 120.00000
_space_group_name_H-M_alt      'P 1'


loop_
_space_group_symop_operation_xyz
  'x, y, z' 

loop_
_atom_site_label
_atom_site_fract_x
_atom_site_fract_y
_atom_site_fract_z
_atom_site_type_symbol
Cd         0.0      0.5      0.0    Cd
H       0.0064   0.3819   0.3272     H
S      0.00683  0.86146  0.54191     S
C      0.00864  0.40502   0.2566     C
C      0.01369  0.59697  0.34067     C
H       0.0158   0.4442   0.2811     H
C      0.01606  0.24952  0.88207     C
H       0.0168   0.7249   0.8221     H
H       0.0184   0.2795   0.2976     H
C       0.0186  0.74434   0.7463     C
N       0.0188  0.47051  0.80919     N
C      0.02404  0.21608  0.79467     C
H       0.0241   0.7838   0.7615     H
N      0.02483  0.80626  0.27687     N
N      0.02882   0.5776  0.24195     N
H      0.03017  0.82913  0.33853     H
H      0.03517  0.29213  0.53883     H
H      0.03603  0.17727  0.05527     H
C      0.03987  0.75538  0.14433     C
H       0.0412   0.4097   0.2055     H
H      0.04143  0.64987  0.48877     H
H      0.04217  0.32693  0.66053     H
C      0.04738  0.43945  0.64403     C
H      0.04857  0.70883  0.00613     H
C      0.04885   0.6268    0.811     C
H      0.05383  0.40557  0.96427     H
C      0.05604   0.1996  0.43023     C
N      0.05783  0.60201    0.909     N
H      0.05823  0.37477  0.84457     H
C      0.05874  0.28596  0.97737     C
C      0.05907  0.64807  0.41297     C
C      0.06305  0.32469  0.58993     C
N      0.06466  0.78915  0.24233     N
H      0.06513  0.19857  0.18427     H
H      0.06513  0.59407  0.21387     H
C      0.06567  0.48149  0.73963     C
H      0.06783  0.16947  0.81017     H
C       0.0697  0.75006    0.674     C
C      0.07139  0.20637  0.09877     C
C      0.07169  0.72971  0.07673     C
H      0.07223  0.68507  0.36907     H
H       0.0726   0.8044   0.5472     H
C      0.07482  0.20584  0.77027     C
H      0.07637  0.70183  0.12783     H
C      0.07767  0.39241  0.92037     C
H      0.07823  0.20187  0.68437     H
C      0.08249  0.26767  0.07297     C
C      0.08339  0.34703  0.99267     C
C      0.08382  0.43321  0.54873     C
C      0.08872  0.38218  0.52233     C
N      0.08907  0.78456  0.57528     N
N      0.09032  0.52492  0.07788     N
H      0.09303  0.64257  0.42817     H
H      0.09387  0.53883  0.46693     H
H      0.09507  0.31753  0.61443     H
H      0.09753  0.89427  0.07337     H
C      0.09988  0.68273   0.7846     C
N      0.10127  0.24301  0.41121     N
H      0.10163  0.93217  0.81017     H
H      0.10573  0.20327  0.07337     H
C      0.10612  0.72541   0.6893     C
H      0.11087  0.76173  0.05223     H
H      0.11163  0.23947  0.80027     H
N      0.11477  0.64184  0.94354     N
H      0.11713  0.42637  0.90517     H
C      0.11726  0.47463  0.46133     C
N      0.11789  0.36216  0.09139     N
N      0.11838  0.31454  0.14253     N
N      0.12249  0.39116  0.42433     N
H      0.12363  0.92177  0.68437     H
C      0.12697  0.53169  0.76543     C
C       0.1275  0.53565  0.43693     C
H      0.12783  0.88837  0.80027     H
H      0.13007  0.56913  0.74003     H
C      0.13101  0.92518  0.77027     C
H      0.13147  0.54303  0.35103     H
H       0.1323   0.6365   0.0052     H
H      0.13343  0.93487  0.18427     H
C      0.13373   0.5231   0.0969     C
H      0.13477  0.53323  0.85093     H
C      0.13497  0.92861  0.09877     C
N      0.13718  0.78505  0.52414     N
H      0.13773  0.39847  0.11947     H
S      0.13854  0.14538  0.54191     S
N       0.1396   0.4481  0.38979     N
H      0.14123  0.96397  0.05527     H
C       0.1413  0.69071    0.872     C
N      0.14175  0.89873  0.41121     N
C      0.14357  0.94396  0.43023     C
S      0.14538  0.00683  0.45809     S
C      0.14816  0.74916   0.5937     C
H      0.15607  0.52543  0.72193     H
H      0.16247  0.46563  0.32813     H
H      0.16387  0.56503  0.47683     H
Cd     0.16667  0.33333  0.33333    Cd
Cd     0.16667  0.83333  0.33333    Cd
H      0.16947  0.10163  0.18983     H
H      0.17087  0.20103  0.33853     H
H      0.17727  0.14123  0.94473     H
C      0.18517  0.91751  0.07297     C
S      0.18796  0.65983  0.20857     S
C      0.18977   0.7227  0.23643     C
N      0.19159  0.76793  0.25545     N
C      0.19203  0.97596  0.79467     C
H       0.1921   0.7027   0.6114     H
N      0.19374  0.21856  0.27687     N
S      0.19479  0.52129  0.12476     S
H       0.1956   0.2682   0.5472     H
N      0.19615  0.88162  0.14253     N
C      0.19836  0.73806   0.5679     C
H      0.19857  0.13343  0.81573     H
C       0.1996  0.14357  0.56977     C
H       0.1999   0.7318   0.4824     H
H      0.20103  0.03017  0.66147     H
H      0.20187  0.12363  0.31563     H
C      0.20232  0.74149   0.8964     C
H      0.20327  0.09753  0.92663     H
H       0.2055   0.7783   0.8664     H
C      0.20584  0.13101  0.22973     C
C      0.20637  0.13497  0.90123     C
H       0.2097   0.7449   0.9823     H
N      0.21085   0.2755  0.24233     N
N      0.21495  0.35213  0.52414     N
N      0.21544  0.30451  0.57528     N
C      0.21608  0.19203  0.20533     C
H       0.2162   0.2403   0.7615     H
N      0.21856  0.02483  0.72313     N
H       0.2217   0.4272   0.8664     H
H      0.22247  0.90493  0.61443     H
C      0.22721  0.94126  0.97737     C
H       0.2276   0.4634   0.5933     H
H       0.2317   0.7345   0.8565     H
N      0.23207  0.42365  0.25545     N
C      0.23345  0.98394  0.88207     C
H       0.2358   0.7724   0.5933     H
H      0.23827  0.34913  0.05223     H
H      0.23947  0.12783  0.19973     H
H       0.2403   0.0241   0.2385     H
N      0.24301  0.14175  0.58879     N
N      0.24426  0.88211  0.09139     N
C      0.24462  0.28448  0.14433     C
C      0.24952  0.23345  0.11793     C
C      0.24994  0.31964    0.674     C
C      0.25084    0.399   0.5937     C
H       0.2551   0.4648   0.9823     H
C      0.25566  0.27426   0.7463     C
H      0.25697  0.96483  0.53883     H
C      0.25851  0.46083   0.8964     C
H      0.26073  0.86227  0.11947     H
H       0.2611   0.9816   0.2976     H
C      0.26165  0.93695  0.58993     C
C      0.26194   0.4603   0.5679     C
C      0.26363  0.91661  0.99267     C
H       0.2655   0.4972   0.8565     H
C      0.26767  0.18517  0.92703     C
H       0.2682   0.0726   0.4528     H
H       0.2682   0.4681   0.4824     H
N      0.26868  0.87751  0.42433     N
C      0.27029  0.34197  0.07673     C
C      0.27426   0.0186   0.2537     C
C      0.27459  0.38071   0.6893     C
H       0.2751   0.2919   0.8221     H
N       0.2755  0.06466  0.75767     N
C       0.2773  0.46706  0.23643     C
H       0.2795   0.2611   0.7024     H
C      0.28448  0.03987  0.85567     C
H      0.28477  0.95783  0.66053     H
C      0.28596  0.22721  0.02263     C
H      0.29117  0.33973  0.00613     H
H       0.2919   0.0168   0.1779     H
H      0.29213  0.25697  0.46117     H
C      0.29347  0.91128  0.52233     C
H       0.2973   0.4894   0.6114     H
H      0.29817  0.37453  0.12783     H
H      0.30317  0.83753  0.32813     H
N      0.30451  0.08907  0.42472     N
N      0.30851   0.8604  0.38979     N
H      0.30923  0.88287  0.90517     H
C      0.30929  0.45059    0.872     C
N      0.31454  0.19615  0.85747     N
C      0.31473  0.92233  0.92037     C
H      0.31493  0.38717  0.36907     H
H      0.31653  0.94177  0.84457     H
C      0.31727  0.41715   0.7846     C
H      0.31753  0.22247  0.38557     H
C      0.31964   0.0697    0.326     C
C      0.32469  0.26165  0.41007     C
S       0.3265  0.80521  0.12476     S
H      0.32693  0.28477  0.33947     H
Cd     0.33333  0.16667  0.66667    Cd
H      0.33973  0.04857  0.99387     H
S      0.34017  0.52812  0.20857     S
C      0.34197  0.07169  0.92327     C
C      0.34703  0.26363  0.00733     C
H      0.34913  0.11087  0.94777     H
C       0.3494  0.91618  0.54873     C
H      0.35013  0.39157  0.48877     H
H      0.35173  0.94617  0.96427     H
C      0.35193  0.41101  0.41297     C
N      0.35213  0.13718  0.47586     N
C      0.35738  0.88274  0.46133     C
H      0.35743  0.45047  0.42817     H
N      0.35816  0.47293  0.94354     N
N      0.36216  0.24426  0.90861     N
H       0.3635   0.4958   0.0052     H
H       0.3685   0.9588   0.2055     H
H      0.36937  0.84393  0.72193     H
C       0.3732  0.42205    0.811     C
H      0.37453  0.07637  0.87217     H
H      0.37477  0.31653  0.15543     H
H       0.3755   0.9936   0.3272     H
C      0.38071  0.10612   0.3107     C
H       0.3819   0.3755   0.6728     H
C      0.38218  0.29347  0.47767     C
H      0.38717  0.07223  0.63093     H
C      0.38937  0.86627   0.0969     C
N      0.39116  0.26868  0.57567     N
H      0.39157  0.04143  0.51123     H
C      0.39208  0.95262  0.64403     C
C      0.39241  0.31473  0.07963     C
C      0.39638  0.99136   0.2566     C
N      0.39799  0.45582    0.909     N
H      0.39847  0.26073  0.88053     H
H      0.39847  0.86523  0.85093     H
C        0.399  0.14816   0.4063     C
H      0.40117  0.83613  0.47683     H
C      0.40303  0.41673  0.34067     C
C      0.40473  0.87303  0.76543     C
C      0.40502  0.39638   0.7434     C
H      0.40557  0.35173  0.03573     H
H      0.40593  0.47107  0.21387     H
C      0.40816   0.8725  0.43693     C
H       0.4097   0.3685   0.7945     H
C      0.41101  0.05907  0.58703     C
H      0.41157  0.86853  0.35103     H
C      0.41583  0.93433  0.73963     C
C      0.41673  0.01369  0.65933     C
C      0.41715  0.09988   0.2154     C
C      0.42205  0.04885    0.189     C
N       0.4224  0.45123  0.24195     N
N      0.42365  0.19159  0.74455     N
H      0.42637  0.30923  0.09483     H
H       0.4272   0.2055   0.1336     H
H       0.4284   0.9842   0.2811     H
H      0.43087  0.56093  0.74003     H
C      0.43321   0.3494  0.45127     C
N       0.4346  0.90968  0.07788     N
H      0.43497  0.59883  0.47683     H
H      0.43907  0.86993  0.74003     H
C      0.43945  0.39208  0.35597     C
H       0.4442   0.4284   0.7189     H
H      0.44497  0.90613  0.46693     H
N       0.4481  0.30851  0.61021     N
H      0.45047  0.09303  0.57183     H
C      0.45059   0.1413    0.128     C
N      0.45123  0.02882  0.75805     N
N      0.45172   0.9812  0.80919     N
N      0.45582  0.05783    0.091     N
H      0.45697  0.58843  0.35103     H
C       0.4603  0.19836   0.4321     C
C      0.46083  0.20232   0.1036     C
H      0.46117  0.55503  0.46693     H
H       0.4634   0.2358   0.4067     H
C      0.46435  0.59184  0.43693     C
H       0.4648   0.2097   0.0177     H
H      0.46563  0.30317  0.67187     H
H      0.46677  0.60153  0.85093     H
C      0.46706  0.18977  0.76357     C
H       0.4681   0.1999   0.5176     H
C      0.46831  0.59527  0.76543     C
N      0.47051  0.45172  0.19081     N
H      0.47107  0.06513  0.78613     H
S      0.47188  0.81204  0.20857     S
N      0.47293  0.11477  0.05646     N
H      0.47457  0.63063  0.72193     H
C      0.47463  0.35738  0.53867     C
N      0.47508   0.5654  0.07788     N
C       0.4769  0.61063   0.0969     C
S      0.47871   0.6735  0.12476     S
C      0.48149  0.41583  0.26037     C
H       0.4894   0.1921   0.3886     H
H       0.4958   0.1323   0.9948     H
H       0.4972   0.2317   0.1435     H
Cd         0.5      0.0      0.0    Cd
Cd         0.5      0.5      0.0    Cd
H       0.5028   0.7683   0.8565     H
H       0.5042   0.8677   0.0052     H
H       0.5106   0.8079   0.6114     H
C      0.51851  0.58417  0.73963     C
S      0.52129   0.3265  0.87524     S
C       0.5231  0.38937   0.9031     C
N      0.52492   0.4346  0.92212     N
C      0.52537  0.64262  0.46133     C
H      0.52543  0.36937  0.27807     H
N      0.52707  0.88523  0.94354     N
S      0.52812  0.18796  0.79143     S
H      0.52893  0.93487  0.21387     H
N      0.52949  0.54828  0.80919     N
C      0.53169  0.40473  0.23457     C
H       0.5319   0.8001   0.4824     H
C      0.53294  0.81023  0.23643     C
H      0.53323  0.39847  0.14907     H
H      0.53437  0.69683  0.32813     H
H       0.5352   0.7903   0.9823     H
C      0.53565  0.40816  0.56307     C
H       0.5366   0.7642   0.5933     H
H      0.53883  0.44497  0.53307     H
C      0.53917  0.79768   0.8964     C
C       0.5397  0.80164   0.5679     C
H      0.54303  0.41157  0.64897     H
N      0.54418  0.94217    0.909     N
N      0.54828   0.0188  0.19081     N
N      0.54877  0.97118  0.24195     N
C      0.54941   0.8587    0.872     C
H      0.54953  0.90697  0.42817     H
N       0.5519  0.69149  0.38979     N
H      0.55503  0.09387  0.53307     H
H       0.5558   0.5716   0.2811     H
C      0.56055  0.60792  0.64403     C
H      0.56093  0.13007  0.25997     H
H      0.56503  0.40117  0.52317     H
N       0.5654  0.09032  0.92212     N
C      0.56679   0.6506  0.54873     C
H      0.56913  0.43907  0.25997     H
H       0.5716   0.0158   0.7189     H
H       0.5728   0.7945   0.8664     H
H      0.57363  0.69077  0.90517     H
N      0.57635  0.80841  0.25545     N
N       0.5776  0.54877  0.75805     N
C      0.57795  0.95115    0.811     C
C      0.58285  0.90012   0.7846     C
C      0.58327  0.98631  0.34067     C
C      0.58417  0.06567  0.26037     C
H      0.58843  0.13147  0.64897     H
C      0.58899  0.94093  0.41297     C
H       0.5903   0.6315   0.2055     H
C      0.59184   0.1275  0.56307     C
H      0.59407  0.52893  0.78613     H
H      0.59443  0.64827  0.96427     H
C      0.59498  0.60362   0.2566     C
C      0.59527  0.12697  0.23457     C
C      0.59697  0.58327  0.65933     C
H      0.59883  0.16387  0.52317     H
C        0.601  0.85184   0.5937     C
H      0.60153  0.13477  0.14907     H
H      0.60153  0.73927  0.11947     H
N      0.60201  0.54418    0.091     N
C      0.60362  0.00864   0.7434     C
C      0.60759  0.68527  0.92037     C
C      0.60792  0.04738  0.35597     C
H      0.60843  0.95857  0.48877     H
N      0.60884  0.73132  0.42433     N
C      0.61063  0.13373   0.9031     C
H      0.61283  0.92777  0.36907     H
C      0.61782  0.70653  0.52233     C
H       0.6181   0.6245   0.3272     H
C      0.61929  0.89388   0.6893     C
H       0.6245   0.0064   0.6728     H
H      0.62523  0.68347  0.84457     H
H      0.62547  0.92363  0.12783     H
C       0.6268  0.57795    0.189     C
H      0.63063  0.15607  0.27807     H
H       0.6315   0.0412   0.7945     H
H       0.6365   0.5042   0.9948     H
N      0.63784  0.75574  0.09139     N
N      0.64184  0.52707  0.05646     N
H      0.64257  0.54953  0.57183     H
C      0.64262  0.11726  0.53867     C
N      0.64787  0.86282  0.52414     N
C      0.64807  0.58899  0.58703     C
H      0.64827  0.05383  0.03573     H
H      0.64987  0.60843  0.51123     H
C       0.6506  0.08382  0.45127     C
H      0.65087  0.88913  0.05223     H
C      0.65297  0.73637  0.99267     C
C      0.65803  0.92831  0.07673     C
S      0.65983  0.47188  0.79143     S
H      0.66027  0.95143  0.00613     H
Cd     0.66667  0.83333  0.33333    Cd
H      0.67307  0.71523  0.66053     H
S       0.6735  0.19479  0.87524     S
C      0.67531  0.73835  0.58993     C
C      0.68036   0.9303    0.674     C
H      0.68247  0.77753  0.61443     H
C      0.68273  0.58285   0.2154     C
H      0.68347  0.05823  0.15543     H
H      0.68507  0.61283  0.63093     H
C      0.68527  0.07767  0.07963     C
N      0.68546  0.80385  0.14253     N
C      0.69071  0.54941    0.128     C
H      0.69077  0.11713  0.09483     H
N      0.69149   0.1396  0.61021     N
N      0.69549  0.91093  0.57528     N
H      0.69683  0.16247  0.67187     H
H      0.70183  0.62547  0.87217     H
H       0.7027   0.5106   0.3886     H
C      0.70653  0.08872  0.47767     C
H      0.70787  0.74303  0.53883     H
H       0.7081   0.9832   0.8221     H
H      0.70883  0.66027  0.99387     H
C      0.71404  0.77279  0.97737     C
H      0.71523  0.04217  0.33947     H
C      0.71552  0.96013  0.14433     C
H       0.7205   0.7389   0.2976     H
C       0.7227  0.53294  0.76357     C
N       0.7245  0.93534  0.24233     N
H       0.7249   0.7081   0.1779     H
C      0.72541  0.61929   0.3107     C
C      0.72574   0.9814   0.7463     C
C      0.72971  0.65803  0.92327     C
N      0.73132  0.12249  0.57567     N
H       0.7318   0.5319   0.5176     H
H       0.7318   0.9274   0.5472     H
C      0.73233  0.81483  0.07297     C
H       0.7345   0.5028   0.1435     H
C      0.73637  0.08339  0.00733     C
C      0.73806   0.5397   0.4321     C
C      0.73835  0.06305  0.41007     C
H       0.7389   0.0184   0.7024     H
H      0.73927  0.13773  0.88053     H
C      0.74149  0.53917   0.1036     C
H      0.74303  0.03517  0.46117     H
C      0.74434  0.72574   0.2537     C
H       0.7449   0.5352   0.0177     H
C      0.74916    0.601   0.4063     C
C      0.75006  0.68036    0.326     C
C      0.75048  0.76655  0.88207     C
C      0.75538  0.71552  0.85567     C
N      0.75574  0.11789  0.90861     N
N      0.75699  0.85825  0.41121     N
H       0.7597   0.9759   0.7615     H
H      0.76053  0.87217  0.80027     H
H      0.76173  0.65087  0.94777     H
H       0.7642   0.2276   0.4067     H
C      0.76655  0.01606  0.11793     C
N      0.76793  0.57635  0.74455     N
H       0.7683   0.2655   0.1435     H
H       0.7724   0.5366   0.4067     H
C      0.77279  0.05874  0.02263     C
H      0.77753  0.09507  0.38557     H
H       0.7783   0.5728   0.1336     H
N      0.78144  0.97517  0.27687     N
H       0.7838   0.7597   0.2385     H
C      0.78392  0.80797  0.79467     C
N      0.78456  0.69549  0.42472     N
N      0.78505  0.64787  0.47586     N
N      0.78915   0.7245  0.75767     N
H       0.7903   0.2551   0.0177     H
C      0.79363  0.86503  0.09877     C
C      0.79416  0.86899  0.77027     C
H       0.7945   0.2217   0.1336     H
H      0.79673  0.90247  0.07337     H
C      0.79768  0.25851   0.1036     C
H      0.79813  0.87637  0.68437     H
H      0.79897  0.96983  0.33853     H
H       0.8001   0.2682   0.5176     H
C       0.8004  0.85643  0.43023     C
H      0.80143  0.86657  0.18427     H
C      0.80164  0.26194   0.4321     C
N      0.80385  0.11838  0.85747     N
H       0.8044   0.7318   0.4528     H
S      0.80521  0.47871  0.87524     S
N      0.80626  0.78144  0.72313     N
H       0.8079   0.2973   0.3886     H
C      0.80797  0.02404  0.20533     C
N      0.80841  0.23207  0.74455     N
C      0.81023   0.2773  0.76357     C
S      0.81204  0.34017  0.79143     S
C      0.81483  0.08249  0.92703     C
H      0.82273  0.85877  0.05527     H
H      0.82913  0.79897  0.66147     H
H      0.83053  0.89837  0.81017     H
Cd     0.83333  0.16667  0.66667    Cd
Cd     0.83333  0.66667  0.66667    Cd
H      0.83613  0.43497  0.52317     H
H      0.83753  0.53437  0.67187     H
H      0.84393  0.47457  0.27807     H
C      0.85184  0.25084   0.4063     C
S      0.85462  0.99317  0.54191     S
C      0.85643  0.05604  0.56977     C
N      0.85825  0.10127  0.58879     N
C       0.8587  0.30929    0.128     C
H      0.85877  0.03603  0.94473     H
N       0.8604   0.5519  0.61021     N
S      0.86146  0.85462  0.45809     S
H      0.86227  0.60153  0.88053     H
N      0.86282  0.21495  0.47586     N
C      0.86503  0.07139  0.90123     C
H      0.86523  0.46677  0.14907     H
C      0.86627   0.4769   0.9031     C
H      0.86657  0.06513  0.81573     H
H       0.8677   0.3635   0.9948     H
H      0.86853  0.45697  0.64897     H
C      0.86899  0.07482  0.22973     C
H      0.86993  0.43087  0.25997     H
H      0.87217  0.11163  0.19973     H
C       0.8725  0.46435  0.56307     C
C      0.87303  0.46831  0.23457     C
H      0.87637  0.07823  0.31563     H
N      0.87751  0.60884  0.57567     N
N      0.88162  0.68546  0.85747     N
N      0.88211  0.63784  0.90861     N
C      0.88274  0.52537  0.53867     C
H      0.88287  0.57363  0.09483     H
N      0.88523  0.35816  0.05646     N
H      0.88837  0.76053  0.19973     H
H      0.88913  0.23827  0.94777     H
C      0.89388  0.27459   0.3107     C
H      0.89427  0.79673  0.92663     H
H      0.89837  0.06783  0.18983     H
N      0.89873  0.75699  0.58879     N
C      0.90012  0.31727   0.2154     C
H      0.90247  0.10573  0.92663     H
H      0.90493  0.68247  0.38557     H
H      0.90613  0.46117  0.53307     H
H      0.90697  0.35743  0.57183     H
N      0.90968  0.47508  0.92212     N
N      0.91093  0.21544  0.42472     N
C      0.91128  0.61782  0.47767     C
C      0.91618  0.56679  0.45127     C
C      0.91661  0.65297  0.00733     C
C      0.91751  0.73233  0.92703     C
H      0.92177  0.79813  0.31563     H
C      0.92233  0.60759  0.07963     C
H      0.92363  0.29817  0.87217     H
C      0.92518  0.79416  0.22973     C
H       0.9274   0.1956   0.4528     H
H      0.92777  0.31493  0.63093     H
C      0.92831  0.27029  0.92327     C
C      0.92861  0.79363  0.90123     C
C       0.9303  0.24994    0.326     C
H      0.93217  0.83053  0.18983     H
C      0.93433  0.51851  0.26037     C
H      0.93487  0.40593  0.78613     H
H      0.93487  0.80143  0.81573     H
N      0.93534  0.21085  0.75767     N
C      0.93695  0.67531  0.41007     C
C      0.94093  0.35193  0.58703     C
C      0.94126  0.71404  0.02263     C
H      0.94177  0.62523  0.15543     H
N      0.94217  0.39799    0.091     N
C      0.94396   0.8004  0.56977     C
H      0.94617  0.59443  0.03573     H
C      0.95115   0.3732    0.189     C
H      0.95143  0.29117  0.99387     H
C      0.95262  0.56055  0.35597     C
H      0.95783  0.67307  0.33947     H
H      0.95857  0.35013  0.51123     H
H       0.9588   0.5903   0.7945     H
C      0.96013  0.24462  0.85567     C
H      0.96397  0.82273  0.94473     H
H      0.96483  0.70787  0.46117     H
H      0.96983  0.17087  0.66147     H
N      0.97118   0.4224  0.75805     N
N      0.97517  0.19374  0.72313     N
H       0.9759   0.2162   0.2385     H
C      0.97596  0.78392  0.20533     C
N       0.9812  0.52949  0.19081     N
C       0.9814  0.25566   0.2537     C
H       0.9816   0.7205   0.7024     H
H       0.9832   0.2751   0.1779     H
C      0.98394  0.75048  0.11793     C
H       0.9842   0.5558   0.7189     H
C      0.98631  0.40303  0.65933     C
C      0.99136  0.59498   0.7434     C
S      0.99317  0.13854  0.45809     S
H       0.9936   0.6181   0.6728     H
