data_I
_chemical_name_common  '/home/zhangsd/repos/MofS-CGCNN/ML/data/SSD/clean_cifs/KIPKAX_clean'
_cell_length_a  8.06590
_cell_length_b 21.26210
_cell_length_c 22.71820
_cell_angle_alpha 82.91900
_cell_angle_beta  82.36900
_cell_angle_gamma 80.02500
_space_group_name_H-M_alt      'P 1'


loop_
_space_group_symop_operation_xyz
  'x, y, z' 

loop_
_atom_site_label
_atom_site_fract_x
_atom_site_fract_y
_atom_site_fract_z
_atom_site_type_symbol
F       0.0076   0.1133  0.51727     F
C       0.0138   0.1672   0.2136     C
C       0.0159   0.0143   0.6739     C
C       0.0185   0.8934   0.7647     C
C       0.0187   0.6944    0.429     C
C       0.0189   0.7204   0.5456     C
H       0.0206   0.6862   0.3896     H
H       0.0224   0.7296   0.5844     H
F       0.0277  0.85423  0.57406     F
H       0.0289   0.2528   0.8501     H
F       0.0314   0.0125   0.3695     F
H       0.0386   0.0715   0.2162     H
F       0.0447  0.07372  0.65029     F
O       0.0521    0.729   0.0214     O
C       0.0569   0.2245   0.9646     C
O       0.0579   0.1672   0.9891     O
O         0.07   0.6683   0.7526     O
C       0.0713   0.7102   0.7869     C
C       0.0725   0.7797   0.7568     C
C       0.0753   0.2487   0.5515     C
C       0.0819   0.2364    0.492     C
O       0.0821   0.7013   0.8416     O
C       0.0903   0.1269   0.4636     C
H       0.1034   0.0887   0.7468     H
C       0.1101   0.6498   0.4683     C
C       0.1135   0.6643   0.5264     C
F       0.1148  0.97814  0.28361     F
H       0.1336    0.219   0.5782     H
C       0.1355   0.9033   0.7144     C
O       0.1429   0.6072  0.62142     O
C       0.1431   0.2457   0.8556     C
C       0.1468   0.1716   0.1603     C
H       0.1526   0.1147   0.8372     H
F       0.1608   0.7475   0.2866     F
C       0.1614   0.0578   0.7726     C
O       0.1618   0.1294   0.1248     O
O       0.1639   0.0309   0.9659     O
C       0.1746   0.9727   0.6991     C
C       0.1756   0.7901   0.7053     C
O       0.1761   0.5384     0.49     O
F       0.1763   0.7995  0.19884     F
F       0.1804  0.07242  0.44681     F
C       0.1835   0.5856   0.4502     C
C       0.1908   0.2337   0.9132     C
C       0.1928   0.0735   0.8264     C
Yb     0.19759  0.57709  0.71559    Yb
C       0.1976   0.1801   0.4635     C
O       0.2067   0.4683    0.706     O
C       0.2095    0.851   0.6835     C
C       0.2154   0.9961   0.7564     C
C       0.2197   0.6211   0.5693     C
H       0.2246   0.7554   0.6842     H
H       0.2314   0.2539   0.7679     H
H       0.2356   0.1378   0.3515     H
O       0.2381   0.2142   0.1569     O
Yb     0.23953  0.09279   0.0371    Yb
O       0.2531   0.5775  0.39764     O
C       0.2618   0.7525   0.2353     C
C       0.2655   0.2472    0.806     C
F       0.2726   0.6984  0.21037     F
C       0.2733   0.2055   0.4013     C
C       0.2753   0.1767   0.3493     C
H       0.2814   0.8568   0.6484     H
C        0.284   0.0462   0.9271     C
C        0.285   0.0283   0.8656     C
F       0.2863   0.8556  0.29677     F
F        0.302   0.1203  0.55212     F
F       0.3031   0.9682  0.59774     F
O       0.3075    0.393  0.51097     O
C       0.3114   0.9518   0.7938     C
C       0.3302   0.9783   0.6521     C
C       0.3358   0.2054   0.2945     C
C       0.3371    0.263   0.3966     C
H        0.338   0.1853   0.2602     H
H       0.3402   0.2821   0.4311     H
C       0.3456   0.4555   0.6742     C
C       0.3456   0.9674   0.8478     C
C         0.35   0.1519   0.4995     C
O       0.3511   0.1907  0.02381     O
H       0.3533    0.911   0.7823     H
C        0.362   0.2295     0.92     C
O       0.3727   0.6026  0.55347     O
O       0.3733   0.3602   0.2244     O
F       0.3768  0.03591  0.64811     F
O       0.3796   0.3972     0.37     O
C       0.3797   0.4103   0.5506     C
O       0.3859   0.6449  0.68565     O
F       0.3871   0.8784    0.206     F
Yb     0.38714  0.47082  0.43305    Yb
O       0.3898   0.0781   0.9409     O
C       0.3927   0.2633     0.29     C
C       0.3956   0.2922   0.3422     C
H       0.4024   0.7713   0.1251     H
C       0.4056   0.3874   0.6617     C
C       0.4126   0.3666   0.6049     C
C       0.4156   0.2254   0.9802     C
C       0.4174   0.8393   0.2551     C
C       0.4252   0.3008   0.2297     C
F       0.4319  0.19697  0.51079     F
O       0.4319   0.4999  0.65634     O
C       0.4341   0.2392   0.8123     C
C       0.4344   0.9152    0.889     C
H       0.4359   0.3558   0.7474     H
C       0.4365   0.7672   0.2441     C
O       0.4377   0.4629   0.5422     O
O       0.4426   0.8585   0.8782     O
F       0.4442   0.1477  0.72613     F
C       0.4467   0.3422   0.7095     C
H       0.4473   0.7846   0.3612     H
H       0.4611   0.2871   0.5612     H
C       0.4621   0.3015   0.5982     C
F       0.4624   0.1099    0.469     F
Yb     0.46276  0.24693   0.0961    Yb
F       0.4631  0.93571  0.66758     F
C       0.4684   0.3536   0.3415     C
O        0.479   0.7402   0.0102     O
C       0.4837   0.2319   0.8699     C
C       0.4876    0.742   0.3548     C
O       0.4931   0.9325   0.9333     O
C       0.4966   0.7226   0.2973     C
O       0.4986   0.2692    0.186     O
O       0.5014   0.7308    0.814     O
C       0.5034   0.2774   0.7027     C
O       0.5069   0.0675   0.0667     O
C       0.5124    0.258   0.6452     C
C       0.5163   0.7681   0.1301     C
O        0.521   0.2598   0.9898     O
C       0.5316   0.6464   0.6585     C
F       0.5369  0.06429  0.33242     F
Yb     0.53724  0.75307  0.90391    Yb
F       0.5376   0.8901    0.531     F
C       0.5379   0.6985   0.4018     C
H       0.5389   0.7129   0.4388     H
H       0.5527   0.2154   0.6388     H
C       0.5533   0.6578   0.2905     C
F       0.5558   0.8523  0.27387     F
O       0.5574   0.1415   0.1218     O
O       0.5623   0.5371   0.4578     O
C       0.5635   0.2328   0.7559     C
H       0.5641   0.6442   0.2526     H
C       0.5656   0.0848    0.111     C
C       0.5659   0.7608   0.1877     C
O       0.5681   0.5001  0.34366     O
F       0.5681  0.80303  0.48921     F
C       0.5748   0.6992   0.7703     C
C       0.5826   0.1607   0.7449     C
C       0.5844   0.7746   0.0198     C
C       0.5874   0.6334   0.3951     C
C       0.5944   0.6126   0.3383     C
H       0.5976   0.2287   0.8749     H
C       0.6044   0.7078   0.6578     C
C       0.6073   0.7367     0.71     C
O       0.6102   0.9219   0.0591     O
Yb     0.61286  0.52918  0.56695    Yb
F       0.6129   0.1216    0.794     F
O       0.6141   0.3551  0.31435     O
C       0.6203   0.5897   0.4494     C
O       0.6204   0.6028     0.63     O
F       0.6232  0.96409  0.35189     F
O       0.6267   0.6398   0.7756     O
O       0.6273   0.3974  0.44653     O
C        0.638   0.7705     0.08     C
H       0.6467    0.089   0.2177     H
O       0.6489   0.8093  0.97619     O
C         0.65   0.8481   0.5005     C
C       0.6544   0.0326   0.1522     C
C       0.6544   0.5445   0.3258     C
H       0.6598   0.7179   0.5689     H
H        0.662   0.8147   0.7398     H
C       0.6629    0.737   0.6034     C
C       0.6642   0.7946   0.7055     C
C       0.6698   0.0217   0.3479     C
C       0.6886   0.0482   0.2062     C
O       0.6925    0.607  0.48903     O
F       0.6969   0.0318  0.40226     F
F        0.698   0.8797  0.44788     F
F       0.7137   0.1444  0.70323     F
C        0.715   0.9717   0.1344     C
C        0.716   0.9538   0.0729     C
H       0.7186   0.1432   0.3516     H
C       0.7247   0.8233   0.6507     C
C       0.7267   0.7945   0.5987     C
F       0.7274   0.3016  0.78963     F
C       0.7345   0.7528    0.194     C
C       0.7382   0.2475   0.7647     C
O       0.7469   0.4225  0.60236     O
Yb     0.76047  0.90721   0.9629    Yb
O       0.7619   0.7858   0.8431     O
H       0.7644   0.8622   0.6485     H
H       0.7686   0.7461   0.2321     H
H       0.7754   0.2446   0.3158     H
C       0.7803   0.3789   0.4307     C
C       0.7846   0.0039   0.2436     C
C       0.7905    0.149   0.3165     C
O       0.7933   0.5317    0.294     O
C       0.8024   0.8199   0.5365     C
Yb     0.80241  0.42291  0.28441    Yb
C       0.8072   0.9265   0.1736     C
C       0.8092   0.7663   0.0868     C
C       0.8165   0.4144   0.5498     C
F       0.8196  0.92758  0.55319     F
F       0.8237   0.2005  0.80116     F
O       0.8239   0.4616     0.51     O
C       0.8244   0.2099   0.2947     C
C       0.8254   0.0273   0.3009     C
O       0.8361   0.9691   0.0341     O
O       0.8382   0.8706   0.8752     O
C       0.8386   0.9422   0.2274     C
F       0.8392   0.2525   0.7134     F
H       0.8474   0.8853   0.1628     H
C       0.8532   0.8284   0.8397     C
C       0.8569   0.7543   0.1444     C
O       0.8571   0.3928  0.37858     O
C       0.8645   0.0967   0.2856     C
H       0.8664    0.781   0.4218     H
F       0.8852  0.02186  0.71639     F
C       0.8865   0.3357   0.4736     C
C       0.8899   0.3502   0.5317     C
H       0.8966   0.9113   0.2532     H
C       0.9097   0.8731   0.5364     C
O       0.9179   0.2987   0.1584     O
C       0.9181   0.7636    0.508     C
C       0.9247   0.7513   0.4485     C
C       0.9275   0.2203   0.2432     C
C       0.9287   0.2898   0.2131     C
O         0.93   0.3317   0.2474     O
O       0.9421   0.8328   0.0109     O
C       0.9431   0.7755   0.0354     C
O       0.9479    0.271   0.9786     O
F       0.9553  0.92628  0.34971     F
H       0.9614   0.9285   0.7838     H
F       0.9686   0.9875   0.6305     F
H       0.9711   0.7472   0.1499     H
F       0.9723  0.14577  0.42594     F
H       0.9776   0.2704   0.4156     H
H       0.9794   0.3138   0.6104     H
C       0.9811   0.2796   0.4544     C
C       0.9813   0.3056    0.571     C
C       0.9815   0.1066   0.2353     C
C       0.9841   0.9857   0.3261     C
C       0.9862   0.8328   0.7864     C
F       0.9924   0.8867  0.48273     F
