data_I
_chemical_name_common  '/home/zhangsd/repos/MofS-CGCNN/ML/data/SSD/clean_cifs/KISPOS_ion_b'
_cell_length_a 29.91550
_cell_length_b 29.91550
_cell_length_c 29.91550
_cell_angle_alpha 33.40320
_cell_angle_beta  33.40320
_cell_angle_gamma 33.40320
_space_group_name_H-M_alt      'P 1'


loop_
_space_group_symop_operation_xyz
  'x, y, z' 

loop_
_atom_site_label
_atom_site_fract_x
_atom_site_fract_y
_atom_site_fract_z
_atom_site_type_symbol
O      0.00032  0.92062  0.78932     O
H       0.0014   0.5343   0.1131     H
C      0.00402  0.48082  0.39462     C
C      0.00748  0.01588  0.23188     C
C      0.00807  0.80757  0.06127     C
C      0.00944  0.08044  0.46064     C
C      0.00985  0.41605  0.17985     C
O      0.01134  0.84974  0.66574     O
O      0.01335  0.16885  0.20185     O
C      0.01355  0.02225  0.79605     C
H        0.014   0.5991   0.7627     H
C      0.01588  0.23188  0.00748     C
C      0.01794  0.55554  0.51934     C
C      0.01918  0.49598  0.10538     C
C      0.01934  0.05554  0.51794     C
C      0.02225  0.79605  0.01355     C
H       0.0243   0.3955   0.5481     H
H       0.0299   0.3049   0.2192     H
C      0.03245  0.22775  0.94755     C
H       0.0339   0.0441   0.8251     H
H       0.0343   0.5014   0.6131     H
O       0.0353   0.6588   0.9496     O
C      0.03574  0.35844  0.16924     C
C      0.03936  0.41956  0.49056     C
Co     0.04249  0.77919  0.85469    Co
H       0.0441   0.8251   0.0339     H
H       0.0456   0.9308   0.1955     H
H       0.0481   0.8955   0.5243     H
O       0.0504   0.9647   0.3412     O
C      0.05245  0.96755  0.77225     C
C      0.05554  0.51794  0.01934     C
C      0.06003  0.20733  0.85003     C
C      0.06127  0.00807  0.80757     C
Co      0.0615  0.74219  0.75943    Co
C      0.06286  0.93456  0.39536     C
O      0.06522  0.74682  0.92942     O
C      0.06544  0.60464  0.93714     C
C      0.06866  0.09826  0.32246     C
H       0.0692   0.8045   0.9544     H
H       0.0694   0.2002   0.8174     H
O       0.0703   0.2625   0.1372     O
C      0.07038  0.38148  0.08348     C
O      0.07058  0.93478  0.25318     O
O      0.07938  0.21068  0.99968     O
C      0.08044  0.46064  0.00944     C
C      0.08348  0.07038  0.38148     C
C      0.08395  0.49015  0.32015     C
C      0.09826  0.32246  0.06866     C
H       0.0991    0.514   0.2627     H
C      0.10246  0.24046  0.85916     C
O      0.10248  0.61768  0.86078     O
H       0.1045   0.4757   0.9519     H
C      0.10464  0.56544  0.43714     C
C      0.10538  0.01918  0.49598     C
H       0.1062   0.6792   0.2212     H
H       0.1131   0.0014   0.5343     H
C      0.11457  0.23297  0.80897     C
O      0.11768  0.60248  0.36078     O
C      0.11852  0.42962  0.41652     C
H       0.1359   0.1929   0.6649     H
O       0.1372   0.0703   0.2625     O
O      0.13786  0.66476  0.70536     O
K      0.13815     0.75  0.36185     K
O      0.13922  0.89752  0.38232     O
C      0.14084  0.89754  0.75954     C
Co      0.1411   0.1411   0.1411    Co
H       0.1412   0.2539   0.8335     H
C      0.14156  0.46426  0.33076     C
Co     0.14531  0.95751  0.22081    Co
C      0.14997  0.93997  0.79267     C
O      0.15026  0.33426  0.98866     O
O       0.1588   0.5353   0.4496     O
O      0.16476  0.63786  0.20536     O
H       0.1649   0.6929   0.6359     H
O      0.16574  0.34974  0.51134     O
H       0.1665   0.8588   0.7461     H
O      0.16885  0.20185  0.01335     O
C      0.16924  0.03574  0.35844     C
O      0.17125  0.75945  0.67445     O
O      0.17445  0.25945  0.67125     O
H       0.1749   0.9661   0.9559     H
C      0.17754  0.40174  0.43134     C
O      0.17848  0.74798  0.75318     O
H       0.1792   0.6062   0.7212     H
C      0.17985  0.00985  0.41605     C
H       0.1826   0.9306   0.7998     H
C      0.18652  0.24902  0.71152     C
C      0.19103  0.88543  0.76703     C
C      0.19243  0.93873  0.99193     C
H       0.1929   0.6649   0.1359     H
H       0.1951   0.4701   0.2808     H
H       0.1955   0.0456   0.9308     H
H       0.2002   0.8174   0.0694     H
O      0.20185  0.01335  0.16885     O
C      0.20395  0.98645  0.97775     C
O      0.20536  0.16476  0.63786     O
C      0.20733  0.85003  0.06003     C
O      0.21068  0.99968  0.07938     O
C      0.21152  0.74902  0.68652     C
H       0.2192   0.0299   0.3049     H
Co     0.22081  0.14531  0.95751    Co
H       0.2212   0.1062   0.6792     H
C      0.22775  0.94755  0.03245     C
C      0.23188  0.00748  0.01588     C
C      0.23297  0.80897  0.11457     C
H       0.2373    0.986   0.4009     H
O       0.2375   0.4297   0.3628     O
C      0.24046  0.85916  0.10246     C
O      0.24055  0.32555  0.82875     O
Co     0.24057   0.9385  0.25781    Co
Co     0.24219   0.5615  0.25943    Co
H       0.2461   0.3588   0.6665     H
O      0.24682  0.56522  0.42942     O
O      0.24682  0.82152  0.25202     O
O      0.24798  0.67848  0.25318     O
C      0.24902  0.71152  0.18652     C
K         0.25  0.63815  0.86185     K
C      0.25098  0.31348  0.78848     C
O      0.25202  0.24682  0.82152     O
O      0.25318  0.07058  0.93478     O
O      0.25318  0.24798  0.67848     O
H       0.2539   0.8335   0.1412     H
Co     0.25781  0.24057   0.9385    Co
Co     0.25943  0.24219   0.5615    Co
O      0.25945  0.67125  0.17445     O
C      0.25954  0.39754  0.64084     C
O       0.2625   0.1372   0.0703     O
H       0.2627   0.0991    0.514     H
C      0.26703  0.38543  0.69103     C
C      0.26812  0.48412  0.49252     C
C      0.27225  0.46755  0.55245     C
H       0.2788   0.8208   0.3938     H
Co     0.27919  0.54249  0.35469    Co
H       0.2808   0.1951   0.4701     H
C      0.28848  0.81348  0.75098     C
O      0.28932  0.42062  0.50032     O
C      0.29267  0.43997  0.64997     C
O      0.29464  0.86214  0.33524     O
C      0.29605  0.52225  0.51355     C
O      0.29815  0.33115  0.48665     O
H       0.2998   0.4306   0.6826     H
H       0.3045   0.5692   0.4544     H
H       0.3049   0.2192   0.0299     H
H       0.3071   0.3641   0.8351     H
C      0.30757  0.50807  0.56127     C
C      0.30897  0.73297  0.61457     C
C      0.31348  0.78848  0.25098     C
H       0.3174   0.7002   0.5694     H
C      0.32015  0.08395  0.49015     C
H       0.3208   0.7788   0.8938     H
O      0.32152  0.74682  0.75202     O
C      0.32246  0.06866  0.09826     C
H       0.3251   0.5441   0.5339     H
O      0.32555  0.82875  0.24055     O
O      0.32875  0.82555  0.74055     O
C      0.33076  0.14156  0.46426     C
O      0.33115  0.48665  0.29815     O
H       0.3335   0.7539   0.6412     H
O      0.33426  0.98866  0.15026     O
H       0.3351   0.8641   0.8071     H
O      0.33524  0.29464  0.86214     O
O       0.3412   0.0504   0.9647     O
O      0.34974  0.51134  0.16574     O
C      0.35003  0.70733  0.56003     C
Co     0.35469  0.27919  0.54249    Co
C      0.35844  0.16924  0.03574     C
H       0.3588   0.6665   0.2461     H
Co      0.3589   0.3589   0.3589    Co
C      0.35916  0.74046  0.60246     C
O      0.36078  0.11768  0.60248     O
K      0.36185  0.13815     0.75     K
O      0.36214  0.79464  0.83524     O
O       0.3628   0.2375   0.4297     O
H       0.3641   0.8351   0.3071     H
C      0.38148  0.08348  0.07038     C
O      0.38232  0.13922  0.89752     O
C      0.38543  0.69103  0.26703     C
H       0.3869   0.9657   0.4986     H
H       0.3938   0.2788   0.8208     H
C      0.39462  0.00402  0.48082     C
C      0.39536  0.06286  0.93456     C
H       0.3955   0.5481   0.0243     H
O      0.39752  0.63922  0.88232     O
C      0.39754  0.64084  0.25954     C
H       0.4009   0.2373    0.986     H
C      0.40174  0.43134  0.17754     C
C      0.41605  0.17985  0.00985     C
C      0.41652  0.11852  0.42962     C
C      0.41956  0.49056  0.03936     C
O      0.42062  0.50032  0.28932     O
O      0.42942  0.24682  0.56522     O
C      0.42962  0.41652  0.11852     C
O       0.4297   0.3628   0.2375     O
H       0.4306   0.6826   0.2998     H
H       0.4308   0.5456   0.6955     H
C      0.43134  0.17754  0.40174     C
C      0.43456  0.56286  0.89536     C
O      0.43478  0.57058  0.75318     O
C      0.43714  0.10464  0.56544     C
Co      0.4385  0.74057  0.75781    Co
C      0.43873  0.69243  0.49193     C
C      0.43997  0.64997  0.29267     C
C      0.44446  0.48066  0.98206     C
C      0.44755  0.72775  0.53245     C
O       0.4496   0.1588   0.5353     O
H       0.4519   0.9757   0.6045     H
H       0.4544   0.3045   0.5692     H
H       0.4559   0.4661   0.6749     H
Co     0.45751  0.64531  0.72081    Co
C      0.46064  0.00944  0.08044     C
C      0.46426  0.33076  0.14156     C
O       0.4647   0.5504   0.8412     O
H       0.4657   0.8869   0.9986     H
H       0.4661   0.6749   0.4559     H
C      0.46755  0.55245  0.27225     C
H       0.4701   0.2808   0.1951     H
H       0.4757   0.9519   0.1045     H
C      0.47775  0.48645  0.70395     C
C      0.48066  0.98206  0.44446     C
C      0.48082  0.39462  0.00402     C
C      0.48206  0.98066  0.94446     C
C      0.48412  0.49252  0.26812     C
H        0.486   0.7373   0.9009     H
C      0.48645  0.70395  0.47775     C
O      0.48665  0.29815  0.33115     O
O      0.48866  0.83426  0.65026     O
C      0.49015  0.32015  0.08395     C
C      0.49056  0.03936  0.41956     C
C      0.49193  0.43873  0.69243     C
C      0.49252  0.26812  0.48412     C
C      0.49598  0.10538  0.01918     C
H       0.4986   0.3869   0.9657     H
O      0.49968  0.71068  0.57938     O
O      0.50032  0.28932  0.42062     O
H       0.5014   0.6131   0.0343     H
C      0.50402  0.89462  0.98082     C
C      0.50748  0.73188  0.51588     C
C      0.50807  0.56127  0.30757     C
C      0.50944  0.96064  0.58044     C
C      0.50985  0.67985  0.91605     C
O      0.51134  0.16574  0.34974     O
O      0.51335  0.70185  0.66885     O
C      0.51355  0.29605  0.52225     C
H        0.514   0.2627   0.0991     H
C      0.51588  0.50748  0.73188     C
C      0.51794  0.01934  0.05554     C
C      0.51918  0.60538  0.99598     C
C      0.51934  0.01794  0.55554     C
C      0.52225  0.51355  0.29605     C
H       0.5243   0.0481   0.8955     H
H       0.5299   0.7192   0.8049     H
C      0.53245  0.44755  0.72775     C
H       0.5339   0.3251   0.5441     H
H       0.5343   0.1131   0.0014     H
O       0.5353   0.4496   0.1588     O
C      0.53574  0.66924  0.85844     C
C      0.53936  0.99056  0.91956     C
Co     0.54249  0.35469  0.27919    Co
H       0.5441   0.5339   0.3251     H
H       0.5456   0.6955   0.4308     H
H       0.5481   0.0243   0.3955     H
O       0.5504   0.8412   0.4647     O
C      0.55245  0.27225  0.46755     C
C      0.55554  0.51934  0.01794     C
C      0.56003  0.35003  0.70733     C
C      0.56127  0.30757  0.50807     C
Co      0.5615  0.25943  0.24219    Co
C      0.56286  0.89536  0.43456     C
O      0.56522  0.42942  0.24682     O
C      0.56544  0.43714  0.10464     C
C      0.56866  0.82246  0.59826     C
H       0.5692   0.4544   0.3045     H
H       0.5694   0.3174   0.7002     H
O       0.5703   0.6372   0.7625     O
C      0.57038  0.58348  0.88148     C
O      0.57058  0.75318  0.43478     O
O      0.57938  0.49968  0.71068     O
C      0.58044  0.50944  0.96064     C
C      0.58348  0.88148  0.57038     C
C      0.58395  0.82015  0.99015     C
C      0.59826  0.56866  0.82246     C
H       0.5991   0.7627    0.014     H
C      0.60246  0.35916  0.74046     C
O      0.60248  0.36078  0.11768     O
H       0.6045   0.4519   0.9757     H
C      0.60464  0.93714  0.06544     C
C      0.60538  0.99598  0.51918     C
H       0.6062   0.7212   0.1792     H
H       0.6131   0.0343   0.5014     H
C      0.61457  0.30897  0.73297     C
O      0.61768  0.86078  0.10248     O
C      0.61852  0.91652  0.92962     C
H       0.6359   0.1649   0.6929     H
O       0.6372   0.7625   0.5703     O
O      0.63786  0.20536  0.16476     O
K      0.63815  0.86185     0.25     K
O      0.63922  0.88232  0.39752     O
C      0.64084  0.25954  0.39754     C
Co      0.6411   0.6411   0.6411    Co
H       0.6412   0.3335   0.7539     H
C      0.64156  0.83076  0.96426     C
Co     0.64531  0.72081  0.45751    Co
C      0.64997  0.29267  0.43997     C
O      0.65026  0.48866  0.83426     O
O       0.6588   0.9496   0.0353     O
O      0.66476  0.70536  0.13786     O
H       0.6649   0.1359   0.1929     H
O      0.66574  0.01134  0.84974     O
H       0.6665   0.2461   0.3588     H
O      0.66885  0.51335  0.70185     O
C      0.66924  0.85844  0.53574     C
O      0.67125  0.17445  0.25945     O
O      0.67445  0.17125  0.75945     O
H       0.6749   0.4559   0.4661     H
C      0.67754  0.93134  0.90174     C
O      0.67848  0.25318  0.24798     O
H       0.6792   0.2212   0.1062     H
C      0.67985  0.91605  0.50985     C
H       0.6826   0.2998   0.4306     H
C      0.68652  0.21152  0.74902     C
C      0.69103  0.26703  0.38543     C
C      0.69243  0.49193  0.43873     C
H       0.6929   0.6359   0.1649     H
H       0.6951   0.7808   0.9701     H
H       0.6955   0.4308   0.5456     H
H       0.7002   0.5694   0.3174     H
O      0.70185  0.66885  0.51335     O
C      0.70395  0.47775  0.48645     C
O      0.70536  0.13786  0.66476     O
C      0.70733  0.56003  0.35003     C
O      0.71068  0.57938  0.49968     O
C      0.71152  0.18652  0.24902     C
H       0.7192   0.8049   0.5299     H
Co     0.72081  0.45751  0.64531    Co
H       0.7212   0.1792   0.6062     H
C      0.72775  0.53245  0.44755     C
C      0.73188  0.51588  0.50748     C
C      0.73297  0.61457  0.30897     C
H       0.7373   0.9009    0.486     H
O       0.7375   0.8628   0.9297     O
C      0.74046  0.60246  0.35916     C
O      0.74055  0.32875  0.82555     O
Co     0.74057  0.75781   0.4385    Co
Co     0.74219  0.75943   0.0615    Co
H       0.7461   0.1665   0.8588     H
O      0.74682  0.75202  0.32152     O
O      0.74682  0.92942  0.06522     O
O      0.74798  0.75318  0.17848     O
C      0.74902  0.68652  0.21152     C
K         0.75  0.36185  0.13815     K
C      0.75098  0.28848  0.81348     C
O      0.75202  0.32152  0.74682     O
O      0.75318  0.17848  0.74798     O
O      0.75318  0.43478  0.57058     O
H       0.7539   0.6412   0.3335     H
Co     0.75781   0.4385  0.74057    Co
Co     0.75943   0.0615  0.74219    Co
O      0.75945  0.67445  0.17125     O
C      0.75954  0.14084  0.89754     C
O       0.7625   0.5703   0.6372     O
H       0.7627    0.014   0.5991     H
C      0.76703  0.19103  0.88543     C
C      0.76812  0.99252  0.98412     C
C      0.77225  0.05245  0.96755     C
H       0.7788   0.8938   0.3208     H
Co     0.77919  0.85469  0.04249    Co
H       0.7808   0.9701   0.6951     H
C      0.78848  0.25098  0.31348     C
O      0.78932  0.00032  0.92062     O
C      0.79267  0.14997  0.93997     C
O      0.79464  0.83524  0.36214     O
C      0.79605  0.01355  0.02225     C
O      0.79815  0.98665  0.83115     O
H       0.7998   0.1826   0.9306     H
H       0.8045   0.9544   0.0692     H
H       0.8049   0.5299   0.7192     H
H       0.8071   0.3351   0.8641     H
C      0.80757  0.06127  0.00807     C
C      0.80897  0.11457  0.23297     C
C      0.81348  0.75098  0.28848     C
H       0.8174   0.0694   0.2002     H
C      0.82015  0.99015  0.58395     C
H       0.8208   0.3938   0.2788     H
O      0.82152  0.25202  0.24682     O
C      0.82246  0.59826  0.56866     C
H       0.8251   0.0339   0.0441     H
O      0.82555  0.74055  0.32875     O
O      0.82875  0.24055  0.32555     O
C      0.83076  0.96426  0.64156     C
O      0.83115  0.79815  0.98665     O
H       0.8335   0.1412   0.2539     H
O      0.83426  0.65026  0.48866     O
H       0.8351   0.3071   0.3641     H
O      0.83524  0.36214  0.79464     O
O       0.8412   0.4647   0.5504     O
O      0.84974  0.66574  0.01134     O
C      0.85003  0.06003  0.20733     C
Co     0.85469  0.04249  0.77919    Co
C      0.85844  0.53574  0.66924     C
H       0.8588   0.7461   0.1665     H
Co      0.8589   0.8589   0.8589    Co
C      0.85916  0.10246  0.24046     C
O      0.86078  0.10248  0.61768     O
K      0.86185     0.25  0.63815     K
O      0.86214  0.33524  0.29464     O
O       0.8628   0.9297   0.7375     O
H       0.8641   0.8071   0.3351     H
C      0.88148  0.57038  0.58348     C
O      0.88232  0.39752  0.63922     O
C      0.88543  0.76703  0.19103     C
H       0.8869   0.9986   0.4657     H
H       0.8938   0.3208   0.7788     H
C      0.89462  0.98082  0.50402     C
C      0.89536  0.43456  0.56286     C
H       0.8955   0.5243   0.0481     H
O      0.89752  0.38232  0.13922     O
C      0.89754  0.75954  0.14084     C
H       0.9009    0.486   0.7373     H
C      0.90174  0.67754  0.93134     C
C      0.91605  0.50985  0.67985     C
C      0.91652  0.92962  0.61852     C
C      0.91956  0.53936  0.99056     C
O      0.92062  0.78932  0.00032     O
O      0.92942  0.06522  0.74682     O
C      0.92962  0.61852  0.91652     C
O       0.9297   0.7375   0.8628     O
H       0.9306   0.7998   0.1826     H
H       0.9308   0.1955   0.0456     H
C      0.93134  0.90174  0.67754     C
C      0.93456  0.39536  0.06286     C
O      0.93478  0.25318  0.07058     O
C      0.93714  0.06544  0.60464     C
Co      0.9385  0.25781  0.24057    Co
C      0.93873  0.99193  0.19243     C
C      0.93997  0.79267  0.14997     C
C      0.94446  0.48206  0.98066     C
C      0.94755  0.03245  0.22775     C
O       0.9496   0.0353   0.6588     O
H       0.9519   0.1045   0.4757     H
H       0.9544   0.0692   0.8045     H
H       0.9559   0.1749   0.9661     H
Co     0.95751  0.22081  0.14531    Co
C      0.96064  0.58044  0.50944     C
C      0.96426  0.64156  0.83076     C
O       0.9647   0.3412   0.0504     O
H       0.9657   0.4986   0.3869     H
H       0.9661   0.9559   0.1749     H
C      0.96755  0.77225  0.05245     C
H       0.9701   0.6951   0.7808     H
H       0.9757   0.6045   0.4519     H
C      0.97775  0.20395  0.98645     C
C      0.98066  0.94446  0.48206     C
C      0.98082  0.50402  0.89462     C
C      0.98206  0.44446  0.48066     C
C      0.98412  0.76812  0.99252     C
H        0.986   0.4009   0.2373     H
C      0.98645  0.97775  0.20395     C
O      0.98665  0.83115  0.79815     O
O      0.98866  0.15026  0.33426     O
C      0.99015  0.58395  0.82015     C
C      0.99056  0.91956  0.53936     C
C      0.99193  0.19243  0.93873     C
C      0.99252  0.98412  0.76812     C
C      0.99598  0.51918  0.60538     C
H       0.9986   0.4657   0.8869     H
O      0.99968  0.07938  0.21068     O
