data_I
_chemical_name_common  '/home/zhangsd/repos/MofS-CGCNN/ML/data/SSD/clean_cifs/KISVEO_clean'
_cell_length_a 28.02300
_cell_length_b 28.02300
_cell_length_c 19.68400
_cell_angle_alpha 90.00000
_cell_angle_beta  90.00000
_cell_angle_gamma 90.00000
_space_group_name_H-M_alt      'P 1'


loop_
_space_group_symop_operation_xyz
  'x, y, z' 

loop_
_atom_site_label
_atom_site_fract_x
_atom_site_fract_y
_atom_site_fract_z
_atom_site_type_symbol
S          0.0      0.5     0.25     S
S          0.0      0.5     0.75     S
U      0.00039  0.37144  0.21681     U
U      0.00039  0.37144  0.78319     U
S      0.00101  0.19719      0.5     S
O        0.008   0.4581   0.2064     O
O        0.008   0.4581   0.7936     O
O       0.0131   0.2447      0.5     O
O       0.0178   0.2285   0.3228     O
O       0.0178   0.2285   0.6772     O
O       0.0241   0.8147   0.4397     O
O       0.0241   0.8147   0.5603     O
O       0.0263   0.3018    0.385     O
O       0.0263   0.3018    0.615     O
O       0.0334   0.6966   0.1623     O
O       0.0334   0.6966   0.8377     O
U      0.03505  0.32397      0.5     U
O       0.0352   0.3022   0.2643     O
O       0.0352   0.3022   0.7357     O
O       0.0395   0.1649      0.5     O
O       0.0419    0.508   0.2936     O
O       0.0419    0.508   0.7064     O
S      0.04365   0.2743  0.32659     S
S      0.04365   0.2743  0.67341     S
O       0.0488   0.3991   0.3079     O
O       0.0488   0.3991   0.6921     O
O        0.052   0.3925   0.4294     O
O        0.052   0.3925   0.5706     O
O       0.0527   0.6022   0.1279     O
O       0.0527   0.6022   0.8721     O
O       0.0589   0.7653   0.2251     O
O       0.0589   0.7653   0.7749     O
U      0.06552  0.79269  0.33756     U
U      0.06552  0.79269  0.66244     U
S      0.07404  0.72887  0.17529     S
S      0.07404  0.72887  0.82471     S
S      0.07946  0.39992   0.3671     S
S      0.07946  0.39992   0.6329     S
O       0.0877   0.7517   0.1126     O
O       0.0877   0.7517   0.8874     O
O       0.0951   0.2648   0.3335     O
O       0.0951   0.2648   0.6665     O
S      0.10008  0.57946   0.1329     S
S      0.10008  0.57946   0.8671     S
O       0.1009   0.5488   0.1921     O
O       0.1009   0.5488   0.8079     O
O       0.1022   0.4473   0.3721     O
O       0.1022   0.4473   0.6279     O
O       0.1075    0.552   0.0706     O
O       0.1075    0.552   0.9294     O
O       0.1128   0.7012   0.2052     O
O       0.1128   0.7012   0.7948     O
O       0.1161   0.3633   0.3623     O
O       0.1161   0.3633   0.6377     O
U      0.12856  0.50039  0.28319     U
U      0.12856  0.50039  0.71681     U
O       0.1367   0.6161   0.1377     O
O       0.1367   0.6161   0.8623     O
O       0.1438   0.8007   0.2902     O
O       0.1438   0.8007   0.7098     O
O       0.1649   0.9605      0.5     O
U      0.16863  0.30917  0.30457     U
U      0.16863  0.30917  0.69543     U
U      0.17603  0.53505      0.0     U
O         0.18   0.2261   0.2825     O
O         0.18   0.2261   0.7175     O
O       0.1853   0.0241   0.4397     O
O       0.1853   0.0241   0.5603     O
U      0.19083  0.66863  0.19543     U
U      0.19083  0.66863  0.80457     U
S      0.19203  0.78019  0.29206     S
S      0.19203  0.78019  0.70794     S
O       0.1966   0.4666   0.3377     O
O       0.1966   0.4666   0.6623     O
S      0.19719  0.99899      0.5     S
O       0.1977   0.7489   0.2325     O
O       0.1977   0.7489   0.7675     O
O       0.1978   0.5352   0.2357     O
O       0.1978   0.5352   0.7643     O
O       0.1982   0.5263    0.115     O
O       0.1982   0.5263    0.885     O
O       0.1993   0.1438   0.2902     O
O       0.1993   0.1438   0.7098     O
O       0.2011   0.7556   0.3538     O
O       0.2011   0.7556   0.6462     O
O       0.2012   0.3872   0.2948     O
O       0.2012   0.3872   0.7052     O
U      0.20731  0.06552  0.33756     U
U      0.20731  0.06552  0.66244     U
S      0.21981  0.19203  0.29206     S
S      0.21981  0.19203  0.70794     S
S       0.2257  0.54365  0.17341     S
S       0.2257  0.54365  0.82659     S
O       0.2261     0.82   0.2825     O
O       0.2261     0.82   0.7175     O
O       0.2285   0.9822   0.3228     O
O       0.2285   0.9822   0.6772     O
S      0.22887  0.42596  0.32471     S
S      0.22887  0.42596  0.67529     S
O       0.2347   0.0589   0.2251     O
O       0.2347   0.0589   0.7749     O
O       0.2352   0.5951   0.1665     O
O       0.2352   0.5951   0.8335     O
O       0.2444   0.2011   0.3538     O
O       0.2444   0.2011   0.6462     O
O       0.2447   0.9869      0.5     O
O       0.2483   0.0877   0.1126     O
O       0.2483   0.0877   0.8874     O
O       0.2489   0.3023   0.2675     O
O       0.2489   0.3023   0.7325     O
O       0.2511   0.1977   0.2325     O
O       0.2511   0.1977   0.7675     O
O       0.2517   0.4123   0.3874     O
O       0.2517   0.4123   0.6126     O
O       0.2553   0.5131      0.0     O
O       0.2556   0.2989   0.1462     O
O       0.2556   0.2989   0.8538     O
O       0.2648   0.9049   0.3335     O
O       0.2648   0.9049   0.6665     O
O       0.2653   0.4411   0.2749     O
O       0.2653   0.4411   0.7251     O
S      0.27113  0.07404  0.17529     S
S      0.27113  0.07404  0.82471     S
O       0.2715   0.5178   0.1772     O
O       0.2715   0.5178   0.8228     O
O       0.2739     0.68   0.2175     O
O       0.2739     0.68   0.7825     O
S       0.2743  0.95635  0.32659     S
S       0.2743  0.95635  0.67341     S
S      0.28019  0.30797  0.20794     S
S      0.28019  0.30797  0.79206     S
U      0.29269  0.43448  0.16244     U
U      0.29269  0.43448  0.83756     U
O       0.2988   0.1128   0.2052     O
O       0.2988   0.1128   0.7948     O
O       0.2989   0.7444   0.1462     O
O       0.2989   0.7444   0.8538     O
O       0.3007   0.3562   0.2098     O
O       0.3007   0.3562   0.7902     O
O       0.3018   0.9737    0.385     O
O       0.3018   0.9737    0.615     O
O       0.3022   0.9648   0.2643     O
O       0.3022   0.9648   0.7357     O
O       0.3023   0.7511   0.2675     O
O       0.3023   0.7511   0.7325     O
S      0.30281  0.50101      0.0     S
O       0.3034   0.0334   0.1623     O
O       0.3034   0.0334   0.8377     O
S      0.30797  0.71981  0.20794     S
S      0.30797  0.71981  0.79206     S
U      0.30917  0.83137  0.30457     U
U      0.30917  0.83137  0.69543     U
O       0.3147   0.4759   0.0603     O
O       0.3147   0.4759   0.9397     O
O         0.32   0.2739   0.2175     O
O         0.32   0.2739   0.7825     O
U      0.32397  0.96495      0.5     U
U      0.33137  0.19083  0.19543     U
U      0.33137  0.19083  0.80457     U
O       0.3351   0.5395      0.0     O
O       0.3562   0.6993   0.2098     O
O       0.3562   0.6993   0.7902     O
O       0.3633   0.8839   0.3623     O
O       0.3633   0.8839   0.6377     O
U      0.37144  0.99961  0.21681     U
U      0.37144  0.99961  0.78319     U
O       0.3839   0.1367   0.1377     O
O       0.3839   0.1367   0.8623     O
O       0.3872   0.7988   0.2948     O
O       0.3872   0.7988   0.7052     O
O       0.3925    0.948   0.4294     O
O       0.3925    0.948   0.5706     O
O       0.3978   0.0527   0.1279     O
O       0.3978   0.0527   0.8721     O
O       0.3991   0.9512   0.3079     O
O       0.3991   0.9512   0.6921     O
S      0.39992  0.92054   0.3671     S
S      0.39992  0.92054   0.6329     S
O       0.4049   0.2352   0.1665     O
O       0.4049   0.2352   0.8335     O
O       0.4123   0.7483   0.3874     O
O       0.4123   0.7483   0.6126     O
S      0.42054  0.10008   0.1329     S
S      0.42054  0.10008   0.8671     S
S      0.42596  0.77113  0.32471     S
S      0.42596  0.77113  0.67529     S
U      0.43448  0.70731  0.16244     U
U      0.43448  0.70731  0.83756     U
O       0.4411   0.7347   0.2749     O
O       0.4411   0.7347   0.7251     O
O       0.4473   0.8978   0.3721     O
O       0.4473   0.8978   0.6279     O
O        0.448   0.1075   0.0706     O
O        0.448   0.1075   0.9294     O
O       0.4512   0.1009   0.1921     O
O       0.4512   0.1009   0.8079     O
S      0.45635   0.2257  0.17341     S
S      0.45635   0.2257  0.82659     S
O       0.4581    0.992   0.2064     O
O       0.4581    0.992   0.7936     O
O       0.4605   0.3351      0.0     O
O       0.4648   0.1978   0.2357     O
O       0.4648   0.1978   0.7643     O
U      0.46495  0.17603      0.0     U
O       0.4666   0.8034   0.3377     O
O       0.4666   0.8034   0.6623     O
O       0.4737   0.1982    0.115     O
O       0.4737   0.1982    0.885     O
O       0.4759   0.6853   0.0603     O
O       0.4759   0.6853   0.9397     O
O       0.4822   0.2715   0.1772     O
O       0.4822   0.2715   0.8228     O
O       0.4869   0.2553      0.0     O
O        0.492   0.0419   0.2936     O
O        0.492   0.0419   0.7064     O
S      0.49899  0.30281      0.0     S
U      0.49961  0.12856  0.28319     U
U      0.49961  0.12856  0.71681     U
S          0.5      0.0     0.25     S
S          0.5      0.0     0.75     S
U      0.50039  0.87144  0.28319     U
U      0.50039  0.87144  0.71681     U
S      0.50101  0.69719      0.0     S
O        0.508   0.9581   0.2936     O
O        0.508   0.9581   0.7064     O
O       0.5131   0.7447      0.0     O
O       0.5178   0.7285   0.1772     O
O       0.5178   0.7285   0.8228     O
O       0.5241   0.3147   0.0603     O
O       0.5241   0.3147   0.9397     O
O       0.5263   0.8018    0.115     O
O       0.5263   0.8018    0.885     O
O       0.5334   0.1966   0.3377     O
O       0.5334   0.1966   0.6623     O
U      0.53505  0.82397      0.0     U
O       0.5352   0.8022   0.2357     O
O       0.5352   0.8022   0.7643     O
O       0.5395   0.6649      0.0     O
O       0.5419    0.008   0.2064     O
O       0.5419    0.008   0.7936     O
S      0.54365   0.7743  0.17341     S
S      0.54365   0.7743  0.82659     S
O       0.5488   0.8991   0.1921     O
O       0.5488   0.8991   0.8079     O
O        0.552   0.8925   0.0706     O
O        0.552   0.8925   0.9294     O
O       0.5527   0.1022   0.3721     O
O       0.5527   0.1022   0.6279     O
O       0.5589   0.2653   0.2749     O
O       0.5589   0.2653   0.7251     O
U      0.56552  0.29269  0.16244     U
U      0.56552  0.29269  0.83756     U
S      0.57404  0.22887  0.32471     S
S      0.57404  0.22887  0.67529     S
S      0.57946  0.89992   0.1329     S
S      0.57946  0.89992   0.8671     S
O       0.5877   0.2517   0.3874     O
O       0.5877   0.2517   0.6126     O
O       0.5951   0.7648   0.1665     O
O       0.5951   0.7648   0.8335     O
S      0.60008  0.07946   0.3671     S
S      0.60008  0.07946   0.6329     S
O       0.6009   0.0488   0.3079     O
O       0.6009   0.0488   0.6921     O
O       0.6022   0.9473   0.1279     O
O       0.6022   0.9473   0.8721     O
O       0.6075    0.052   0.4294     O
O       0.6075    0.052   0.5706     O
O       0.6128   0.2012   0.2948     O
O       0.6128   0.2012   0.7052     O
O       0.6161   0.8633   0.1377     O
O       0.6161   0.8633   0.8623     O
U      0.62856  0.00039  0.21681     U
U      0.62856  0.00039  0.78319     U
O       0.6367   0.1161   0.3623     O
O       0.6367   0.1161   0.6377     O
O       0.6438   0.3007   0.2098     O
O       0.6438   0.3007   0.7902     O
O       0.6649   0.4605      0.0     O
U      0.66863  0.80917  0.19543     U
U      0.66863  0.80917  0.80457     U
U      0.67603  0.03505      0.5     U
O         0.68   0.7261   0.2175     O
O         0.68   0.7261   0.7825     O
O       0.6853   0.5241   0.0603     O
O       0.6853   0.5241   0.9397     O
U      0.69083  0.16863  0.30457     U
U      0.69083  0.16863  0.69543     U
S      0.69203  0.28019  0.20794     S
S      0.69203  0.28019  0.79206     S
O       0.6966   0.9666   0.1623     O
O       0.6966   0.9666   0.8377     O
S      0.69719  0.49899      0.0     S
O       0.6977   0.2489   0.2675     O
O       0.6977   0.2489   0.7325     O
O       0.6978   0.0352   0.2643     O
O       0.6978   0.0352   0.7357     O
O       0.6982   0.0263    0.385     O
O       0.6982   0.0263    0.615     O
O       0.6993   0.6438   0.2098     O
O       0.6993   0.6438   0.7902     O
O       0.7011   0.2556   0.1462     O
O       0.7011   0.2556   0.8538     O
O       0.7012   0.8872   0.2052     O
O       0.7012   0.8872   0.7948     O
U      0.70731  0.56552  0.16244     U
U      0.70731  0.56552  0.83756     U
S      0.71981  0.69203  0.20794     S
S      0.71981  0.69203  0.79206     S
S       0.7257  0.04365  0.32659     S
S       0.7257  0.04365  0.67341     S
O       0.7261     0.32   0.2175     O
O       0.7261     0.32   0.7825     O
O       0.7285   0.4822   0.1772     O
O       0.7285   0.4822   0.8228     O
S      0.72887  0.92596  0.17529     S
S      0.72887  0.92596  0.82471     S
O       0.7347   0.5589   0.2749     O
O       0.7347   0.5589   0.7251     O
O       0.7352   0.0951   0.3335     O
O       0.7352   0.0951   0.6665     O
O       0.7444   0.7011   0.1462     O
O       0.7444   0.7011   0.8538     O
O       0.7447   0.4869      0.0     O
O       0.7483   0.5877   0.3874     O
O       0.7483   0.5877   0.6126     O
O       0.7489   0.8023   0.2325     O
O       0.7489   0.8023   0.7675     O
O       0.7511   0.6977   0.2675     O
O       0.7511   0.6977   0.7325     O
O       0.7517   0.9123   0.1126     O
O       0.7517   0.9123   0.8874     O
O       0.7553   0.0131      0.5     O
O       0.7556   0.7989   0.3538     O
O       0.7556   0.7989   0.6462     O
O       0.7648   0.4049   0.1665     O
O       0.7648   0.4049   0.8335     O
O       0.7653   0.9411   0.2251     O
O       0.7653   0.9411   0.7749     O
S      0.77113  0.57404  0.32471     S
S      0.77113  0.57404  0.67529     S
O       0.7715   0.0178   0.3228     O
O       0.7715   0.0178   0.6772     O
O       0.7739     0.18   0.2825     O
O       0.7739     0.18   0.7175     O
S       0.7743  0.45635  0.17341     S
S       0.7743  0.45635  0.82659     S
S      0.78019  0.80797  0.29206     S
S      0.78019  0.80797  0.70794     S
U      0.79269  0.93448  0.33756     U
U      0.79269  0.93448  0.66244     U
O       0.7988   0.6128   0.2948     O
O       0.7988   0.6128   0.7052     O
O       0.7989   0.2444   0.3538     O
O       0.7989   0.2444   0.6462     O
O       0.8007   0.8562   0.2902     O
O       0.8007   0.8562   0.7098     O
O       0.8018   0.4737    0.115     O
O       0.8018   0.4737    0.885     O
O       0.8022   0.4648   0.2357     O
O       0.8022   0.4648   0.7643     O
O       0.8023   0.2511   0.2325     O
O       0.8023   0.2511   0.7675     O
S      0.80281  0.00101      0.5     S
O       0.8034   0.5334   0.3377     O
O       0.8034   0.5334   0.6623     O
S      0.80797  0.21981  0.29206     S
S      0.80797  0.21981  0.70794     S
U      0.80917  0.33137  0.19543     U
U      0.80917  0.33137  0.80457     U
O       0.8147   0.9759   0.4397     O
O       0.8147   0.9759   0.5603     O
O         0.82   0.7739   0.2825     O
O         0.82   0.7739   0.7175     O
U      0.82397  0.46495      0.0     U
U      0.83137  0.69083  0.30457     U
U      0.83137  0.69083  0.69543     U
O       0.8351   0.0395      0.5     O
O       0.8562   0.1993   0.2902     O
O       0.8562   0.1993   0.7098     O
O       0.8633   0.3839   0.1377     O
O       0.8633   0.3839   0.8623     O
U      0.87144  0.49961  0.28319     U
U      0.87144  0.49961  0.71681     U
O       0.8839   0.6367   0.3623     O
O       0.8839   0.6367   0.6377     O
O       0.8872   0.2988   0.2052     O
O       0.8872   0.2988   0.7948     O
O       0.8925    0.448   0.0706     O
O       0.8925    0.448   0.9294     O
O       0.8978   0.5527   0.3721     O
O       0.8978   0.5527   0.6279     O
O       0.8991   0.4512   0.1921     O
O       0.8991   0.4512   0.8079     O
S      0.89992  0.42054   0.1329     S
S      0.89992  0.42054   0.8671     S
O       0.9049   0.7352   0.3335     O
O       0.9049   0.7352   0.6665     O
O       0.9123   0.2483   0.1126     O
O       0.9123   0.2483   0.8874     O
S      0.92054  0.60008   0.3671     S
S      0.92054  0.60008   0.6329     S
S      0.92596  0.27113  0.17529     S
S      0.92596  0.27113  0.82471     S
U      0.93448  0.20731  0.33756     U
U      0.93448  0.20731  0.66244     U
O       0.9411   0.2347   0.2251     O
O       0.9411   0.2347   0.7749     O
O       0.9473   0.3978   0.1279     O
O       0.9473   0.3978   0.8721     O
O        0.948   0.6075   0.4294     O
O        0.948   0.6075   0.5706     O
O       0.9512   0.6009   0.3079     O
O       0.9512   0.6009   0.6921     O
S      0.95635   0.7257  0.32659     S
S      0.95635   0.7257  0.67341     S
O       0.9581    0.492   0.2936     O
O       0.9581    0.492   0.7064     O
O       0.9605   0.8351      0.5     O
O       0.9648   0.6978   0.2643     O
O       0.9648   0.6978   0.7357     O
U      0.96495  0.67603      0.5     U
O       0.9666   0.3034   0.1623     O
O       0.9666   0.3034   0.8377     O
O       0.9737   0.6982    0.385     O
O       0.9737   0.6982    0.615     O
O       0.9759   0.1853   0.4397     O
O       0.9759   0.1853   0.5603     O
O       0.9822   0.7715   0.3228     O
O       0.9822   0.7715   0.6772     O
O       0.9869   0.7553      0.5     O
O        0.992   0.5419   0.2064     O
O        0.992   0.5419   0.7936     O
S      0.99899  0.80281      0.5     S
U      0.99961  0.62856  0.21681     U
U      0.99961  0.62856  0.78319     U
