data_I
_chemical_name_common  '/home/zhangsd/repos/MofS-CGCNN/ML/data/SSD/clean_cifs/KIXXOG_clean'
_cell_length_a  6.70170
_cell_length_b 14.39580
_cell_length_c 14.94050
_cell_angle_alpha 90.00000
_cell_angle_beta  90.00000
_cell_angle_gamma 90.00000
_space_group_name_H-M_alt      'P 1'


loop_
_space_group_symop_operation_xyz
  'x, y, z' 

loop_
_atom_site_label
_atom_site_fract_x
_atom_site_fract_y
_atom_site_fract_z
_atom_site_type_symbol
O       0.0076   0.3913  0.92411     O
O      0.00807  0.65653  0.52528     O
C       0.1086  0.87012  0.63829     C
H       0.1087   0.0486   0.6375     H
C       0.1191  0.93773  0.71649     C
C       0.1194  0.02986  0.69694     C
H       0.1216   0.8388   0.0483     H
H       0.1242   0.9931   0.0118     H
C        0.125  0.85666  0.98849     C
C       0.1254  0.94867  0.96656     C
C       0.1275  0.90853  0.80747     C
C       0.1278  0.97751  0.87633     C
C       0.1295  0.78883  0.92088     C
H       0.1313   0.7263   0.9364     H
C       0.1313  0.81344  0.83362     C
C       0.1344  0.07299  0.85208     C
H       0.1351   0.7675   0.7899     H
C       0.1353  0.09784  0.76444     C
Ca     0.13673  0.30386  0.04193    Ca
C       0.1368   0.1491  0.92122     C
H       0.1466   0.1602   0.7488     H
O       0.2172  0.79948  0.64109     O
O      0.21874  0.79547  0.42152     O
O      0.28126  0.20453  0.92152     O
O       0.2828  0.20052  0.14109     O
H       0.3534   0.8398   0.2488     H
C       0.3632   0.8509  0.42122     C
Ca     0.36327  0.69614  0.54193    Ca
C       0.3647  0.90216  0.26444     C
H       0.3649   0.2325   0.2899     H
C       0.3656  0.92701  0.35208     C
C       0.3687  0.18656  0.33362     C
H       0.3687   0.2737   0.4364     H
C       0.3705  0.21117  0.42088     C
C       0.3722  0.02249  0.37633     C
C       0.3725  0.09147  0.30747     C
C       0.3746  0.05133  0.46656     C
C        0.375  0.14334  0.48849     C
H       0.3758   0.0069   0.5118     H
H       0.3784   0.1612   0.5483     H
C       0.3806  0.97014  0.19694     C
C       0.3809  0.06227  0.21649     C
H       0.3913   0.9514   0.1375     H
C       0.3914  0.12988  0.13829     C
O      0.49193  0.34347  0.02528     O
O       0.4924   0.6087  0.42411     O
O       0.5076   0.1087  0.07589     O
O      0.50807  0.84347  0.47472     O
C       0.6086  0.62988  0.36171     C
H       0.6087   0.4514   0.3625     H
C       0.6191  0.56227  0.28351     C
C       0.6194  0.47014  0.30306     C
H       0.6216   0.6612   0.9517     H
H       0.6242   0.5069   0.9882     H
C        0.625  0.64334  0.01151     C
C       0.6254  0.55133  0.03344     C
C       0.6275  0.59147  0.19253     C
C       0.6278  0.52249  0.12367     C
C       0.6295  0.71117  0.07912     C
C       0.6313  0.68656  0.16638     C
H       0.6313   0.7737   0.0636     H
C       0.6344  0.42701  0.14792     C
H       0.6351   0.7325   0.2101     H
C       0.6353  0.40216  0.23556     C
Ca     0.63673  0.19614  0.95807    Ca
C       0.6368   0.3509  0.07878     C
H       0.6466   0.3398   0.2512     H
O       0.7172  0.70052  0.35891     O
O      0.71874  0.70453  0.57848     O
O      0.78126  0.29547  0.07848     O
O       0.7828  0.29948  0.85891     O
H       0.8534   0.6602   0.7512     H
C       0.8632   0.6491  0.57878     C
Ca     0.86327  0.80386  0.45807    Ca
C       0.8647  0.59784  0.73556     C
H       0.8649   0.2675   0.7101     H
C       0.8656  0.57299  0.64792     C
H       0.8687   0.2263   0.5636     H
C       0.8687  0.31344  0.66638     C
C       0.8705  0.28883  0.57912     C
C       0.8722  0.47751  0.62367     C
C       0.8725  0.40853  0.69253     C
C       0.8746  0.44867  0.53344     C
C        0.875  0.35666  0.51151     C
H       0.8758   0.4931   0.4882     H
H       0.8784   0.3388   0.4517     H
C       0.8806  0.52986  0.80306     C
C       0.8809  0.43773  0.78351     C
H       0.8913   0.5486   0.8625     H
C       0.8914  0.37012  0.86171     C
O      0.99193  0.15653  0.97472     O
O       0.9924   0.8913  0.57589     O
