data_I
_chemical_name_common  '/home/zhangsd/repos/MofS-CGCNN/ML/data/SSD/clean_cifs/KOCCUC_clean'
_cell_length_a  9.30280
_cell_length_b 14.90430
_cell_length_c 15.20920
_cell_angle_alpha 70.59400
_cell_angle_beta  83.47200
_cell_angle_gamma 84.97800
_space_group_name_H-M_alt      'P 1'


loop_
_space_group_symop_operation_xyz
  'x, y, z' 

loop_
_atom_site_label
_atom_site_fract_x
_atom_site_fract_y
_atom_site_fract_z
_atom_site_type_symbol
C       0.0423   0.5581    0.876     C
C       0.0595   0.4644   0.7708     C
H       0.0875   0.5851   0.9119     H
C        0.088   0.5139   0.2389     C
H       0.1049   0.3085   0.8978     H
C       0.1052   0.4276   0.1304     C
C       0.1227   0.5028   0.8281     C
O       0.1322   0.3114   0.0536     O
H       0.1324   0.5347   0.2799     H
C       0.1504   0.4056   0.7213     C
H       0.1559    0.502   0.5922     H
N       0.1625   0.2756   0.8704     N
C       0.1701   0.4616   0.1884     C
H       0.1774   0.0901   0.8021     H
C       0.1909   0.3722   0.0758     C
C       0.1927    0.442   0.6263     C
H       0.1972   0.2205   0.9024     H
C       0.2007   0.3126   0.7716     C
H       0.2215   0.4913   0.8344     H
H       0.2691   0.4499    0.194     H
C       0.2742   0.0845   0.8141     C
H       0.2771   0.9442   0.8858     H
C       0.2888   0.3915   0.5801     C
C        0.294   0.2593   0.7273     C
H       0.3089   0.5724   0.4722     H
O       0.3258  0.11386    0.043     O
O       0.3258  0.38432  0.05266     O
C       0.3336    0.997   0.8644     C
C       0.3384   0.3002   0.6321     C
C        0.341   0.4338   0.4797     C
H       0.3423   0.9394   0.1353     H
C       0.3426   0.5328   0.4374     C
Cd     0.34308  0.27868  0.96528    Cd
C       0.3559   0.1643   0.7811     C
C       0.3938   0.5723   0.3444     C
H        0.394   0.6382   0.3173     H
C       0.3957   0.3768   0.4257     C
H       0.3979   0.3109   0.4527     H
H       0.4029   0.2656   0.6027     H
C       0.4388   0.9336   0.1481     C
H       0.4436   0.7922   0.2196     H
C       0.4451   0.5144   0.2911     C
C        0.447   0.4166   0.3327     C
C       0.4533   0.1068   0.0633     C
O       0.4692  0.81985   0.9624     O
O       0.4765  0.50041  0.85632     O
C       0.4787   0.9877   0.8833     C
H       0.4828   0.3772    0.298     H
O       0.4906  0.35502  0.84298     O
C       0.4963   0.5561   0.1894     C
C       0.4996   0.8452   0.1989     C
Cd         0.5      0.5      0.0    Cd
C       0.5004   0.1548   0.8011     C
C       0.5037   0.4439   0.8106     C
O       0.5094  0.64498  0.15702     O
H       0.5172   0.6228    0.702     H
C       0.5213   0.0123   0.1167     C
O       0.5235  0.49959  0.14368     O
O       0.5308  0.18015   0.0376     O
C       0.5467   0.8932   0.9367     C
C        0.553   0.5834   0.6673     C
C       0.5549   0.4856   0.7089     C
H       0.5564   0.2078   0.7804     H
C       0.5612   0.0664   0.8519     C
H       0.5971   0.7344   0.3973     H
H       0.6021   0.6891   0.5473     H
C       0.6043   0.6232   0.5743     C
H        0.606   0.3618   0.6827     H
C       0.6062   0.4277   0.6556     C
C       0.6441   0.8357   0.2189     C
Cd     0.65692  0.72132  0.03472    Cd
C       0.6574   0.4672   0.5626     C
H       0.6577   0.0606   0.8647     H
C        0.659   0.5662   0.5203     C
C       0.6616   0.6998   0.3679     C
C       0.6664    0.003   0.1356     C
O       0.6742  0.61568  0.94734     O
O       0.6742  0.88614    0.957     O
H       0.6911   0.4276   0.5278     H
C        0.706   0.7407   0.2727     C
C       0.7112   0.6085   0.4199     C
H       0.7229   0.0558   0.1142     H
C       0.7258   0.9155   0.1859     C
H       0.7309   0.5501    0.806     H
H       0.7785   0.5087   0.1656     H
C       0.7993   0.6874   0.2284     C
H       0.8028   0.7795   0.0976     H
C       0.8073    0.558   0.3737     C
C       0.8091   0.6278   0.9242     C
H       0.8226   0.9099   0.1979     H
C       0.8299   0.5384   0.8116     C
N       0.8375   0.7244   0.1296     N
H       0.8441    0.498   0.4078     H
C       0.8496   0.5944   0.2787     C
H       0.8676   0.4653   0.7201     H
O       0.8678   0.6886   0.9464     O
C       0.8773   0.4972   0.1719     C
C       0.8948   0.5724   0.8696     C
H       0.8951   0.6915   0.1022     H
C        0.912   0.4861   0.7611     C
H       0.9125   0.4149   0.0881     H
C       0.9405   0.5356   0.2292     C
C       0.9577   0.4419    0.124     C
