data_I
_chemical_name_common  '/home/zhangsd/repos/MofS-CGCNN/ML/data/SSD/clean_cifs/KOSLOV_clean'
_cell_length_a  6.76130
_cell_length_b 15.06630
_cell_length_c 15.06630
_cell_angle_alpha 62.19690
_cell_angle_beta  81.39690
_cell_angle_gamma 98.60310
_space_group_name_H-M_alt      'P 1'


loop_
_space_group_symop_operation_xyz
  'x, y, z' 

loop_
_atom_site_label
_atom_site_fract_x
_atom_site_fract_y
_atom_site_fract_z
_atom_site_type_symbol
O        0.041   0.4959   0.3319     O
O        0.041   0.6681   0.5041     O
C       0.0505   0.0935    0.461     C
C       0.0505    0.539   0.9065     C
C       0.0879      0.0   0.4923     C
C       0.0879   0.5077     -0.0     C
H        0.098     0.57     0.43     H
Ni      0.1162   0.3006    0.281    Ni
Ni      0.1162    0.719   0.6994    Ni
O       0.1597   0.1745   0.4064     O
O       0.1597   0.5936   0.8255     O
C       0.1949   0.4554   0.3577     C
C       0.1949   0.6423   0.5446     C
H        0.229      0.0    0.495     H
H        0.229    0.505      0.0     H
C       0.2396   0.5529   0.4471     C
O        0.262   0.3824   0.3474     O
O        0.262   0.6526   0.6176     O
C       0.2961   0.4846   0.4253     C
C       0.2961   0.5747   0.5154     C
O       0.3729   0.3319   0.1722     O
O       0.3729   0.8278   0.6681     O
Ni      0.3972    0.281   0.4184    Ni
Ni      0.3972   0.5816    0.719    Ni
C       0.5115    0.461   0.4455     C
C       0.5115   0.5545    0.539     C
H        0.528     -0.0     0.57     H
H        0.528     0.43      0.0     H
O       0.5451   0.1722   0.4959     O
O       0.5451   0.5041   0.8278     O
C       0.5526   0.3577   0.1869     C
C       0.5526   0.8131   0.6423     C
O       0.5661   0.4064   0.4191     O
O       0.5661   0.5809   0.5936     O
C       0.5802   0.4923   0.5077     C
O       0.6094   0.3474   0.2702     O
O       0.6094   0.7298   0.6526     O
C       0.6867      0.0   0.5529     C
C       0.6867   0.4471      0.0     C
C       0.7214   0.4253   0.0901     C
C       0.7214   0.9099   0.5747     C
H        0.724    0.495    0.505     H
C       0.7395   0.1869   0.4554     C
C       0.7395   0.5446   0.8131     C
C       0.8115   0.0901   0.4846     C
C       0.8115   0.5154   0.9099     C
Ni      0.8156   0.4184   0.3006    Ni
Ni      0.8156   0.6994   0.5816    Ni
O       0.8796   0.2702   0.3824     O
O       0.8796   0.6176   0.7298     O
C        0.957   0.4455   0.0935     C
C        0.957   0.9065   0.5545     C
O       0.9852   0.4191   0.1745     O
O       0.9852   0.8255   0.5809     O
