data_I
_chemical_name_common  '/home/zhangsd/repos/MofS-CGCNN/ML/data/SSD/clean_cifs/KUFVAK_clean'
_cell_length_a 14.46000
_cell_length_b 13.06300
_cell_length_c 22.05400
_cell_angle_alpha 90.00000
_cell_angle_beta  125.16000
_cell_angle_gamma 90.00000
_space_group_name_H-M_alt      'P 1'


loop_
_space_group_symop_operation_xyz
  'x, y, z' 

loop_
_atom_site_label
_atom_site_fract_x
_atom_site_fract_y
_atom_site_fract_z
_atom_site_type_symbol
H       0.0036   0.1089    0.278     H
H       0.0036   0.3911    0.778     H
C       0.0256   0.2063    0.356     C
C       0.0256   0.2937    0.856     C
C       0.0519   0.1261   0.3279     C
C       0.0519   0.3739   0.8279     C
C       0.0818   0.7334   0.6926     C
C       0.0818   0.7666   0.1926     C
H       0.0848   0.2082   0.9477     H
H       0.0848   0.2918   0.4477     H
O       0.0971     0.66   0.6624     O
O       0.0971     0.84   0.1624     O
C       0.1017   0.2355   0.4299     C
C       0.1017   0.2645   0.9299     C
O       0.1467   0.7406  0.25856     O
O       0.1467   0.7594  0.75856     O
C       0.1513    0.071   0.3748     C
C       0.1513    0.429   0.8748     C
O       0.1552   0.5021   0.7793     O
O       0.1552   0.9979   0.2793     O
H       0.1803   0.1902   0.0626     H
H       0.1803   0.3098   0.5626     H
C       0.1834   0.5141   0.8443     C
C       0.1834   0.9859   0.3443     C
C       0.2027   0.1825   0.4779     C
C       0.2027   0.3175   0.9779     C
O        0.203   0.0569  0.14976     O
O        0.203   0.4431  0.64976     O
C       0.2241   0.0976    0.449     C
C       0.2241   0.4024    0.949     C
Mn     0.22733  0.55772  0.72707    Mn
Mn     0.22733  0.94228  0.22707    Mn
O       0.2368   0.5891  0.88545     O
O       0.2368   0.9109  0.38545     O
C       0.2538   0.2156   0.0896     C
C       0.2538   0.2844   0.5896     C
C       0.2843   0.2162   0.5554     C
C       0.2843   0.2838   0.0554     C
H       0.2883   0.0582   0.4803     H
H       0.2883   0.4418   0.9803     H
Mn     0.29507  0.72915  0.86879    Mn
Mn     0.29507  0.77085  0.36879    Mn
C       0.2951   0.1038   0.1939     C
C       0.2951   0.3962   0.6939     C
C       0.3292   0.1843   0.1623     C
C       0.3292   0.3157   0.6623     C
O       0.3559   0.6565   0.7182     O
O       0.3559   0.8435   0.2182     O
O       0.3569   0.0818  0.26108     O
O       0.3569   0.4182  0.76108     O
O       0.3713   0.6379  0.82272     O
O       0.3713   0.8621  0.32272     O
C       0.3962   0.1816   0.5972     C
C       0.3962   0.3184   0.0972     C
C       0.4116   0.6675   0.7868     C
C       0.4116   0.8325   0.2868     C
H       0.4203   0.1388   0.5752     H
H       0.4203   0.3612   0.0752     H
C       0.4385   0.2248   0.2042     C
C       0.4385   0.2752   0.7042     C
C       0.4722   0.2099   0.6708     C
C       0.4722   0.2901   0.1708     C
H       0.4884   0.2079   0.2541     H
H       0.4884   0.2921   0.7541     H
H       0.5116   0.7079   0.2459     H
H       0.5116   0.7921   0.7459     H
C       0.5278   0.7099   0.8292     C
C       0.5278   0.7901   0.3292     C
C       0.5615   0.7248   0.2958     C
C       0.5615   0.7752   0.7958     C
H       0.5797   0.6388   0.9248     H
H       0.5797   0.8612   0.4248     H
C       0.5884   0.1675   0.7132     C
C       0.5884   0.3325   0.2132     C
C       0.6038   0.6816   0.9028     C
C       0.6038   0.8184   0.4028     C
O       0.6287   0.1379  0.67728     O
O       0.6287   0.3621  0.17728     O
O       0.6431   0.5818  0.23892     O
O       0.6431   0.9182  0.73892     O
O       0.6441   0.1565   0.7818     O
O       0.6441   0.3435   0.2818     O
C       0.6708   0.6843   0.3377     C
C       0.6708   0.8157   0.8377     C
C       0.7049   0.6038   0.3061     C
C       0.7049   0.8962   0.8061     C
Mn     0.70493  0.22915  0.63121    Mn
Mn     0.70493  0.27085  0.13121    Mn
H       0.7117   0.5582   0.0197     H
H       0.7117   0.9418   0.5197     H
C       0.7157   0.7162   0.9446     C
C       0.7157   0.7838   0.4446     C
C       0.7462   0.7156   0.4104     C
C       0.7462   0.7844   0.9104     C
O       0.7632   0.0891  0.61455     O
O       0.7632   0.4109  0.11455     O
Mn     0.77267  0.05772  0.77293    Mn
Mn     0.77267  0.44228  0.27293    Mn
C       0.7759   0.5976    0.051     C
C       0.7759   0.9024    0.551     C
O        0.797   0.5569  0.35024     O
O        0.797   0.9431  0.85024     O
C       0.7973   0.6825   0.0221     C
C       0.7973   0.8175   0.5221     C
C       0.8166   0.0141   0.6557     C
C       0.8166   0.4859   0.1557     C
H       0.8197   0.6902   0.4374     H
H       0.8197   0.8098   0.9374     H
O       0.8448   0.0021   0.7207     O
O       0.8448   0.4979   0.2207     O
C       0.8487    0.571   0.1252     C
C       0.8487    0.929   0.6252     C
O       0.8533   0.2406  0.24144     O
O       0.8533   0.2594  0.74144     O
C       0.8983   0.7355   0.0701     C
C       0.8983   0.7645   0.5701     C
O       0.9029     0.16   0.8376     O
O       0.9029     0.34   0.3376     O
H       0.9152   0.7082   0.5523     H
H       0.9152   0.7918   0.0523     H
C       0.9182   0.2334   0.8074     C
C       0.9182   0.2666   0.3074     C
C       0.9481   0.6261   0.1721     C
C       0.9481   0.8739   0.6721     C
C       0.9744   0.7063    0.144     C
C       0.9744   0.7937    0.644     C
H       0.9964   0.6089    0.222     H
H       0.9964   0.8911    0.722     H
