data_I
_chemical_name_common  '/home/zhangsd/repos/MofS-CGCNN/ML/data/SSD/clean_cifs/KUFVEO_clean'
_cell_length_a 13.28800
_cell_length_b 13.91900
_cell_length_c 18.47700
_cell_angle_alpha 90.00000
_cell_angle_beta  96.31800
_cell_angle_gamma 90.00000
_space_group_name_H-M_alt      'P 1'


loop_
_space_group_symop_operation_xyz
  'x, y, z' 

loop_
_atom_site_label
_atom_site_fract_x
_atom_site_fract_y
_atom_site_fract_z
_atom_site_type_symbol
C       0.0045   0.7932   0.3738     C
H        0.011   0.7909   0.3242     H
Mn     0.01295  0.94586  0.77741    Mn
N       0.0205   0.1957   0.4816     N
C       0.0239   0.7224   0.4928     C
N       0.0298   0.6618   0.6143     N
C       0.0375   0.7154   0.4178     C
C       0.0376   0.1265   0.5979     C
H       0.0464   0.6046   0.7102     H
O       0.0481   0.1686  0.16993     O
C       0.0482   0.1255   0.5255     C
O        0.055   0.0498  0.86761     O
C       0.0565   0.6472    0.546     C
H       0.0581   0.0744   0.6274     H
O       0.0621   0.8824  0.67677     O
C        0.063   0.5965    0.663     C
Mn     0.06664   0.2073  0.36906    Mn
H       0.0669   0.6616   0.3989     H
H        0.077   0.0715   0.5064     H
O       0.0967   0.0804  0.75871     O
C       0.0968   0.2375   0.1998     C
C       0.0985   0.1019    0.825     C
O       0.1003   0.2597  0.26534     O
H       0.1108   0.1878   0.9535     H
C       0.1118   0.5685   0.5294     C
H       0.1157   0.2214   0.0606     H
C       0.1204   0.5175   0.6495     C
O        0.128   0.0053  0.27203     O
H       0.1282   0.5598   0.4822     H
C       0.1424   0.5037   0.5816     C
H       0.1431   0.4751   0.6866     H
C       0.1492   0.8561   0.7086     C
O       0.1501   0.0765  0.38142     O
C       0.1522     0.22   0.9241     C
C        0.154   0.1894   0.8525     C
C       0.1541   0.2738   0.0784     C
C       0.1565   0.2979   0.1517     C
C       0.1655   0.0103   0.3382     C
O       0.1706   0.8668   0.7753     O
H       0.1787   0.4496   0.5702     H
H        0.182   0.8883   0.5725     H
H       0.2055   0.9449   0.4712     H
C       0.2078   0.3266   0.0309     C
C        0.209   0.2961   0.9527     C
C       0.2146   0.3743   0.1789     C
C       0.2164   0.2382   0.8083     C
H       0.2165   0.2208   0.7597     H
H       0.2186   0.3893   0.2282     H
C       0.2231   0.8112   0.6633     C
C        0.225   0.8397   0.5915     C
C       0.2328   0.9289   0.3671     C
C       0.2385    0.906   0.4403     C
C       0.2615    0.406   0.0597     C
C       0.2672   0.4289   0.1329     C
C        0.275   0.3397   0.9085     C
C       0.2769   0.3112   0.8367     C
H       0.2814   0.8893   0.2718     H
H       0.2835   0.7208   0.7403     H
C       0.2836   0.7382   0.6917     C
C       0.2854   0.8743   0.3211     C
C        0.291   0.7961   0.5473     C
C       0.2922   0.8266   0.4691     C
H       0.2945   0.4449   0.0288     H
H        0.318   0.3883   0.9275     H
H       0.3213   0.9496   0.9298     H
O       0.3294   0.3668   0.7247     O
C       0.3345   0.5103   0.1618     C
C       0.3435   0.7979   0.3483     C
C       0.3459   0.7738   0.4216     C
C        0.346   0.6894   0.6475     C
C       0.3478     0.72   0.5759     C
O       0.3499   0.5765  0.11858     O
C       0.3508   0.3561   0.7914     C
H       0.3569   0.9751   0.8134     H
C       0.3576   0.0037   0.9184     C
H       0.3718   0.0598   0.0178     H
O        0.372   0.5053  0.22797     O
C       0.3796   0.0175   0.8505     C
H       0.3843   0.7214   0.4394     H
C       0.3882   0.0685   0.9706     C
H       0.3892   0.6878   0.5465     H
O       0.3997   0.7597  0.23466     O
C       0.4015   0.6019    0.675     C
C       0.4032   0.7375   0.3002     C
O       0.4033   0.5804  0.74129     O
H        0.423   0.5715   0.9936     H
H       0.4331   0.1616   0.1011     H
Mn     0.43336   0.7073  0.13094    Mn
C        0.437   0.0965    0.837     C
O       0.4379   0.3824  0.82323     O
H       0.4419   0.5744   0.8726     H
C       0.4435   0.1472    0.954     C
O        0.445   0.5498  0.63239     O
C       0.4518   0.6255   0.9745     C
O       0.4519   0.6686  0.33007     O
H       0.4536   0.1046   0.7898     H
C       0.4624   0.6265   0.9021     C
C       0.4625   0.2154   0.0822     C
N       0.4702   0.1618   0.8857     N
C       0.4761   0.2224   0.0072     C
N       0.4795   0.6957   0.0184     N
Mn     0.48705  0.44586  0.72259    Mn
H        0.489   0.2909   0.1758     H
C       0.4955   0.2932   0.1262     C
C       0.5045   0.7068   0.8738     C
H        0.511   0.7091   0.8242     H
Mn     0.51295  0.55414  0.27741    Mn
N       0.5205   0.3043   0.9816     N
C       0.5239   0.7776   0.9928     C
N       0.5298   0.8382   0.1143     N
C       0.5375   0.7846   0.9178     C
C       0.5376   0.3735   0.0979     C
H       0.5464   0.8954   0.2102     H
O       0.5481   0.3314  0.66993     O
C       0.5482   0.3745   0.0255     C
O        0.555   0.4502  0.36761     O
C       0.5565   0.8528    0.046     C
H       0.5581   0.4256   0.1274     H
O       0.5621   0.6176  0.17677     O
C        0.563   0.9035    0.163     C
Mn     0.56664   0.2927  0.86906    Mn
H       0.5669   0.8384   0.8989     H
H        0.577   0.4285   0.0064     H
O       0.5967   0.4196  0.25871     O
C       0.5968   0.2625   0.6998     C
C       0.5985   0.3981    0.325     C
O       0.6003   0.2403  0.76534     O
H       0.6108   0.3122   0.4535     H
C       0.6118   0.9315   0.0294     C
H       0.6157   0.2786   0.5606     H
C       0.6204   0.9825   0.1495     C
O        0.628   0.4947  0.77203     O
H       0.6282   0.9402   0.9822     H
C       0.6424   0.9963   0.0816     C
H       0.6431   0.0249   0.1866     H
C       0.6492   0.6439   0.2086     C
O       0.6501   0.4235  0.88142     O
C       0.6522     0.28   0.4241     C
C        0.654   0.3106   0.3525     C
C       0.6541   0.2262   0.5784     C
C       0.6565   0.2021   0.6517     C
C       0.6655   0.4897   0.8382     C
O       0.6706   0.6332   0.2753     O
H       0.6787   0.0504   0.0702     H
H        0.682   0.6117   0.0725     H
H       0.7055   0.5551   0.9712     H
C       0.7078   0.1734   0.5309     C
C        0.709   0.2039   0.4527     C
C       0.7146   0.1257   0.6789     C
C       0.7164   0.2618   0.3083     C
H       0.7165   0.2792   0.2597     H
H       0.7186   0.1107   0.7282     H
C       0.7231   0.6888   0.1633     C
C        0.725   0.6603   0.0915     C
C       0.7328   0.5711   0.8671     C
C       0.7385    0.594   0.9403     C
C       0.7615    0.094   0.5597     C
C       0.7672   0.0711   0.6329     C
C        0.775   0.1603   0.4085     C
C       0.7769   0.1888   0.3367     C
H       0.7814   0.6107   0.7718     H
H       0.7835   0.7792   0.2403     H
C       0.7836   0.7618   0.1917     C
C       0.7854   0.6257   0.8211     C
C        0.791   0.7039   0.0473     C
C       0.7922   0.6734   0.9691     C
H       0.7945   0.0551   0.5288     H
H        0.818   0.1117   0.4275     H
H       0.8213   0.5504   0.4298     H
O       0.8294   0.1332   0.2247     O
C       0.8345   0.9897   0.6618     C
C       0.8435   0.7021   0.8483     C
C       0.8459   0.7262   0.9216     C
C        0.846   0.8106   0.1475     C
C       0.8478     0.78   0.0759     C
O       0.8499   0.9235  0.61858     O
C       0.8508   0.1439   0.2914     C
H       0.8569   0.5249   0.3134     H
C       0.8576   0.4963   0.4184     C
H       0.8718   0.4402   0.5178     H
O        0.872   0.9947  0.72797     O
C       0.8796   0.4825   0.3505     C
H       0.8843   0.7786   0.9394     H
C       0.8882   0.4315   0.4706     C
H       0.8892   0.8122   0.0465     H
O       0.8997   0.7403  0.73466     O
C       0.9015   0.8981    0.175     C
C       0.9032   0.7625   0.8002     C
O       0.9033   0.9196  0.24129     O
H        0.923   0.9285   0.4936     H
H       0.9331   0.3384   0.6011     H
Mn     0.93336   0.7927  0.63094    Mn
C        0.937   0.4035    0.337     C
O       0.9379   0.1176  0.32323     O
H       0.9419   0.9256   0.3726     H
C       0.9435   0.3528    0.454     C
O        0.945   0.9502  0.13239     O
C       0.9518   0.8745   0.4745     C
O       0.9519   0.8314  0.83007     O
H       0.9536   0.3954   0.2898     H
C       0.9624   0.8735   0.4021     C
C       0.9625   0.2846   0.5822     C
N       0.9702   0.3382   0.3857     N
C       0.9761   0.2776   0.5072     C
N       0.9795   0.8043   0.5184     N
Mn     0.98705  0.05414  0.22259    Mn
H        0.989   0.2091   0.6758     H
C       0.9955   0.2068   0.6262     C
