data_I
_chemical_name_common  '/home/zhangsd/repos/MofS-CGCNN/ML/data/SSD/clean_cifs/KUQWIE_clean'
_cell_length_a 22.49410
_cell_length_b 11.13770
_cell_length_c  9.81010
_cell_angle_alpha 90.00000
_cell_angle_beta  103.10000
_cell_angle_gamma 90.00000
_space_group_name_H-M_alt      'P 1'


loop_
_space_group_symop_operation_xyz
  'x, y, z' 

loop_
_atom_site_label
_atom_site_fract_x
_atom_site_fract_y
_atom_site_fract_z
_atom_site_type_symbol
Cd         0.0  0.38001     0.25    Cd
Cd         0.0  0.61999     0.75    Cd
O      0.02073   0.3309   0.9503     O
O      0.02073   0.6691   0.4503     O
P      0.04577   0.3668  0.59343     P
P      0.04577   0.6332  0.09343     P
H       0.0536    0.186    0.713     H
H       0.0536    0.814    0.213     H
O      0.06014   0.4667   0.7025     O
O      0.06014   0.5333   0.2025     O
O       0.0705   0.3983   0.4648     O
O       0.0705   0.6017   0.9648     O
C      0.08286  0.23116  0.67663     C
C      0.08286  0.76884  0.17663     C
H       0.0949   0.1828   0.6065     H
H       0.0949   0.8172   0.1065     H
Cd     0.10786  0.41408  0.92833    Cd
Cd     0.10786  0.58592  0.42833    Cd
H       0.1195    0.113   0.9059     H
H       0.1195    0.887   0.4059     H
N      0.13706  0.25275  0.79154     N
N      0.13706  0.74725  0.29154     N
H       0.1476   0.0166   0.7197     H
H       0.1476   0.9834   0.2197     H
C      0.15452  0.14245  0.87577     C
C      0.15452  0.85755  0.37577     C
O      0.16699   0.3322   0.1487     O
O      0.16699   0.6678   0.6487     O
H        0.178   0.3636   0.6787     H
H        0.178   0.6364   0.1787     H
C      0.17906  0.04253   0.7975     C
C      0.17906  0.95747   0.2975     C
H       0.1851   0.1627   0.9579     H
H       0.1851   0.8373   0.4579     H
H       0.1896   0.1833    0.573     H
H       0.1896   0.8167    0.073     H
C      0.19046  0.29587  0.73901     C
C      0.19046  0.70413  0.23901     C
H       0.1908   0.0248   0.3588     H
H       0.1908   0.9752   0.8588     H
O      0.20556   0.4645   0.0284     O
O      0.20556   0.5355   0.5284     O
C      0.20914  0.40098  0.13533     C
C      0.20914  0.59902  0.63533     C
C      0.21811  0.20168  0.65922     C
C      0.21811  0.79832  0.15922     C
H       0.2214    0.323   0.8172     H
H       0.2214    0.677   0.3172     H
C      0.23406  0.08637  0.74467     C
C      0.23406  0.91363  0.24467     C
H        0.243    0.026   0.6823     H
H        0.243    0.974   0.1823     H
H       0.2456   0.2664   0.3633     H
H       0.2456   0.7336   0.8633     H
H       0.2544   0.2336   0.6367     H
H       0.2544   0.7664   0.1367     H
H        0.257    0.474   0.3177     H
H        0.257    0.526   0.8177     H
C      0.26594  0.41363  0.25533     C
C      0.26594  0.58637  0.75533     C
H       0.2786    0.177   0.1828     H
H       0.2786    0.823   0.6828     H
C      0.28189  0.29832  0.34078     C
C      0.28189  0.70168  0.84078     C
C      0.29086  0.09902  0.86467     C
C      0.29086  0.90098  0.36467     C
O      0.29444   0.0355   0.9716     O
O      0.29444   0.9645   0.4716     O
H       0.3092   0.4752   0.6412     H
H       0.3092   0.5248   0.1412     H
C      0.30954  0.20413  0.26099     C
C      0.30954  0.79587  0.76099     C
H       0.3104   0.3167    0.427     H
H       0.3104   0.6833    0.927     H
H       0.3149   0.3373   0.0421     H
H       0.3149   0.6627   0.5421     H
C      0.32094  0.45747   0.2025     C
C      0.32094  0.54253   0.7025     C
H        0.322   0.1364   0.3213     H
H        0.322   0.8636   0.8213     H
O      0.33301   0.1678   0.8513     O
O      0.33301   0.8322   0.3513     O
C      0.34548  0.35755  0.12423     C
C      0.34548  0.64245  0.62423     C
H       0.3524   0.4834   0.2803     H
H       0.3524   0.5166   0.7803     H
N      0.36294  0.24725  0.20846     N
N      0.36294  0.75275  0.70846     N
H       0.3805    0.387   0.0941     H
H       0.3805    0.613   0.5941     H
Cd     0.39214  0.08592  0.07167    Cd
Cd     0.39214  0.91408  0.57167    Cd
H       0.4051   0.3172   0.3935     H
H       0.4051   0.6828   0.8935     H
C      0.41714  0.26884  0.32337     C
C      0.41714  0.73116  0.82337     C
O       0.4295   0.1017   0.5352     O
O       0.4295   0.8983   0.0352     O
O      0.43986   0.0333   0.2975     O
O      0.43986   0.9667   0.7975     O
H       0.4464    0.314    0.287     H
H       0.4464    0.686    0.787     H
P      0.45423   0.1332  0.40657     P
P      0.45423   0.8668  0.90657     P
O      0.47927   0.1691   0.0497     O
O      0.47927   0.8309   0.5497     O
Cd         0.5  0.11999     0.75    Cd
Cd         0.5  0.88001     0.25    Cd
O      0.52073   0.1691   0.4503     O
O      0.52073   0.8309   0.9503     O
P      0.54577   0.1332  0.09343     P
P      0.54577   0.8668  0.59343     P
H       0.5536    0.314    0.213     H
H       0.5536    0.686    0.713     H
O      0.56014   0.0333   0.2025     O
O      0.56014   0.9667   0.7025     O
O       0.5705   0.1017   0.9648     O
O       0.5705   0.8983   0.4648     O
C      0.58286  0.26884  0.17663     C
C      0.58286  0.73116  0.67663     C
H       0.5949   0.3172   0.1065     H
H       0.5949   0.6828   0.6065     H
Cd     0.60786  0.08592  0.42833    Cd
Cd     0.60786  0.91408  0.92833    Cd
H       0.6195    0.387   0.4059     H
H       0.6195    0.613   0.9059     H
N      0.63706  0.24725  0.29154     N
N      0.63706  0.75275  0.79154     N
H       0.6476   0.4834   0.2197     H
H       0.6476   0.5166   0.7197     H
C      0.65452  0.35755  0.37577     C
C      0.65452  0.64245  0.87577     C
O      0.66699   0.1678   0.6487     O
O      0.66699   0.8322   0.1487     O
H        0.678   0.1364   0.1787     H
H        0.678   0.8636   0.6787     H
C      0.67906  0.45747   0.2975     C
C      0.67906  0.54253   0.7975     C
H       0.6851   0.3373   0.4579     H
H       0.6851   0.6627   0.9579     H
H       0.6896   0.3167    0.073     H
H       0.6896   0.6833    0.573     H
C      0.69046  0.20413  0.23901     C
C      0.69046  0.79587  0.73901     C
H       0.6908   0.4752   0.8588     H
H       0.6908   0.5248   0.3588     H
O      0.70556   0.0355   0.5284     O
O      0.70556   0.9645   0.0284     O
C      0.70914  0.09902  0.63533     C
C      0.70914  0.90098  0.13533     C
C      0.71811  0.29832  0.15922     C
C      0.71811  0.70168  0.65922     C
H       0.7214    0.177   0.3172     H
H       0.7214    0.823   0.8172     H
C      0.73406  0.41363  0.24467     C
C      0.73406  0.58637  0.74467     C
H        0.743    0.474   0.1823     H
H        0.743    0.526   0.6823     H
H       0.7456   0.2336   0.8633     H
H       0.7456   0.7664   0.3633     H
H       0.7544   0.2664   0.1367     H
H       0.7544   0.7336   0.6367     H
H        0.757    0.026   0.8177     H
H        0.757    0.974   0.3177     H
C      0.76594  0.08637  0.75533     C
C      0.76594  0.91363  0.25533     C
H       0.7786    0.323   0.6828     H
H       0.7786    0.677   0.1828     H
C      0.78189  0.20168  0.84078     C
C      0.78189  0.79832  0.34078     C
C      0.79086  0.40098  0.36467     C
C      0.79086  0.59902  0.86467     C
O      0.79444   0.4645   0.4716     O
O      0.79444   0.5355   0.9716     O
H       0.8092   0.0248   0.1412     H
H       0.8092   0.9752   0.6412     H
C      0.80954  0.29587  0.76099     C
C      0.80954  0.70413  0.26099     C
H       0.8104   0.1833    0.927     H
H       0.8104   0.8167    0.427     H
H       0.8149   0.1627   0.5421     H
H       0.8149   0.8373   0.0421     H
C      0.82094  0.04253   0.7025     C
C      0.82094  0.95747   0.2025     C
H        0.822   0.3636   0.8213     H
H        0.822   0.6364   0.3213     H
O      0.83301   0.3322   0.3513     O
O      0.83301   0.6678   0.8513     O
C      0.84548  0.14245  0.62423     C
C      0.84548  0.85755  0.12423     C
H       0.8524   0.0166   0.7803     H
H       0.8524   0.9834   0.2803     H
N      0.86294  0.25275  0.70846     N
N      0.86294  0.74725  0.20846     N
H       0.8805    0.113   0.5941     H
H       0.8805    0.887   0.0941     H
Cd     0.89214  0.41408  0.57167    Cd
Cd     0.89214  0.58592  0.07167    Cd
H       0.9051   0.1828   0.8935     H
H       0.9051   0.8172   0.3935     H
C      0.91714  0.23116  0.82337     C
C      0.91714  0.76884  0.32337     C
O       0.9295   0.3983   0.0352     O
O       0.9295   0.6017   0.5352     O
O      0.93986   0.4667   0.7975     O
O      0.93986   0.5333   0.2975     O
H       0.9464    0.186    0.787     H
H       0.9464    0.814    0.287     H
P      0.95423   0.3668  0.90657     P
P      0.95423   0.6332  0.40657     P
O      0.97927   0.3309   0.5497     O
O      0.97927   0.6691   0.0497     O
