data_I
_chemical_name_common  '/home/zhangsd/repos/MofS-CGCNN/ML/data/SSD/clean_cifs/KUTRUO_clean'
_cell_length_a 17.31700
_cell_length_b 25.39700
_cell_length_c 21.54000
_cell_angle_alpha 90.00000
_cell_angle_beta  94.43100
_cell_angle_gamma 90.00000
_space_group_name_H-M_alt      'P 1'


loop_
_space_group_symop_operation_xyz
  'x, y, z' 

loop_
_atom_site_label
_atom_site_fract_x
_atom_site_fract_y
_atom_site_fract_z
_atom_site_type_symbol
C       0.0009   0.1408   0.1173     C
C       0.0009   0.8592   0.6173     C
C       0.0054   0.1944   0.3782     C
C       0.0054   0.8056   0.8782     C
O       0.0076  0.02743   0.3911     O
O       0.0076  0.97257   0.8911     O
C       0.0143   0.3151   0.5332     C
C       0.0143   0.6849   0.0332     C
H       0.0178   0.0905   0.8702     H
H       0.0178   0.9095   0.3702     H
H       0.0212   0.3748   0.0224     H
H       0.0212   0.6252   0.5224     H
C       0.0232   0.3558   0.4936     C
C       0.0232   0.6442   0.9936     C
C       0.0299   0.1059   0.6204     C
C       0.0299   0.8941   0.1204     C
H       0.0332   0.1622    0.687     H
H       0.0332   0.8378    0.187     H
H       0.0348   0.2143   0.1432     H
H       0.0348   0.7857   0.6432     H
H       0.0459   0.1233   0.1348     H
H       0.0459   0.8767   0.6348     H
H       0.0497   0.0566   0.5496     H
H       0.0497   0.9434   0.0496     H
C       0.0587   0.1128   0.4127     C
C       0.0587   0.8872   0.9127     C
C       0.0595   0.0544   0.4178     C
C       0.0595   0.9456   0.9178     C
C       0.0599   0.1477   0.6541     C
C       0.0599   0.8523   0.1541     C
C       0.0661   0.3001   0.9442     C
C       0.0661   0.6999   0.4442     C
O       0.0677   0.2704   0.9008     O
O       0.0677   0.7296   0.4008     O
C       0.0685   0.2188    0.404     C
C       0.0685   0.7812    0.904     C
C         0.07   0.0862   0.5722     C
C         0.07   0.9138   0.0722     C
H       0.0716   0.2592   0.5821     H
H       0.0716   0.7408   0.0821     H
H        0.073    0.256   0.4014     H
H        0.073    0.744   0.9014     H
C        0.077   0.2877   0.5543     C
C        0.077   0.7123   0.0543     C
C       0.0982   0.3711   0.4753     C
C       0.0982   0.6289   0.9753     C
H       0.1038   0.4003   0.4486     H
H       0.1038   0.5997   0.9486     H
H         0.11   0.0296   0.0443     H
H         0.11   0.9704   0.5443     H
N        0.119  0.03721   0.4527     N
N        0.119  0.96279   0.9527     N
H       0.1193   0.4529   0.0184     H
H       0.1193   0.5471   0.5184     H
O       0.1217   0.3172   0.9739     O
O       0.1217   0.6828   0.4739     O
N       0.1222  0.13715   0.4393     N
N       0.1222  0.86285   0.9393     N
H       0.1252   0.4231   0.9154     H
H       0.1252   0.5769   0.4154     H
C        0.127   0.1897   0.4344     C
C        0.127   0.8103   0.9344     C
C       0.1278   0.0464   0.0087     C
C       0.1278   0.9536   0.5087     C
C       0.1304   0.1685   0.6393     C
C       0.1304   0.8315   0.1393     C
C       0.1343  0.01796   0.9539     C
C       0.1343  0.98204   0.4539     C
N       0.1364  0.10754   0.5565     N
N       0.1364  0.89246   0.0565     N
H        0.138   0.3714   0.6331     H
H        0.138   0.6286   0.1331     H
H       0.1385   0.1205   0.2343     H
H       0.1385   0.8795   0.7343     H
H       0.1421   0.1189   0.0478     H
H       0.1421   0.8811   0.5478     H
H       0.1443   0.3271   0.7282     H
H       0.1443   0.6729   0.2282     H
C       0.1476   0.0994   0.0108     C
C       0.1476   0.9006   0.5108     C
H       0.1482   0.0722   0.3249     H
H       0.1482   0.9278   0.8249     H
C       0.1495   0.3007   0.5359     C
C       0.1495   0.6993   0.0359     C
C       0.1509   0.4706   0.9907     C
C       0.1509   0.5294   0.4907     C
O        0.153   0.4853   0.6125     O
O        0.153   0.5147   0.1125     O
H       0.1531   0.1968    0.663     H
H       0.1531   0.8032    0.163     H
C       0.1537   0.4532   0.9299     C
C       0.1537   0.5468   0.4299     C
C       0.1608   0.3424   0.4974     C
C       0.1608   0.6576   0.9974     C
C       0.1609    0.043   0.9025     C
C       0.1609    0.957   0.4025     C
H       0.1655   0.0239    0.865     H
H       0.1655   0.9761    0.365     H
C       0.1669   0.1481   0.5906     C
C       0.1669   0.8519   0.0906     C
H       0.1718   0.2072   0.4523     H
H       0.1718   0.7928   0.9523     H
C        0.175  0.12379   0.9605     C
C        0.175  0.87621   0.4605     C
C       0.1806   0.0957   0.9058     C
C       0.1806   0.9043   0.4058     C
O       0.1821   0.2095   0.1702     O
O       0.1821   0.7905   0.6702     O
C       0.1842   0.3724     0.66     C
C       0.1842   0.6276     0.16     C
C       0.1848   0.1227   0.2609     C
C       0.1848   0.8773   0.7609     C
C        0.188   0.3462   0.7164     C
C        0.188   0.6538   0.2164     C
C       0.1893    0.095   0.3157     C
C       0.1893    0.905   0.8157     C
H       0.1929     0.28   0.5506     H
H       0.1929     0.72   0.0506     H
Co     0.19396  0.09018  0.48474    Co
Co     0.19396  0.90982  0.98474    Co
C       0.1941   0.4866   0.5104     C
C       0.1941   0.5134   0.0104     C
C       0.1943   0.4654   0.5737     C
C       0.1943   0.5346   0.0737     C
C       0.1959    0.181   0.9644     C
C       0.1959    0.819   0.4644     C
C       0.1978   0.4799   0.8916     C
C       0.1978   0.5201   0.3916     C
H       0.1982   0.1128   0.8703     H
H       0.1982   0.8872   0.3703     H
H        0.199   0.4694   0.8494     H
H        0.199   0.5306   0.3494     H
O       0.2007  0.20202   0.0173     O
O       0.2007  0.79798   0.5173     O
O       0.2046   0.3205    0.848     O
O       0.2046   0.6795    0.348     O
Zn     0.20533    0.283  0.92708    Zn
Zn     0.20533    0.717  0.42708    Zn
O       0.2059  0.20535    0.915     O
O       0.2059  0.79465    0.415     O
O       0.2223    0.297   0.3979     O
O       0.2223    0.703   0.8979     O
H       0.2282   0.0413   0.6137     H
H       0.2282   0.9587   0.1137     H
N       0.2371  0.35477   0.4795     N
N       0.2371  0.64523   0.9795     N
C       0.2387   0.1819   0.1832     C
C       0.2387   0.8181   0.6832     C
N       0.2405  0.46205   0.4736     N
N       0.2405  0.53795   0.9736     N
C       0.2412   0.4774   0.4136     C
C       0.2412   0.5226   0.9136     C
C       0.2413   0.1683   0.5714     C
C       0.2413   0.8317   0.0714     C
C        0.243   0.1526   0.2432     C
C        0.243   0.8474   0.7432     C
N       0.2441  0.42545   0.5837     N
N       0.2441  0.57455   0.0837     N
C       0.2479   0.4001   0.6431     C
C       0.2479   0.5999   0.1431     C
C       0.2521   0.0999   0.3569     C
C       0.2521   0.9001   0.8569     C
N       0.2559  0.07455   0.4163     N
N       0.2559  0.92545   0.9163     N
C        0.257   0.3474   0.7568     C
C        0.257   0.6526   0.2568     C
C       0.2587   0.3317   0.4286     C
C       0.2587   0.6683   0.9286     C
C       0.2588   0.0226   0.5864     C
C       0.2588   0.9774   0.0864     C
N       0.2595  0.03795   0.5264     N
N       0.2595  0.96205   0.0264     N
C       0.2613   0.3181   0.8168     C
C       0.2613   0.6819   0.3168     C
N       0.2629  0.14523   0.5205     N
N       0.2629  0.85477   0.0205     N
H       0.2718   0.4587   0.3863     H
H       0.2718   0.5413   0.8863     H
O       0.2777    0.203   0.6021     O
O       0.2777    0.797   0.1021     O
O       0.2941  0.29465    0.085     O
O       0.2941  0.70535    0.585     O
Zn     0.29467    0.217  0.07292    Zn
Zn     0.29467    0.783  0.57292    Zn
O       0.2954   0.1795    0.152     O
O       0.2954   0.8205    0.652     O
O       0.2993  0.29798   0.9827     O
O       0.2993  0.70202   0.4827     O
H        0.301   0.0306   0.1506     H
H        0.301   0.9694   0.6506     H
H       0.3018   0.3872   0.1297     H
H       0.3018   0.6128   0.6297     H
C       0.3022   0.0201   0.1084     C
C       0.3022   0.9799   0.6084     C
C       0.3041    0.319   0.0356     C
C       0.3041    0.681   0.5356     C
C       0.3057   0.0346   0.4263     C
C       0.3057   0.9654   0.9263     C
C       0.3059   0.0134   0.4896     C
C       0.3059   0.9866   0.9896     C
Co     0.30604  0.40982  0.51526    Co
Co     0.30604  0.59018  0.01526    Co
H       0.3071     0.22   0.4494     H
H       0.3071     0.78   0.9494     H
C       0.3107    0.405   0.6843     C
C       0.3107    0.595   0.1843     C
C        0.312   0.1538   0.2836     C
C        0.312   0.8462   0.7836     C
C       0.3152   0.3773   0.7391     C
C       0.3152   0.6227   0.2391     C
C       0.3158   0.1276     0.34     C
C       0.3158   0.8724     0.84     C
O       0.3179   0.2905   0.8298     O
O       0.3179   0.7095   0.3298     O
C       0.3194   0.4043   0.0942     C
C       0.3194   0.5957   0.5942     C
C        0.325  0.37621   0.0395     C
C        0.325  0.62379   0.5395     C
H       0.3282   0.2928   0.5477     H
H       0.3282   0.7072   0.0477     H
C       0.3331   0.3519   0.4094     C
C       0.3331   0.6481   0.9094     C
H       0.3345   0.4761    0.135     H
H       0.3345   0.5239    0.635     H
C       0.3391    0.457   0.0975     C
C       0.3391    0.543   0.5975     C
C       0.3392   0.1576   0.5026     C
C       0.3392   0.8424   0.0026     C
C       0.3463   0.0468   0.0701     C
C       0.3463   0.9532   0.5701     C
H       0.3469   0.3032    0.337     H
H       0.3469   0.6968    0.837     H
O        0.347   0.0147   0.3875     O
O        0.347   0.9853   0.8875     O
C       0.3491   0.0294   0.0093     C
C       0.3491   0.9706   0.5093     C
C       0.3505   0.1993   0.4641     C
C       0.3505   0.8007   0.9641     C
H       0.3518   0.4278   0.6751     H
H       0.3518   0.5722   0.1751     H
C       0.3524   0.4006   0.9892     C
C       0.3524   0.5994   0.4892     C
H       0.3557   0.1729   0.2718     H
H       0.3557   0.8271   0.7718     H
H       0.3579   0.3811   0.9522     H
H       0.3579   0.6189   0.4522     H
H       0.3615   0.3795   0.7657     H
H       0.3615   0.6205   0.2657     H
H        0.362   0.1286   0.3669     H
H        0.362   0.8714   0.8669     H
N       0.3636  0.39246   0.4435     N
N       0.3636  0.60754   0.9435     N
C       0.3657  0.48204   0.0461     C
C       0.3657  0.51796   0.5461     C
C       0.3696   0.3315   0.3607     C
C       0.3696   0.6685   0.8607     C
C       0.3722   0.4536   0.9913     C
C       0.3722   0.5464   0.4913     C
C        0.373   0.3103   0.5656     C
C        0.373   0.6897   0.0656     C
H       0.3748   0.0769   0.0846     H
H       0.3748   0.9231   0.5846     H
N       0.3778  0.36285   0.5607     N
N       0.3778  0.63715   0.0607     N
O       0.3783   0.1828   0.0261     O
O       0.3783   0.8172   0.5261     O
H       0.3807   0.0471   0.9816     H
H       0.3807   0.9529   0.4816     H
N        0.381  0.46279   0.5473     N
N        0.381  0.53721   0.0473     N
H         0.39   0.4704   0.9557     H
H         0.39   0.5296   0.4557     H
H       0.3962   0.0997   0.5514     H
H       0.3962   0.9003   0.0514     H
C       0.4018   0.1289   0.5247     C
C       0.4018   0.8711   0.0247     C
C        0.423   0.2123   0.4457     C
C        0.423   0.7877   0.9457     C
H        0.427    0.244   0.5986     H
H        0.427    0.756   0.0986     H
H       0.4284   0.2408   0.4179     H
H       0.4284   0.7592   0.9179     H
C         0.43   0.4138   0.4278     C
C         0.43   0.5862   0.9278     C
C       0.4315   0.2812    0.596     C
C       0.4315   0.7188    0.096     C
O       0.4323   0.2296   0.0992     O
O       0.4323   0.7704   0.5992     O
C       0.4339   0.1999   0.0558     C
C       0.4339   0.8001   0.5558     C
C       0.4401   0.3523   0.3459     C
C       0.4401   0.6477   0.8459     C
C       0.4405   0.4456   0.5822     C
C       0.4405   0.5544   0.0822     C
C       0.4413   0.3872   0.5873     C
C       0.4413   0.6128   0.0873     C
H       0.4503   0.4434   0.4504     H
H       0.4503   0.5566   0.9504     H
H       0.4541   0.3767   0.8652     H
H       0.4541   0.6233   0.3652     H
H       0.4652   0.2857   0.8568     H
H       0.4652   0.7143   0.3568     H
H       0.4668   0.3378    0.313     H
H       0.4668   0.6622    0.813     H
C       0.4701   0.3941   0.3796     C
C       0.4701   0.6059   0.8796     C
C       0.4768   0.1442   0.5064     C
C       0.4768   0.8558   0.0064     C
H       0.4788   0.1252   0.9776     H
H       0.4788   0.8748   0.4776     H
H       0.4822   0.4095   0.1298     H
H       0.4822   0.5905   0.6298     H
C       0.4857   0.1849   0.4668     C
C       0.4857   0.8151   0.9668     C
O       0.4924  0.47257   0.6089     O
O       0.4924  0.52743   0.1089     O
C       0.4946   0.3056   0.6218     C
C       0.4946   0.6944   0.1218     C
C       0.4991   0.3592   0.8827     C
C       0.4991   0.6408   0.3827     C
C       0.5009   0.3592   0.6173     C
C       0.5009   0.6408   0.1173     C
C       0.5054   0.3056   0.8782     C
C       0.5054   0.6944   0.3782     C
O       0.5076  0.47257   0.8911     O
O       0.5076  0.52743   0.3911     O
C       0.5143   0.1849   0.0332     C
C       0.5143   0.8151   0.5332     C
H       0.5178   0.4095   0.3702     H
H       0.5178   0.5905   0.8702     H
H       0.5212   0.1252   0.5224     H
H       0.5212   0.8748   0.0224     H
C       0.5232   0.1442   0.9936     C
C       0.5232   0.8558   0.4936     C
C       0.5299   0.3941   0.1204     C
C       0.5299   0.6059   0.6204     C
H       0.5332   0.3378    0.187     H
H       0.5332   0.6622    0.687     H
H       0.5348   0.2857   0.6432     H
H       0.5348   0.7143   0.1432     H
H       0.5459   0.3767   0.6348     H
H       0.5459   0.6233   0.1348     H
H       0.5497   0.4434   0.0496     H
H       0.5497   0.5566   0.5496     H
C       0.5587   0.3872   0.9127     C
C       0.5587   0.6128   0.4127     C
C       0.5595   0.4456   0.9178     C
C       0.5595   0.5544   0.4178     C
C       0.5599   0.3523   0.1541     C
C       0.5599   0.6477   0.6541     C
C       0.5661   0.1999   0.4442     C
C       0.5661   0.8001   0.9442     C
O       0.5677   0.2296   0.4008     O
O       0.5677   0.7704   0.9008     O
C       0.5685   0.2812    0.904     C
C       0.5685   0.7188    0.404     C
C         0.57   0.4138   0.0722     C
C         0.57   0.5862   0.5722     C
H       0.5716   0.2408   0.0821     H
H       0.5716   0.7592   0.5821     H
H        0.573    0.244   0.9014     H
H        0.573    0.756   0.4014     H
C        0.577   0.2123   0.0543     C
C        0.577   0.7877   0.5543     C
C       0.5982   0.1289   0.9753     C
C       0.5982   0.8711   0.4753     C
H       0.6038   0.0997   0.9486     H
H       0.6038   0.9003   0.4486     H
H         0.61   0.4704   0.5443     H
H         0.61   0.5296   0.0443     H
N        0.619  0.46279   0.9527     N
N        0.619  0.53721   0.4527     N
H       0.6193   0.0471   0.5184     H
H       0.6193   0.9529   0.0184     H
O       0.6217   0.1828   0.4739     O
O       0.6217   0.8172   0.9739     O
N       0.6222  0.36285   0.9393     N
N       0.6222  0.63715   0.4393     N
H       0.6252   0.0769   0.4154     H
H       0.6252   0.9231   0.9154     H
C        0.627   0.3103   0.9344     C
C        0.627   0.6897   0.4344     C
C       0.6278   0.4536   0.5087     C
C       0.6278   0.5464   0.0087     C
C       0.6304   0.3315   0.1393     C
C       0.6304   0.6685   0.6393     C
C       0.6343  0.48204   0.4539     C
C       0.6343  0.51796   0.9539     C
N       0.6364  0.39246   0.0565     N
N       0.6364  0.60754   0.5565     N
H        0.638   0.1286   0.1331     H
H        0.638   0.8714   0.6331     H
H       0.6385   0.3795   0.7343     H
H       0.6385   0.6205   0.2343     H
H       0.6421   0.3811   0.5478     H
H       0.6421   0.6189   0.0478     H
H       0.6443   0.1729   0.2282     H
H       0.6443   0.8271   0.7282     H
C       0.6476   0.4006   0.5108     C
C       0.6476   0.5994   0.0108     C
H       0.6482   0.4278   0.8249     H
H       0.6482   0.5722   0.3249     H
C       0.6495   0.1993   0.0359     C
C       0.6495   0.8007   0.5359     C
C       0.6509   0.0294   0.4907     C
C       0.6509   0.9706   0.9907     C
O        0.653   0.0147   0.1125     O
O        0.653   0.9853   0.6125     O
H       0.6531   0.3032    0.163     H
H       0.6531   0.6968    0.663     H
C       0.6537   0.0468   0.4299     C
C       0.6537   0.9532   0.9299     C
C       0.6608   0.1576   0.9974     C
C       0.6608   0.8424   0.4974     C
C       0.6609    0.457   0.4025     C
C       0.6609    0.543   0.9025     C
H       0.6655   0.4761    0.365     H
H       0.6655   0.5239    0.865     H
C       0.6669   0.3519   0.0906     C
C       0.6669   0.6481   0.5906     C
H       0.6718   0.2928   0.9523     H
H       0.6718   0.7072   0.4523     H
C        0.675  0.37621   0.4605     C
C        0.675  0.62379   0.9605     C
C       0.6806   0.4043   0.4058     C
C       0.6806   0.5957   0.9058     C
O       0.6821   0.2905   0.6702     O
O       0.6821   0.7095   0.1702     O
C       0.6842   0.1276     0.16     C
C       0.6842   0.8724     0.66     C
C       0.6848   0.3773   0.7609     C
C       0.6848   0.6227   0.2609     C
C        0.688   0.1538   0.2164     C
C        0.688   0.8462   0.7164     C
C       0.6893    0.405   0.8157     C
C       0.6893    0.595   0.3157     C
H       0.6929     0.22   0.0506     H
H       0.6929     0.78   0.5506     H
Co     0.69396  0.40982  0.98474    Co
Co     0.69396  0.59018  0.48474    Co
C       0.6941   0.0134   0.0104     C
C       0.6941   0.9866   0.5104     C
C       0.6943   0.0346   0.0737     C
C       0.6943   0.9654   0.5737     C
C       0.6959    0.319   0.4644     C
C       0.6959    0.681   0.9644     C
C       0.6978   0.0201   0.3916     C
C       0.6978   0.9799   0.8916     C
H       0.6982   0.3872   0.3703     H
H       0.6982   0.6128   0.8703     H
H        0.699   0.0306   0.3494     H
H        0.699   0.9694   0.8494     H
O       0.7007  0.29798   0.5173     O
O       0.7007  0.70202   0.0173     O
O       0.7046   0.1795    0.348     O
O       0.7046   0.8205    0.848     O
Zn     0.70533    0.217  0.42708    Zn
Zn     0.70533    0.783  0.92708    Zn
O       0.7059  0.29465    0.415     O
O       0.7059  0.70535    0.915     O
O       0.7223    0.203   0.8979     O
O       0.7223    0.797   0.3979     O
H       0.7282   0.4587   0.1137     H
H       0.7282   0.5413   0.6137     H
N       0.7371  0.14523   0.9795     N
N       0.7371  0.85477   0.4795     N
C       0.7387   0.3181   0.6832     C
C       0.7387   0.6819   0.1832     C
N       0.7405  0.03795   0.9736     N
N       0.7405  0.96205   0.4736     N
C       0.7412   0.0226   0.9136     C
C       0.7412   0.9774   0.4136     C
C       0.7413   0.3317   0.0714     C
C       0.7413   0.6683   0.5714     C
C        0.743   0.3474   0.7432     C
C        0.743   0.6526   0.2432     C
N       0.7441  0.07455   0.0837     N
N       0.7441  0.92545   0.5837     N
C       0.7479   0.0999   0.1431     C
C       0.7479   0.9001   0.6431     C
C       0.7521   0.4001   0.8569     C
C       0.7521   0.5999   0.3569     C
N       0.7559  0.42545   0.9163     N
N       0.7559  0.57455   0.4163     N
C        0.757   0.1526   0.2568     C
C        0.757   0.8474   0.7568     C
C       0.7587   0.1683   0.9286     C
C       0.7587   0.8317   0.4286     C
C       0.7588   0.4774   0.0864     C
C       0.7588   0.5226   0.5864     C
N       0.7595  0.46205   0.0264     N
N       0.7595  0.53795   0.5264     N
C       0.7613   0.1819   0.3168     C
C       0.7613   0.8181   0.8168     C
N       0.7629  0.35477   0.0205     N
N       0.7629  0.64523   0.5205     N
H       0.7718   0.0413   0.8863     H
H       0.7718   0.9587   0.3863     H
O       0.7777    0.297   0.1021     O
O       0.7777    0.703   0.6021     O
O       0.7941  0.20535    0.585     O
O       0.7941  0.79465    0.085     O
Zn     0.79467    0.283  0.57292    Zn
Zn     0.79467    0.717  0.07292    Zn
O       0.7954   0.3205    0.652     O
O       0.7954   0.6795    0.152     O
O       0.7993  0.20202   0.4827     O
O       0.7993  0.79798   0.9827     O
H        0.801   0.4694   0.6506     H
H        0.801   0.5306   0.1506     H
H       0.8018   0.1128   0.6297     H
H       0.8018   0.8872   0.1297     H
C       0.8022   0.4799   0.6084     C
C       0.8022   0.5201   0.1084     C
C       0.8041    0.181   0.5356     C
C       0.8041    0.819   0.0356     C
C       0.8057   0.4654   0.9263     C
C       0.8057   0.5346   0.4263     C
C       0.8059   0.4866   0.9896     C
C       0.8059   0.5134   0.4896     C
Co     0.80604  0.09018  0.01526    Co
Co     0.80604  0.90982  0.51526    Co
H       0.8071     0.28   0.9494     H
H       0.8071     0.72   0.4494     H
C       0.8107    0.095   0.1843     C
C       0.8107    0.905   0.6843     C
C        0.812   0.3462   0.7836     C
C        0.812   0.6538   0.2836     C
C       0.8152   0.1227   0.2391     C
C       0.8152   0.8773   0.7391     C
C       0.8158   0.3724     0.84     C
C       0.8158   0.6276     0.34     C
O       0.8179   0.2095   0.3298     O
O       0.8179   0.7905   0.8298     O
C       0.8194   0.0957   0.5942     C
C       0.8194   0.9043   0.0942     C
C        0.825  0.12379   0.5395     C
C        0.825  0.87621   0.0395     C
H       0.8282   0.2072   0.0477     H
H       0.8282   0.7928   0.5477     H
C       0.8331   0.1481   0.9094     C
C       0.8331   0.8519   0.4094     C
H       0.8345   0.0239    0.635     H
H       0.8345   0.9761    0.135     H
C       0.8391    0.043   0.5975     C
C       0.8391    0.957   0.0975     C
C       0.8392   0.3424   0.0026     C
C       0.8392   0.6576   0.5026     C
C       0.8463   0.4532   0.5701     C
C       0.8463   0.5468   0.0701     C
H       0.8469   0.1968    0.837     H
H       0.8469   0.8032    0.337     H
O        0.847   0.4853   0.8875     O
O        0.847   0.5147   0.3875     O
C       0.8491   0.4706   0.5093     C
C       0.8491   0.5294   0.0093     C
C       0.8505   0.3007   0.9641     C
C       0.8505   0.6993   0.4641     C
H       0.8518   0.0722   0.1751     H
H       0.8518   0.9278   0.6751     H
C       0.8524   0.0994   0.4892     C
C       0.8524   0.9006   0.9892     C
H       0.8557   0.3271   0.7718     H
H       0.8557   0.6729   0.2718     H
H       0.8579   0.1189   0.4522     H
H       0.8579   0.8811   0.9522     H
H       0.8615   0.1205   0.2657     H
H       0.8615   0.8795   0.7657     H
H        0.862   0.3714   0.8669     H
H        0.862   0.6286   0.3669     H
N       0.8636  0.10754   0.9435     N
N       0.8636  0.89246   0.4435     N
C       0.8657  0.01796   0.5461     C
C       0.8657  0.98204   0.0461     C
C       0.8696   0.1685   0.8607     C
C       0.8696   0.8315   0.3607     C
C       0.8722   0.0464   0.4913     C
C       0.8722   0.9536   0.9913     C
C        0.873   0.1897   0.0656     C
C        0.873   0.8103   0.5656     C
H       0.8748   0.4231   0.5846     H
H       0.8748   0.5769   0.0846     H
N       0.8778  0.13715   0.0607     N
N       0.8778  0.86285   0.5607     N
O       0.8783   0.3172   0.5261     O
O       0.8783   0.6828   0.0261     O
H       0.8807   0.4529   0.4816     H
H       0.8807   0.5471   0.9816     H
N        0.881  0.03721   0.0473     N
N        0.881  0.96279   0.5473     N
H         0.89   0.0296   0.4557     H
H         0.89   0.9704   0.9557     H
H       0.8962   0.4003   0.0514     H
H       0.8962   0.5997   0.5514     H
C       0.9018   0.3711   0.0247     C
C       0.9018   0.6289   0.5247     C
C        0.923   0.2877   0.9457     C
C        0.923   0.7123   0.4457     C
H        0.927    0.256   0.0986     H
H        0.927    0.744   0.5986     H
H       0.9284   0.2592   0.9179     H
H       0.9284   0.7408   0.4179     H
C         0.93   0.0862   0.9278     C
C         0.93   0.9138   0.4278     C
C       0.9315   0.2188    0.096     C
C       0.9315   0.7812    0.596     C
O       0.9323   0.2704   0.5992     O
O       0.9323   0.7296   0.0992     O
C       0.9339   0.3001   0.5558     C
C       0.9339   0.6999   0.0558     C
C       0.9401   0.1477   0.8459     C
C       0.9401   0.8523   0.3459     C
C       0.9405   0.0544   0.0822     C
C       0.9405   0.9456   0.5822     C
C       0.9413   0.1128   0.0873     C
C       0.9413   0.8872   0.5873     C
H       0.9503   0.0566   0.9504     H
H       0.9503   0.9434   0.4504     H
H       0.9541   0.1233   0.3652     H
H       0.9541   0.8767   0.8652     H
H       0.9652   0.2143   0.3568     H
H       0.9652   0.7857   0.8568     H
H       0.9668   0.1622    0.813     H
H       0.9668   0.8378    0.313     H
C       0.9701   0.1059   0.8796     C
C       0.9701   0.8941   0.3796     C
C       0.9768   0.3558   0.0064     C
C       0.9768   0.6442   0.5064     C
H       0.9788   0.3748   0.4776     H
H       0.9788   0.6252   0.9776     H
H       0.9822   0.0905   0.6298     H
H       0.9822   0.9095   0.1298     H
C       0.9857   0.3151   0.9668     C
C       0.9857   0.6849   0.4668     C
O       0.9924  0.02743   0.1089     O
O       0.9924  0.97257   0.6089     O
C       0.9946   0.1944   0.1218     C
C       0.9946   0.8056   0.6218     C
C       0.9991   0.1408   0.3827     C
C       0.9991   0.8592   0.8827     C
