data_I
_chemical_name_common  '/home/zhangsd/repos/MofS-CGCNN/ML/data/SSD/clean_cifs/KUVJIW_clean'
_cell_length_a  9.75610
_cell_length_b 10.28520
_cell_length_c 11.04650
_cell_angle_alpha 95.12700
_cell_angle_beta  95.10900
_cell_angle_gamma 105.97400
_space_group_name_H-M_alt      'P 1'


loop_
_space_group_symop_operation_xyz
  'x, y, z' 

loop_
_atom_site_label
_atom_site_fract_x
_atom_site_fract_y
_atom_site_fract_z
_atom_site_type_symbol
O        0.011   0.0491   0.2004     O
C       0.0198    0.743   0.5819     C
O       0.0338   0.1647    0.007     O
P       0.0542   0.1834   0.1452     P
C       0.0593   0.7136   0.8089     C
C       0.0846   0.6888   0.6862     C
O       0.1082   0.8114   0.5202     O
O       0.1128   0.2735   0.4365     O
H       0.1143   0.6766   0.9817     H
C       0.1278   0.6586   0.9003     C
U        0.135  0.17206  0.82735     U
C       0.1752   0.6148   0.6585     C
H       0.1927   0.6021   0.5775     H
O       0.2069   0.2656   0.1964     O
C       0.2168   0.5763   0.8699     C
C       0.2464   0.5541   0.7497     C
O       0.2639     0.39   0.9583     O
C       0.2786   0.5132   0.9685     C
O       0.3056   0.3132   0.7265     O
U      0.33279  0.38788  0.36936     U
H       0.3474   0.5535   0.1228     H
O       0.3533    0.594   0.0619     O
P       0.3673   0.4587   0.7096     P
O       0.3975   0.4786   0.5776     O
O       0.4884   0.4715   0.2121     O
O       0.5116   0.5285   0.7879     O
O       0.6025   0.5214   0.4224     O
P       0.6327   0.5413   0.2904     P
O       0.6467    0.406   0.9381     O
H       0.6526   0.4465   0.8772     H
U      0.66721  0.61212  0.63064     U
O       0.6944   0.6868   0.2735     O
C       0.7214   0.4868   0.0315     C
O       0.7361     0.61   0.0417     O
C       0.7536   0.4459   0.2503     C
C       0.7832   0.4237   0.1301     C
O       0.7931   0.7344   0.8036     O
H       0.8073   0.3979   0.4225     H
C       0.8248   0.3852   0.3415     C
U        0.865  0.82794  0.17265     U
C       0.8722   0.3414   0.0997     C
H       0.8857   0.3234   0.0183     H
O       0.8872   0.7265   0.5635     O
O       0.8918   0.1886   0.4798     O
C       0.9154   0.3112   0.3138     C
C       0.9407   0.2864   0.1911     C
P       0.9458   0.8166   0.8548     P
O       0.9662   0.8353    0.993     O
C       0.9802    0.257   0.4181     C
O        0.989   0.9509   0.7996     O
