data_I
_chemical_name_common  '/home/zhangsd/repos/MofS-CGCNN/ML/data/SSD/clean_cifs/LAVTIN_clean'
_cell_length_a 10.27000
_cell_length_b 10.27000
_cell_length_c 14.46000
_cell_angle_alpha 90.00000
_cell_angle_beta  90.00000
_cell_angle_gamma 90.00000
_space_group_name_H-M_alt      'P 1'


loop_
_space_group_symop_operation_xyz
  'x, y, z' 

loop_
_atom_site_label
_atom_site_fract_x
_atom_site_fract_y
_atom_site_fract_z
_atom_site_type_symbol
C       0.0374      0.5     0.25     C
H       0.0592   0.4249   0.3784     H
H       0.0592   0.5751   0.1216     H
C       0.1046   0.4554   0.3272     C
C       0.1046   0.5446   0.1728     C
C       0.1103      0.5     0.75     C
O       0.1639   0.4277    0.692     O
O       0.1639   0.5723    0.808     O
C         0.24   0.4568   0.3273     C
C         0.24   0.5432   0.1727     C
O       0.2583   0.4041   0.4867     O
O       0.2583   0.5959   0.0133     O
C       0.3087      0.5     0.25     C
C       0.3166   0.4122   0.4107     C
C       0.3166   0.5878   0.0893     C
Er     0.35133  0.35133    0.625    Er
Er     0.35133  0.64867    0.875    Er
O       0.3886   0.4331   0.8499     O
O       0.3886   0.5669   0.6501     O
H       0.3992      0.5     0.25     H
O       0.4041   0.2583   0.7633     O
O       0.4041   0.7417   0.7367     O
C       0.4122   0.3166   0.8393     C
C       0.4122   0.6834   0.6607     C
H       0.4249   0.0592   0.8716     H
H       0.4249   0.9408   0.6284     H
O       0.4277   0.1639    0.558     O
O       0.4277   0.8361    0.942     O
O       0.4331   0.3886   0.4001     O
O       0.4331   0.6114   0.0999     O
C       0.4554   0.1046   0.9228     C
C       0.4554   0.8954   0.5772     C
C       0.4568     0.24   0.9227     C
C       0.4568     0.76   0.5773     C
C          0.5   0.0374      1.0     C
C          0.5   0.1103      0.5     C
C          0.5   0.3087      0.0     C
H          0.5   0.3992      1.0     H
H          0.5   0.6008      0.5     H
C          0.5   0.6913      0.5     C
C          0.5   0.8897      1.0     C
C          0.5   0.9626      0.5     C
C       0.5432     0.24   0.0773     C
C       0.5432     0.76   0.4227     C
C       0.5446   0.1046   0.0772     C
C       0.5446   0.8954   0.4228     C
O       0.5669   0.3886   0.5999     O
O       0.5669   0.6114   0.9001     O
O       0.5723   0.1639    0.442     O
O       0.5723   0.8361    0.058     O
H       0.5751   0.0592   0.1284     H
H       0.5751   0.9408   0.3716     H
C       0.5878   0.3166   0.1607     C
C       0.5878   0.6834   0.3393     C
O       0.5959   0.2583   0.2367     O
O       0.5959   0.7417   0.2633     O
H       0.6008      0.5     0.75     H
O       0.6114   0.4331   0.1501     O
O       0.6114   0.5669   0.3499     O
Er     0.64867  0.35133    0.375    Er
Er     0.64867  0.64867    0.125    Er
C       0.6834   0.4122   0.5893     C
C       0.6834   0.5878   0.9107     C
C       0.6913      0.5     0.75     C
O       0.7417   0.4041   0.5133     O
O       0.7417   0.5959   0.9867     O
C         0.76   0.4568   0.6727     C
C         0.76   0.5432   0.8273     C
O       0.8361   0.4277    0.308     O
O       0.8361   0.5723    0.192     O
C       0.8897      0.5     0.25     C
C       0.8954   0.4554   0.6728     C
C       0.8954   0.5446   0.8272     C
H       0.9408   0.4249   0.6216     H
H       0.9408   0.5751   0.8784     H
C       0.9626      0.5     0.75     C
