data_I
_chemical_name_common  '/home/zhangsd/repos/MofS-CGCNN/ML/data/SSD/clean_cifs/LAZXOB_clean'
_cell_length_a 17.55750
_cell_length_b 17.55750
_cell_length_c 17.55750
_cell_angle_alpha 108.33900
_cell_angle_beta  110.04000
_cell_angle_gamma 110.04000
_space_group_name_H-M_alt      'P 1'


loop_
_space_group_symop_operation_xyz
  'x, y, z' 

loop_
_atom_site_label
_atom_site_fract_x
_atom_site_fract_y
_atom_site_fract_z
_atom_site_type_symbol
Cu     0.00248  0.57684  0.04716    Cu
Cu     0.00248  0.95532  0.42564    Cu
O       0.0125   0.4989   0.3768     O
O       0.0125   0.6357   0.5136     O
H       0.0632   0.5277   0.2641     H
H       0.0632   0.7991   0.5355     H
Cu       0.066      0.5    0.566    Cu
C       0.0877   0.5018   0.4141     C
C       0.0877   0.6736   0.5859     C
O       0.0916   0.5762   0.1468     O
O       0.0916   0.9448   0.5154     O
O       0.0933   0.0195   0.6434     O
O       0.0933   0.4499   0.0738     O
O       0.0949   0.1468   0.5823     O
O       0.0949   0.5126   0.9481     O
O        0.106    0.079   0.4644     O
O        0.106   0.6416    0.027     O
C        0.112   0.5086   0.1412     C
C        0.112   0.9708   0.6034     C
C       0.1124   0.5142   0.2818     C
C       0.1124   0.8306   0.5982     C
O       0.1221   0.4989   0.4864     O
O       0.1221   0.6357   0.6232     O
C       0.1343    0.149   0.5419     C
C       0.1343   0.5924   0.9853     C
C       0.1411   0.5016   0.3605     C
C       0.1411   0.7806   0.6395     C
C        0.142    0.284    0.426     C
C        0.142    0.716    0.858     C
C       0.1544   0.5069   0.2341     C
C       0.1544   0.9203   0.6475     C
H       0.1559    0.163   0.3993     H
H       0.1559   0.7566   0.9929     H
C       0.1977   0.2308   0.4285     C
C       0.1977   0.7692   0.9669     C
C       0.2244   0.2342     0.58     C
C       0.2244   0.6444   0.9902     C
C       0.2324   0.5142   0.4018     C
C       0.2324   0.8306   0.7182     C
H       0.2363   0.2434   0.3993     H
H       0.2363    0.837   0.9929     H
C       0.2432   0.5107   0.2675     C
C       0.2432   0.9757   0.7325     C
H       0.2496   0.2534   0.7078     H
H       0.2496   0.5418   0.9962     H
C       0.2539   0.2735   0.5274     C
C       0.2539   0.7265   0.9804     C
H       0.2573   0.1116   0.7745     H
H       0.2573   0.4828   0.1457     H
H       0.2636   0.5277   0.4645     H
H       0.2636   0.7991   0.7359     H
C       0.2722   0.2794   0.6748     C
C       0.2722   0.5974   0.9928     C
C       0.2728   0.5069   0.3525     C
C       0.2728   0.9203   0.7659     C
C        0.301   0.0875   0.7865     C
C        0.301   0.5145   0.2135     C
H       0.3371   0.1116   0.8543     H
H       0.3371   0.4828   0.2255     H
C       0.3458   0.3556     0.58     C
C       0.3458   0.7658   0.9902     C
C       0.3568   0.3663   0.7231     C
C       0.3568   0.6337   0.9905     C
C        0.366    0.118    0.752     C
C        0.366    0.614    0.248     C
C       0.3674   0.5086   0.3966     C
C       0.3674   0.9708   0.8588     C
O       0.3735   0.3782   0.8677     O
O       0.3735   0.5058   0.9953     O
O       0.3761   0.0195   0.9262     O
O       0.3761   0.4499   0.3566     O
O       0.3854   0.3584   0.4644     O
O       0.3854    0.921    0.027     O
C       0.3929   0.4076   0.5419     C
C       0.3929    0.851   0.9853     C
C       0.3954   0.4026   0.6748     C
C       0.3954   0.7206   0.9928     C
C       0.4129   0.4127   0.8256     C
C       0.4129   0.5873   0.0002     C
O       0.4294   0.5762   0.4846     O
O       0.4294   0.9448   0.8532     O
Cu      0.4344   0.4344      1.0    Cu
O       0.4355   0.4874   0.5823     O
O       0.4355   0.8532   0.9481     O
H       0.4544   0.4582   0.7078     H
H       0.4544   0.7466   0.9962     H
Cu     0.47032  0.04468  0.04716    Cu
Cu     0.47032  0.42316  0.42564    Cu
O       0.4895   0.4942   0.8677     O
O       0.4895   0.6218   0.9953     O
O       0.5105   0.3782   0.0047     O
O       0.5105   0.5058   0.1323     O
Cu     0.52968  0.57684  0.57436    Cu
Cu     0.52968  0.95532  0.95284    Cu
H       0.5456   0.2534   0.0038     H
H       0.5456   0.5418   0.2922     H
O       0.5645   0.1468   0.0519     O
O       0.5645   0.5126   0.4177     O
Cu      0.5656   0.5656      0.0    Cu
O       0.5706   0.0552   0.1468     O
O       0.5706   0.4238   0.5154     O
C       0.5871   0.4127   0.9998     C
C       0.5871   0.5873   0.1744     C
C       0.6046   0.2794   0.0072     C
C       0.6046   0.5974   0.3252     C
C       0.6071    0.149   0.0147     C
C       0.6071   0.5924   0.4581     C
O       0.6146    0.079    0.973     O
O       0.6146   0.6416   0.5356     O
O       0.6239   0.5501   0.6434     O
O       0.6239   0.9805   0.0738     O
O       0.6265   0.4942   0.0047     O
O       0.6265   0.6218   0.1323     O
C       0.6326   0.0292   0.1412     C
C       0.6326   0.4914   0.6034     C
C        0.634    0.386    0.752     C
C        0.634    0.882    0.248     C
C       0.6432   0.3663   0.0095     C
C       0.6432   0.6337   0.2769     C
C       0.6542   0.2342   0.0098     C
C       0.6542   0.6444     0.42     C
H       0.6629   0.5172   0.7745     H
H       0.6629   0.8884   0.1457     H
C        0.699   0.4855   0.7865     C
C        0.699   0.9125   0.2135     C
C       0.7272   0.0797   0.2341     C
C       0.7272   0.4931   0.6475     C
C       0.7278   0.4026   0.0072     C
C       0.7278   0.7206   0.3252     C
H       0.7364   0.2009   0.2641     H
H       0.7364   0.4723   0.5355     H
H       0.7427   0.5172   0.8543     H
H       0.7427   0.8884   0.2255     H
C       0.7461   0.2735   0.0196     C
C       0.7461   0.7265   0.4726     C
H       0.7504   0.4582   0.0038     H
H       0.7504   0.7466   0.2922     H
C       0.7568   0.0243   0.2675     C
C       0.7568   0.4893   0.7325     C
H       0.7637    0.163   0.0071     H
H       0.7637   0.7566   0.6007     H
C       0.7676   0.1694   0.2818     C
C       0.7676   0.4858   0.5982     C
C       0.7756   0.3556   0.0098     C
C       0.7756   0.7658     0.42     C
C       0.8023   0.2308   0.0331     C
C       0.8023   0.7692   0.5715     C
H       0.8441   0.2434   0.0071     H
H       0.8441    0.837   0.6007     H
C       0.8456   0.0797   0.3525     C
C       0.8456   0.4931   0.7659     C
C        0.858    0.284    0.142     C
C        0.858    0.716    0.574     C
C       0.8589   0.2194   0.3605     C
C       0.8589   0.4984   0.6395     C
C       0.8657   0.4076   0.0147     C
C       0.8657    0.851   0.4581     C
O       0.8779   0.3643   0.3768     O
O       0.8779   0.5011   0.5136     O
C       0.8876   0.1694   0.4018     C
C       0.8876   0.4858   0.7182     C
C        0.888   0.0292   0.3966     C
C        0.888   0.4914   0.8588     C
O        0.894   0.3584    0.973     O
O        0.894    0.921   0.5356     O
O       0.9051   0.4874   0.0519     O
O       0.9051   0.8532   0.4177     O
O       0.9067   0.5501   0.9262     O
O       0.9067   0.9805   0.3566     O
O       0.9084   0.0552   0.4846     O
O       0.9084   0.4238   0.8532     O
C       0.9123   0.3264   0.4141     C
C       0.9123   0.4982   0.5859     C
Cu       0.934      0.5    0.434    Cu
H       0.9368   0.2009   0.4645     H
H       0.9368   0.4723   0.7359     H
O       0.9875   0.3643   0.4864     O
O       0.9875   0.5011   0.6232     O
Cu     0.99752  0.04468  0.57436    Cu
Cu     0.99752  0.42316  0.95284    Cu
