data_I
_chemical_name_common  '/home/zhangsd/repos/MofS-CGCNN/ML/data/SSD/clean_cifs/LECGIL_clean'
_cell_length_a 15.32500
_cell_length_b 16.47200
_cell_length_c 17.07200
_cell_angle_alpha 70.14400
_cell_angle_beta  64.56700
_cell_angle_gamma 67.51600
_space_group_name_H-M_alt      'P 1'


loop_
_space_group_symop_operation_xyz
  'x, y, z' 

loop_
_atom_site_label
_atom_site_fract_x
_atom_site_fract_y
_atom_site_fract_z
_atom_site_type_symbol
Cu         0.0      0.0      0.0    Cu
Cu         0.0      0.0      0.5    Cu
H       0.0024   0.9264   0.6512     H
N       0.0045   0.1068   0.5113     N
N       0.0153   0.0105   0.8767     N
C        0.026   0.7789    0.435     C
N       0.0274   0.9547   0.2386     N
C       0.0422   0.2295   0.4814     C
N        0.048   0.8577   0.4167     N
H       0.0525    0.815   0.9482     H
H       0.0531    0.738   0.3968     H
O       0.0562   0.0379   0.3692     O
N       0.0614   0.1595   0.4493     N
N       0.0618   0.9618   0.1517     N
C       0.0713   0.0223   0.7357     C
H       0.0715    0.278   0.4509     H
C       0.0979    0.812    0.974     C
C       0.0985   0.0008   0.8079     C
N       0.1003   0.8787    0.999     N
H       0.1162   0.0209   0.6765     H
Cu     0.12705  0.93023  0.31004    Cu
Cu     0.14128  0.12045   0.3333    Cu
H       0.1651   0.9823   0.8084     H
C       0.1741   0.7366   0.9924     C
N       0.1743   0.8497     0.03     N
H       0.1893   0.6779   0.9839     H
N       0.1985   0.0119   0.2066     N
H       0.2022   0.5896    0.249     H
N       0.2077   0.0838   0.2156     N
Cu     0.21084   0.9179  0.08345    Cu
N       0.2217   0.7645   0.0249     N
N       0.2316   0.8205    0.269     N
N       0.2334   0.0074   0.1239     N
H       0.2379   0.4243   0.2774     H
N       0.2422   0.1792   0.3119     N
C       0.2496   0.1296   0.1359     C
N       0.2526   0.8098   0.1891     N
C       0.2551   0.5514   0.2113     C
H       0.2645   0.1848   0.1221     H
C       0.2667   0.0806   0.0778     C
C       0.2734   0.4609   0.2266     C
H       0.2795   0.1362   0.4236     H
N       0.2803   0.2289   0.2323     N
C       0.2831   0.7428   0.3107     C
H       0.2834   0.7307   0.3691     H
C       0.2903     0.17   0.3644     C
H       0.2971   0.0957   0.0152     H
N       0.3129   0.7314   0.1779     N
N       0.3224   0.5779   0.1357     N
C       0.3334   0.6865   0.2542     C
N       0.3473   0.2529   0.2361     N
N       0.3502   0.4337   0.1571     N
Cu     0.35586  0.69296  0.06629    Cu
N       0.3562    0.885   0.9999     N
C       0.3583   0.2189   0.3165     C
H       0.3751    0.627   0.2652     H
N       0.3798    0.505   0.1013     N
H       0.4015   0.9986   0.9261     H
H       0.4036   0.2272   0.3355     H
N       0.4056   0.8011   0.9901     N
C       0.4156   0.9353   0.9357     C
H       0.4158   0.6423   0.9301     H
Cu     0.43081  0.31558  0.12237    Cu
H       0.4493   0.0999   0.1617     H
O       0.4571   0.6321   0.9665     O
N         0.49   0.7964    0.924     N
C       0.4972   0.8819   0.8882     C
Cu         0.5      0.5      0.0    Cu
C       0.5028   0.1181   0.1118     C
N         0.51   0.2036    0.076     N
O       0.5429   0.3679   0.0335     O
H       0.5507   0.9001   0.8383     H
Cu     0.56919  0.68442  0.87763    Cu
H       0.5842   0.3577   0.0699     H
C       0.5844   0.0647   0.0643     C
N       0.5944   0.1989   0.0099     N
H       0.5964   0.7728   0.6645     H
H       0.5985   0.0014   0.0739     H
N       0.6202    0.495   0.8987     N
H       0.6249    0.373   0.7348     H
C       0.6417   0.7811   0.6835     C
N       0.6438    0.115   0.0001     N
Cu     0.64414  0.30704  0.93371    Cu
N       0.6498   0.5663   0.8429     N
N       0.6527   0.7471   0.7639     N
C       0.6666   0.3135   0.7458     C
N       0.6776   0.4221   0.8643     N
N       0.6871   0.2686   0.8221     N
H       0.7029   0.9043   0.9848     H
C       0.7097     0.83   0.6356     C
H       0.7166   0.2693   0.6309     H
C       0.7169   0.2572   0.6893     C
N       0.7197   0.7711   0.7677     N
H       0.7205   0.8638   0.5764     H
C       0.7266   0.5391   0.7734     C
C       0.7333   0.9194   0.9222     C
H       0.7355   0.8152   0.8779     H
C       0.7449   0.4486   0.7887     C
N       0.7474   0.1902   0.8109     N
C       0.7504   0.8704   0.8641     C
N       0.7578   0.8208   0.6881     N
H       0.7621   0.5757   0.7226     H
N       0.7666   0.9926   0.8761     N
N       0.7684   0.1795    0.731     N
N       0.7783   0.2355   0.9751     N
Cu     0.78916   0.0821  0.91655    Cu
N       0.7923   0.9162   0.7844     N
H       0.7978   0.4104    0.751     H
N       0.8015   0.9881   0.7934     N
H       0.8107   0.3221   0.0161     H
N       0.8257   0.1503     0.97     N
C       0.8259   0.2634   0.0076     C
H       0.8349   0.0177   0.1916     H
Cu     0.85872  0.87955   0.6667    Cu
Cu     0.87295  0.06977  0.68996    Cu
H       0.8838   0.9791   0.3235     H
N       0.8997   0.1213    0.001     N
C       0.9015   0.9992   0.1921     C
C       0.9021    0.188    0.026     C
H       0.9285    0.722   0.5491     H
C       0.9287   0.9777   0.2643     C
N       0.9382   0.0382   0.8483     N
N       0.9386   0.8405   0.5507     N
O       0.9438   0.9621   0.6308     O
H       0.9469    0.262   0.6032     H
H       0.9475    0.185   0.0518     H
N        0.952   0.1423   0.5833     N
C       0.9578   0.7705   0.5186     C
N       0.9726   0.0453   0.7614     N
C        0.974   0.2211    0.565     C
N       0.9847   0.9895   0.1233     N
N       0.9955   0.8932   0.4887     N
H       0.9976   0.0736   0.3488     H
