data_I
_chemical_name_common  '/home/zhangsd/repos/MofS-CGCNN/ML/data/SSD/clean_cifs/LEDPIU_clean'
_cell_length_a 10.18500
_cell_length_b 13.89670
_cell_length_c 22.79000
_cell_angle_alpha 97.13450
_cell_angle_beta  90.00000
_cell_angle_gamma 111.49700
_space_group_name_H-M_alt      'P 1'


loop_
_space_group_symop_operation_xyz
  'x, y, z' 

loop_
_atom_site_label
_atom_site_fract_x
_atom_site_fract_y
_atom_site_fract_z
_atom_site_type_symbol
N      0.00412  0.72304  0.63117     N
C       0.0056   0.3462   0.4168     C
H       0.0166   0.3952   0.6703     H
H       0.0192   0.5956   0.5831     H
C       0.0303   0.3232   0.0692     C
C       0.0334    0.709   0.6922     C
C       0.0388    0.203   0.3852     C
H       0.0426   0.1448   0.3614     H
H        0.045   0.4372   0.7816     H
N      0.05489  0.32118  0.46383     N
C       0.0757   0.2316   0.4445     C
H       0.0787   0.3498    0.238     H
O      0.08237  0.61714  0.43682     O
O      0.08384  0.26488  0.08617     O
H        0.085   0.1948    0.968     H
H       0.0877   0.6644   0.6914     H
H       0.0895   0.7762   0.7142     H
O      0.09397  0.39734  0.03913     O
C       0.1019   0.3388   0.2773     C
H       0.1022   0.1448   0.8614     H
C       0.1036   0.4498    0.671     C
H       0.1098   0.1948    0.468     H
Cu     0.11154   0.4082  0.54121    Cu
C       0.1191    0.692   0.9165     C
H       0.1279   0.7824   0.8519     H
H       0.1399   0.2896   0.7726     H
C        0.142   0.4854   0.7814     C
H       0.1496   0.5506   0.8048     H
H       0.1497   0.2896   0.2726     H
C       0.1559   0.2316   0.9445     C
H       0.1569   0.4916   0.3109     H
H       0.1586   0.6036   0.9731     H
C       0.1642    0.203   0.8852     C
N      0.16873  0.48286  0.62309     N
N      0.17727  0.50374  0.72025     N
C      0.17976  0.75192   0.8713     C
O      0.18104  0.26488  0.58617     O
C        0.191    0.609   0.4591     C
O      0.19552  0.56524  0.50261     O
C      0.19826  0.64492  0.94373     C
C       0.2022    0.441   0.3091     C
H       0.2123   0.4312   0.8495     H
H       0.2189   0.4312   0.3495     H
C       0.2369   0.3388   0.7773     C
C       0.2388    0.441   0.8091     C
H        0.243   0.6022   0.1205     H
H       0.2435    0.727   0.3722     H
H       0.2451   0.8442   0.4886     H
H       0.2549    0.625   0.2287     H
H       0.2609   0.9596    0.511     H
N      0.26629  0.32118  0.96383     N
H       0.2711   0.3498    0.738     H
C        0.272   0.5628    0.144     C
H       0.2728   0.9914   0.8798     H
C       0.2785   0.5762   0.2038     C
N      0.28108  0.27696  0.86883     N
H       0.2814   0.0086   0.6202     H
C       0.2908   0.5628    0.644     C
C       0.2929   0.3232   0.5692     C
Cu     0.29666   0.4082  0.04121    Cu
C       0.2977   0.5762   0.7038     C
H       0.3013   0.0404    0.989     H
O      0.30162  0.87064  0.78419     O
O      0.30337  0.39734  0.53913     O
C       0.3056    0.909   0.5116     C
C        0.312   0.9532   0.6206     C
H       0.3133   0.2238   0.7858     H
N      0.31413  0.48286  0.12309     N
C      0.31617  0.76594   0.8553     C
N      0.32308  0.89156  0.57252     N
C       0.3244    0.291   0.8078     C
C      0.32627  0.65834  0.42823     C
C      0.32627  0.71874  0.38321     C
N      0.32647  0.50374  0.22025     N
C      0.33207  0.65834  0.92823     C
H       0.3347   0.4916   0.8109     H
C       0.3406   0.3462   0.9168     C
C       0.3434   0.4854   0.2814     C
H       0.3455   0.2176   0.6481     H
C       0.3462   0.4498    0.171     C
O       0.3508   0.8564   0.2996     O
N      0.35112  0.92464  0.66905     N
C       0.3588   0.0468   0.8794     C
H       0.3592   0.6022   0.6205     H
Cu     0.36958      0.0     0.75    Cu
O      0.36972  0.56524  0.00261     O
C       0.3699   0.8192   0.5914     C
H       0.3701    0.625   0.7287     H
H       0.3784   0.7656    0.068     H
H       0.3786   0.3952   0.1703     H
C       0.3799   0.8346   0.8085     C
C       0.3853   0.8414   0.6507     C
H       0.3872   0.7656    0.568     H
H       0.3891   0.8044   0.1756     H
H       0.3922   0.4372   0.2816     H
C      0.39247  0.71874  0.88321     C
C       0.3966    0.091   0.9884     C
H       0.4009   0.1558   0.0114     H
H        0.401   0.5506   0.3048     H
H       0.4075   0.8952   0.9851     H
H       0.4153   0.8044   0.6756     H
C        0.418    0.609   0.9591     C
H       0.4233   0.3356   0.8086     H
H       0.4236   0.4044   0.9169     H
N      0.42648  0.07536  0.83095     N
C       0.4271    0.308   0.5835     C
C      0.42784  0.24808   0.6287     C
O      0.43098  0.12936  0.71581     O
H       0.4313   0.9548   0.4439     H
N      0.43152  0.10844  0.92748     N
H        0.445   0.6036   0.4731     H
C       0.4462   0.9478    0.485     C
C      0.44666  0.64492  0.44373     C
C       0.4493   0.8192   0.0914     C
C      0.44977  0.76594   0.3553     C
C       0.4547   0.8346   0.3085     C
C       0.4561   0.8414   0.1507     C
O      0.46523  0.38286  0.06318     O
H       0.4765   0.0452   0.0561     H
H       0.4835    0.727   0.8722     H
H       0.4877   0.8952   0.4851     H
O       0.4944   0.1436   0.2004     O
C       0.4984   0.0522    0.015     C
C       0.5016   0.9478    0.985     C
O       0.5056   0.8564   0.7996     O
H       0.5123   0.1048   0.5149     H
H       0.5165    0.273   0.1278     H
H       0.5235   0.9548   0.9439     H
O      0.53477  0.61714  0.93682     O
C       0.5439   0.1586   0.8493     C
C       0.5453   0.1654   0.6915     C
C      0.55023  0.23406   0.6447     C
C       0.5507   0.1808   0.9086     C
C      0.55334  0.35508  0.55627     C
C       0.5538   0.0522    0.515     C
H        0.555   0.3964   0.5269     H
N      0.56848  0.89156  0.07252     N
H       0.5687   0.0452   0.5561     H
O      0.56902  0.87064  0.28419     O
C      0.57216  0.75192   0.3713     C
C       0.5729    0.692   0.4165     C
N      0.57352  0.92464  0.16905     N
H       0.5764   0.5956   0.0831     H
H       0.5767   0.6644   0.1914     H
C        0.582    0.391   0.0409     C
H       0.5847   0.1956   0.3244     H
H       0.5925   0.1048   0.0149     H
H        0.599   0.4494   0.6952     H
H       0.5991   0.8442   0.9886     H
C       0.6034    0.909   0.0116     C
C      0.60753  0.28126  0.11679     C
H       0.6078   0.5628   0.7184     H
H       0.6109   0.1956   0.8244     H
H       0.6128   0.2344    0.432     H
C       0.6147   0.1586   0.3493     C
C       0.6201   0.1654   0.1915     C
H       0.6214   0.6048   0.8297     H
H       0.6216   0.2344    0.932     H
H       0.6299    0.375   0.2713     H
C       0.6301   0.1808   0.4086     C
O      0.63028  0.43476  0.99739     O
Cu     0.63042      0.0     0.25    Cu
H       0.6408   0.3978   0.3795     H
C       0.6412   0.9532   0.1206     C
N      0.64888  0.07536  0.33095     N
O       0.6492   0.1436   0.7004     O
C       0.6538   0.5502    0.829     C
H       0.6545   0.7824   0.3519     H
C       0.6566   0.5146   0.7186     C
C       0.6594   0.6538   0.0832     C
H       0.6653   0.5084   0.1891     H
C      0.66793  0.34166  0.07177     C
N      0.67353  0.49626  0.77975     N
C      0.67373  0.28126  0.61679     C
C      0.67373  0.34166  0.57177     C
C       0.6756    0.709   0.1922     C
N      0.67692  0.10844  0.42748     N
C      0.68383  0.23406   0.1447     C
N      0.68587  0.51714  0.87691     N
H       0.6867   0.7762   0.2142     H
C        0.688   0.0468   0.3794     C
C       0.6944    0.091   0.4884     C
O      0.69663  0.60266  0.46087     O
O      0.69838  0.12936  0.21581     O
H       0.6987   0.9596    0.011     H
C       0.7023   0.4238   0.2962     C
Cu     0.70334   0.5918  0.95879    Cu
C       0.7071   0.6768   0.4308     C
C       0.7092   0.4372    0.356     C
H       0.7186   0.9914   0.3798     H
N      0.71892  0.72304  0.13117     N
C       0.7215   0.4238   0.7962     C
H       0.7272   0.0086   0.1202     H
C        0.728   0.4372    0.856     C
H       0.7289   0.6502    0.262     H
N      0.73371  0.67882  0.03617     N
H       0.7391   0.0404    0.489     H
H       0.7451    0.375   0.7713     H
H       0.7549   0.1558   0.5114     H
H       0.7565    0.273   0.6278     H
H        0.757   0.3978   0.8795     H
C       0.7612    0.559   0.1909     C
C       0.7631   0.6612   0.2227     C
H       0.7811   0.5688   0.6505     H
H       0.7877   0.5688   0.1505     H
C       0.7978    0.559   0.6909     C
C      0.80174  0.35508  0.05627     C
O      0.80448  0.43476  0.49739     O
C        0.809    0.391   0.5409     C
O      0.81896  0.73512  0.41383     O
C      0.82024  0.24808   0.1287     C
N      0.82273  0.49626  0.27975     N
N      0.83127  0.51714  0.37691     N
C       0.8358    0.797   0.1148     C
H       0.8414   0.3964   0.0269     H
H       0.8431   0.5084   0.6891     H
C       0.8441   0.7684   0.0555     C
H       0.8503   0.7104   0.7274     H
H       0.8504   0.4494   0.1952     H
C        0.858   0.5146   0.2186     C
H       0.8601   0.7104   0.2274     H
H       0.8721   0.2176   0.1481     H
C       0.8809    0.308   0.0835     C
Cu     0.88846   0.5918  0.45879    Cu
H       0.8902   0.8052    0.532     H
C       0.8964   0.5502    0.329     C
H       0.8978   0.8552   0.1386     H
C       0.8981   0.6612   0.7227     C
O      0.90603  0.60266  0.96087     O
H       0.9105   0.2238   0.2858     H
H       0.9123   0.3356   0.3086     H
H        0.915   0.8052    0.032     H
O      0.91616  0.73512  0.91383     O
O      0.91763  0.38286  0.56318     O
H       0.9213   0.6502    0.762     H
C       0.9243   0.7684   0.5555     C
N      0.94511  0.67882  0.53617     N
H        0.955   0.5628   0.2184     H
H       0.9574   0.8552   0.6386     H
C       0.9612    0.797   0.6148     C
C       0.9666    0.291   0.3078     C
C       0.9697   0.6768   0.9308     C
H       0.9808   0.4044   0.4169     H
H       0.9834   0.6048   0.3297     H
C       0.9944   0.6538   0.5832     C
N      0.99588  0.27696  0.36883     N
