data_I
_chemical_name_common  '/home/zhangsd/repos/MofS-CGCNN/ML/data/SSD/clean_cifs/LEHXUT_clean'
_cell_length_a 37.16340
_cell_length_b 37.16340
_cell_length_c 37.16340
_cell_angle_alpha 60.00000
_cell_angle_beta  60.00000
_cell_angle_gamma 60.00000
_space_group_name_H-M_alt      'P 1'


loop_
_space_group_symop_operation_xyz
  'x, y, z' 

loop_
_atom_site_label
_atom_site_fract_x
_atom_site_fract_y
_atom_site_fract_z
_atom_site_type_symbol
Cu         0.0      0.0  0.21508    Cu
Cu         0.0      0.0   0.2862    Cu
Cu         0.0      0.0   0.7138    Cu
Cu         0.0      0.0  0.78492    Cu
Cu         0.0  0.21508      0.0    Cu
Cu         0.0  0.21508  0.78492    Cu
Cu         0.0   0.2862      0.0    Cu
Cu         0.0   0.2862   0.7138    Cu
Cu         0.0   0.7138   0.2862    Cu
Cu         0.0  0.78492      0.0    Cu
C        6e-05  0.44774   0.7761     C
C        6e-05   0.7761  0.44774     C
C        6e-05   0.7761   0.7761     C
O      0.01008  0.74554  0.30691     O
O      0.01008  0.74554  0.93747     O
O      0.01008  0.93748  0.30691     O
O      0.01008  0.93748  0.74553     O
O      0.01009  0.30691  0.74553     O
O      0.01009  0.30691  0.93747     O
O      0.01049  0.24629  0.80613     O
O      0.01049  0.24629  0.93709     O
O      0.01049  0.80613  0.24629     O
O      0.01049  0.80613  0.93709     O
O      0.01049  0.93709  0.24629     O
O      0.01049  0.93709  0.80613     O
C      0.01219  0.28535  0.78359     C
C      0.01219  0.28535  0.91887     C
C      0.01219  0.78359  0.28535     C
C      0.01219  0.78359  0.91887     C
C      0.01219  0.91887  0.28535     C
C      0.01219  0.91887  0.78359     C
C      0.01279  0.48847  0.74937     C
C      0.01279  0.74937  0.48847     C
C      0.01279  0.74937  0.74937     C
H       0.0163   0.2563   0.8637     H
H       0.0163   0.8637   0.2563     H
H       0.0163   0.8637   0.8637     H
C      0.01671  0.28511  0.84909     C
C      0.01671  0.84909  0.28511     C
C      0.01671  0.84909  0.84909     C
C      0.01702  0.30632  0.80584     C
C      0.01702  0.30632  0.87082     C
C      0.01702  0.80584  0.30632     C
C      0.01702  0.80584  0.87082     C
C      0.01702  0.87082  0.30632     C
C      0.01702  0.87082  0.80584     C
C       0.0227   0.3468  0.78364     C
C       0.0227   0.3468  0.84686     C
C       0.0227  0.78364   0.3468     C
C       0.0227  0.78364  0.84686     C
C       0.0227  0.84686   0.3468     C
C       0.0227  0.84686  0.78364     C
H       0.0244   0.3604   0.7542     H
H       0.0244   0.3604    0.861     H
H       0.0244   0.7542   0.3604     H
H       0.0244   0.7542    0.861     H
H       0.0244    0.861   0.3604     H
H       0.0244    0.861   0.7542     H
C      0.02587  0.36835  0.80289     C
C      0.02587  0.80289  0.36835     C
C      0.02587  0.80289  0.80289     C
C      0.02828  0.56836  0.70168     C
C      0.02828  0.70168  0.56836     C
C      0.02828  0.70168  0.70168     C
C      0.03278  0.61366  0.67678     C
C      0.03278  0.67678  0.61366     C
C      0.03278  0.67678  0.67678     C
N      0.03363  0.41123  0.77757     N
N      0.03363  0.77757  0.41123     N
N      0.03363  0.77757  0.77757     N
C      0.03438  0.49892  0.70494     C
C      0.03438  0.49892  0.76176     C
C      0.03438  0.70494  0.49892     C
C      0.03438  0.70494  0.76176     C
C      0.03438  0.76176  0.49892     C
C      0.03438  0.76176  0.70494     C
C      0.03489  0.63351  0.63351     C
C      0.03489  0.63351  0.69809     C
C      0.03489  0.69809  0.63351     C
H       0.0376   0.6182   0.6182     H
H       0.0376   0.6182    0.726     H
H       0.0376    0.726   0.6182     H
O      0.04101  0.20551  0.20551     O
O      0.04101  0.20551  0.54797     O
O      0.04101  0.54797  0.20551     O
C      0.04311  0.53895  0.67965     C
C      0.04311  0.53895  0.73829     C
C      0.04311  0.67965  0.53895     C
C      0.04311  0.67965  0.73829     C
C      0.04311  0.73829  0.53895     C
C      0.04311  0.73829  0.67965     C
H       0.0435   0.4791   0.6903     H
H       0.0435   0.4791   0.7871     H
H       0.0435   0.6903   0.4791     H
H       0.0435   0.6903   0.7871     H
H       0.0435   0.7871   0.4791     H
H       0.0435   0.7871   0.6903     H
H       0.0582   0.5466   0.6484     H
H       0.0582   0.5466   0.7468     H
H       0.0582   0.6484   0.5466     H
H       0.0582   0.6484   0.7468     H
H       0.0582   0.7468   0.5466     H
H       0.0582   0.7468   0.6484     H
H       0.0601   0.4121   0.7639     H
H       0.0601   0.7639   0.4121     H
H       0.0601   0.7639   0.7639     H
O      0.06252  0.25447  0.69309     O
O      0.06252  0.25447  0.98992     O
O      0.06253  0.69309  0.25446     O
O      0.06253  0.69309  0.98992     O
O      0.06253  0.98992  0.25446     O
O      0.06253  0.98992  0.69309     O
O       0.0629  0.19387  0.75371     O
O       0.0629  0.19387  0.98952     O
O       0.0629  0.75371  0.19387     O
O       0.0629  0.75371  0.98952     O
O       0.0629  0.98952  0.19387     O
O       0.0629  0.98952  0.75371     O
C      0.08113  0.21641  0.71465     C
C      0.08113  0.21641  0.98781     C
C      0.08113  0.71465  0.21641     C
C      0.08113  0.71465  0.98781     C
C      0.08113  0.98781  0.21641     C
C      0.08113  0.98781  0.71465     C
C      0.12918  0.19416  0.69368     C
C      0.12918  0.19416  0.98298     C
C      0.12918  0.69368  0.19416     C
C      0.12918  0.69368  0.98298     C
C      0.12918  0.98298  0.19416     C
C      0.12918  0.98298  0.69368     C
H       0.1363   0.1363   0.7437     H
H       0.1363   0.1363   0.9837     H
H       0.1363   0.7437   0.1363     H
H       0.1363   0.7437   0.9837     H
H       0.1363   0.9837   0.1363     H
H       0.1363   0.9837   0.7437     H
H        0.139   0.2458   0.6396     H
H        0.139   0.2458   0.9756     H
H        0.139   0.6396   0.2458     H
H        0.139   0.6396   0.9756     H
H        0.139   0.9756   0.2458     H
H        0.139   0.9756   0.6396     H
C      0.15091  0.15091  0.71489     C
C      0.15091  0.15091  0.98329     C
C      0.15091  0.71489  0.15091     C
C      0.15091  0.71489  0.98329     C
C      0.15091  0.98329  0.15091     C
C      0.15091  0.98329  0.71489     C
C      0.15314  0.21636   0.6532     C
C      0.15314  0.21636   0.9773     C
C      0.15314   0.6532  0.21636     C
C      0.15314   0.6532   0.9773     C
C      0.15314   0.9773  0.21636     C
C      0.15314   0.9773   0.6532     C
O      0.19386  0.06291  0.75371     O
O      0.19386  0.06291  0.98952     O
O      0.19386  0.75371  0.06291     O
O      0.19386  0.75371  0.98952     O
O      0.19386  0.98952  0.06291     O
O      0.19386  0.98952  0.75371     O
C      0.19416  0.12918  0.69368     C
C      0.19416  0.12918  0.98298     C
C      0.19416  0.69368  0.12918     C
C      0.19416  0.69368  0.98298     C
C      0.19416  0.98298  0.12918     C
C      0.19416  0.98298  0.69368     C
C      0.19711  0.19711  0.63165     C
C      0.19711  0.19711  0.97413     C
C      0.19711  0.63165  0.19711     C
C      0.19711  0.63165  0.97413     C
C      0.19711  0.97413  0.19711     C
C      0.19711  0.97413  0.63165     C
O      0.20551  0.04101  0.20551     O
O      0.20551  0.04101  0.54797     O
O      0.20551  0.20551  0.04101     O
O      0.20551  0.20551  0.54797     O
O      0.20551  0.54797  0.04101     O
O      0.20551  0.54797  0.20551     O
H       0.2129   0.3097   0.5209     H
H       0.2129   0.3097   0.9565     H
H       0.2129   0.5209   0.3097     H
H       0.2129   0.5209   0.9565     H
H       0.2129   0.9565   0.3097     H
H       0.2129   0.9565   0.5209     H
Cu     0.21508     -0.0      0.0    Cu
Cu     0.21508     -0.0  0.78492    Cu
Cu     0.21508  0.78492      0.0    Cu
C      0.21636  0.15314   0.6532     C
C      0.21636  0.15314   0.9773     C
C      0.21636   0.6532  0.15314     C
C      0.21636   0.6532   0.9773     C
C      0.21636   0.9773  0.15314     C
C      0.21636   0.9773   0.6532     C
C      0.21641  0.08113  0.71465     C
C      0.21641  0.08113  0.98781     C
C      0.21641  0.71465  0.08113     C
C      0.21641  0.71465  0.98781     C
C      0.21641  0.98781  0.08113     C
C      0.21641  0.98781  0.71465     C
N      0.22243  0.22243  0.58877     N
N      0.22243  0.22243  0.96637     N
N      0.22243  0.58877  0.22243     N
N      0.22243  0.58877  0.96637     N
N      0.22243  0.96637  0.22243     N
N      0.22243  0.96637  0.58877     N
C       0.2239   0.2239  0.55226     C
C       0.2239   0.2239  0.99994     C
C       0.2239  0.55226   0.2239     C
C       0.2239  0.55226  0.99994     C
C       0.2239  0.99994   0.2239     C
C       0.2239  0.99994  0.55226     C
H       0.2361   0.2361   0.5879     H
H       0.2361   0.2361   0.9399     H
H       0.2361   0.5879   0.2361     H
H       0.2361   0.5879   0.9399     H
H       0.2361   0.9399   0.2361     H
H       0.2361   0.9399   0.5879     H
C      0.23824  0.29506  0.50108     C
C      0.23824  0.29506  0.96562     C
C      0.23824  0.50108  0.29506     C
C      0.23824  0.50108  0.96562     C
C      0.23824  0.96562  0.29506     C
C      0.23824  0.96562  0.50108     C
H       0.2458    0.139   0.6396     H
H       0.2458    0.139   0.9756     H
H       0.2458   0.6396    0.139     H
H       0.2458   0.6396   0.9756     H
H       0.2458   0.9756    0.139     H
H       0.2458   0.9756   0.6396     H
O       0.2463  0.01048  0.80613     O
O       0.2463  0.01048  0.93709     O
O       0.2463  0.80613  0.01048     O
O       0.2463  0.80613  0.93709     O
O       0.2463  0.93709  0.01048     O
O       0.2463  0.93709  0.80613     O
C      0.25063  0.25063  0.51153     C
C      0.25063  0.25063  0.98721     C
C      0.25063  0.51153  0.25063     C
C      0.25063  0.51153  0.98721     C
C      0.25063  0.98721  0.25063     C
C      0.25063  0.98721  0.51153     C
H       0.2532   0.3516   0.4534     H
H       0.2532   0.3516   0.9418     H
H       0.2532   0.4534   0.3516     H
H       0.2532   0.4534   0.9418     H
H       0.2532   0.9418   0.3516     H
H       0.2532   0.9418   0.4534     H
O      0.25446  0.06253  0.69309     O
O      0.25446  0.06253  0.98992     O
O      0.25446  0.69309  0.06253     O
O      0.25446  0.69309  0.98992     O
O      0.25446  0.98992  0.69309     O
O      0.25447  0.98992  0.06252     O
H       0.2563   0.0163   0.8637     H
H       0.2563   0.8637   0.0163     H
H       0.2563   0.8637   0.8637     H
C      0.26171  0.32035  0.46105     C
C      0.26171  0.32035  0.95689     C
C      0.26171  0.46105  0.32035     C
C      0.26171  0.46105  0.95689     C
C      0.26171  0.95689  0.32035     C
C      0.26171  0.95689  0.46105     C
H        0.274   0.3818   0.3818     H
H        0.274   0.3818   0.9624     H
H        0.274   0.9624   0.3818     H
C      0.28511  0.01671  0.84909     C
C      0.28511  0.84909  0.01671     C
C      0.28511  0.84909  0.84909     C
C      0.28535  0.01219  0.78359     C
C      0.28535  0.01219  0.91887     C
C      0.28535  0.78359  0.01219     C
C      0.28535  0.78359  0.91887     C
C      0.28535  0.91887  0.01219     C
C      0.28535  0.91887  0.78359     C
Cu      0.2862     -0.0      0.0    Cu
Cu      0.2862     -0.0   0.7138    Cu
Cu      0.2862   0.7138      0.0    Cu
C      0.29506  0.23824  0.50108     C
C      0.29506  0.23824  0.96562     C
C      0.29506  0.50108  0.23824     C
C      0.29506  0.50108  0.96562     C
C      0.29506  0.96562  0.23824     C
C      0.29506  0.96562  0.50108     C
C      0.29832  0.29832  0.43164     C
C      0.29832  0.29832  0.97172     C
C      0.29832  0.43164  0.29832     C
C      0.29832  0.43164  0.97172     C
C      0.29832  0.97172  0.29832     C
C      0.29832  0.97172  0.43164     C
C      0.30191  0.36649  0.36649     C
C      0.30191  0.36649  0.96511     C
C      0.30191  0.96511  0.36649     C
C      0.30632  0.01702  0.80584     C
C      0.30632  0.01702  0.87082     C
C      0.30632  0.80584  0.01702     C
C      0.30632  0.80584  0.87082     C
C      0.30632  0.87082  0.01702     C
C      0.30632  0.87082  0.80584     C
O      0.30691  0.74554  0.01008     O
O      0.30691  0.74554  0.93747     O
O      0.30691  0.93748  0.74553     O
O      0.30692  0.01008  0.74553     O
O      0.30692  0.01008  0.93747     O
O      0.30692  0.93747  0.01008     O
H       0.3097   0.2129   0.5209     H
H       0.3097   0.2129   0.9565     H
H       0.3097   0.5209   0.2129     H
H       0.3097   0.5209   0.9565     H
H       0.3097   0.9565   0.2129     H
H       0.3097   0.9565   0.5209     H
C      0.32035  0.26171  0.46105     C
C      0.32035  0.26171  0.95689     C
C      0.32035  0.46105  0.26171     C
C      0.32035  0.46105  0.95689     C
C      0.32035  0.95689  0.26171     C
C      0.32035  0.95689  0.46105     C
C      0.32322  0.32322  0.38634     C
C      0.32322  0.32322  0.96722     C
C      0.32322  0.38634  0.32322     C
C      0.32322  0.38634  0.96722     C
C      0.32322  0.96722  0.32322     C
C      0.32322  0.96722  0.38634     C
C       0.3468   0.0227  0.78364     C
C       0.3468   0.0227  0.84686     C
C       0.3468  0.78364   0.0227     C
C       0.3468  0.78364  0.84686     C
C       0.3468  0.84686   0.0227     C
C       0.3468  0.84686  0.78364     C
H       0.3516   0.2532   0.4534     H
H       0.3516   0.2532   0.9418     H
H       0.3516   0.4534   0.2532     H
H       0.3516   0.4534   0.9418     H
H       0.3516   0.9418   0.2532     H
H       0.3516   0.9418   0.4534     H
H       0.3604   0.0244   0.7542     H
H       0.3604   0.0244    0.861     H
H       0.3604   0.7542   0.0244     H
H       0.3604   0.7542    0.861     H
H       0.3604    0.861   0.0244     H
H       0.3604    0.861   0.7542     H
C      0.36649  0.30191  0.36649     C
C      0.36649  0.30191  0.96511     C
C      0.36649  0.36649  0.30191     C
C      0.36649  0.36649  0.96511     C
C      0.36649  0.96511  0.30191     C
C      0.36649  0.96511  0.36649     C
C      0.36835  0.02587  0.80289     C
C      0.36835  0.80289  0.02587     C
C      0.36835  0.80289  0.80289     C
H       0.3818    0.274   0.3818     H
H       0.3818    0.274   0.9624     H
H       0.3818   0.3818    0.274     H
H       0.3818   0.3818   0.9624     H
H       0.3818   0.9624    0.274     H
H       0.3818   0.9624   0.3818     H
C      0.38634  0.32322  0.32322     C
C      0.38634  0.32322  0.96722     C
C      0.38634  0.96722  0.32322     C
N      0.41123  0.03363  0.77757     N
N      0.41123  0.77757  0.03363     N
N      0.41123  0.77757  0.77757     N
H       0.4121   0.0601   0.7639     H
H       0.4121   0.7639   0.0601     H
H       0.4121   0.7639   0.7639     H
C      0.43164  0.29832  0.29832     C
C      0.43164  0.29832  0.97172     C
C      0.43164  0.97172  0.29832     C
C      0.44774    6e-05   0.7761     C
C      0.44774   0.7761    6e-05     C
C      0.44774   0.7761   0.7761     C
O      0.45203  0.79449  0.79449     O
O      0.45203  0.79449  0.95899     O
O      0.45203  0.95899  0.79449     O
H       0.4534   0.2532   0.3516     H
H       0.4534   0.2532   0.9418     H
H       0.4534   0.3516   0.2532     H
H       0.4534   0.3516   0.9418     H
H       0.4534   0.9418   0.2532     H
H       0.4534   0.9418   0.3516     H
C      0.46105  0.26171  0.32035     C
C      0.46105  0.26171  0.95689     C
C      0.46105  0.32035  0.26171     C
C      0.46105  0.32035  0.95689     C
C      0.46105  0.95689  0.26171     C
C      0.46105  0.95689  0.32035     C
H       0.4791   0.0435   0.6903     H
H       0.4791   0.0435   0.7871     H
H       0.4791   0.6903   0.0435     H
H       0.4791   0.6903   0.7871     H
H       0.4791   0.7871   0.0435     H
H       0.4791   0.7871   0.6903     H
C      0.48847  0.01279  0.74937     C
C      0.48847  0.74937  0.01279     C
C      0.48847  0.74937  0.74937     C
C      0.49892  0.03438  0.70494     C
C      0.49892  0.03438  0.76176     C
C      0.49892  0.70494  0.03438     C
C      0.49892  0.70494  0.76176     C
C      0.49892  0.76176  0.03438     C
C      0.49892  0.76176  0.70494     C
C      0.50108  0.23824  0.29506     C
C      0.50108  0.23824  0.96562     C
C      0.50108  0.29506  0.23824     C
C      0.50108  0.29506  0.96562     C
C      0.50108  0.96562  0.23824     C
C      0.50108  0.96562  0.29506     C
C      0.51153  0.25063  0.25063     C
C      0.51153  0.25063  0.98721     C
C      0.51153  0.98721  0.25063     C
H       0.5209   0.2129   0.3097     H
H       0.5209   0.2129   0.9565     H
H       0.5209   0.3097   0.2129     H
H       0.5209   0.3097   0.9565     H
H       0.5209   0.9565   0.2129     H
H       0.5209   0.9565   0.3097     H
C      0.53895  0.04311  0.67965     C
C      0.53895  0.04311  0.73829     C
C      0.53895  0.67965  0.04311     C
C      0.53895  0.67965  0.73829     C
C      0.53895  0.73829  0.04311     C
C      0.53895  0.73829  0.67965     C
H       0.5466   0.0582   0.6484     H
H       0.5466   0.0582   0.7468     H
H       0.5466   0.6484   0.0582     H
H       0.5466   0.6484   0.7468     H
H       0.5466   0.7468   0.0582     H
H       0.5466   0.7468   0.6484     H
O      0.54797  0.04101  0.20551     O
O      0.54797  0.20551  0.04101     O
O      0.54797  0.20551  0.20551     O
C      0.55226   0.2239   0.2239     C
C      0.55226   0.2239  0.99994     C
C      0.55226  0.99994   0.2239     C
C      0.56836  0.02828  0.70168     C
C      0.56836  0.70168  0.02828     C
C      0.56836  0.70168  0.70168     C
H       0.5879   0.2361   0.2361     H
H       0.5879   0.2361   0.9399     H
H       0.5879   0.9399   0.2361     H
N      0.58877  0.22243  0.22243     N
N      0.58877  0.22243  0.96637     N
N      0.58877  0.96637  0.22243     N
C      0.61366  0.03278  0.67678     C
C      0.61366  0.67678  0.03278     C
C      0.61366  0.67678  0.67678     C
H       0.6182   0.0376   0.6182     H
H       0.6182   0.0376    0.726     H
H       0.6182   0.6182   0.0376     H
H       0.6182   0.6182    0.726     H
H       0.6182    0.726   0.0376     H
H       0.6182    0.726   0.6182     H
C      0.63165  0.19711  0.19711     C
C      0.63165  0.19711  0.97413     C
C      0.63165  0.97413  0.19711     C
C      0.63351  0.03489  0.63351     C
C      0.63351  0.03489  0.69809     C
C      0.63351  0.63351  0.03489     C
C      0.63351  0.63351  0.69809     C
C      0.63351  0.69809  0.03489     C
C      0.63351  0.69809  0.63351     C
H       0.6396    0.139   0.2458     H
H       0.6396    0.139   0.9756     H
H       0.6396   0.2458    0.139     H
H       0.6396   0.2458   0.9756     H
H       0.6396   0.9756    0.139     H
H       0.6396   0.9756   0.2458     H
H       0.6484   0.0582   0.5466     H
H       0.6484   0.0582   0.7468     H
H       0.6484   0.5466   0.0582     H
H       0.6484   0.5466   0.7468     H
H       0.6484   0.7468   0.0582     H
H       0.6484   0.7468   0.5466     H
C       0.6532  0.15314  0.21636     C
C       0.6532  0.15314   0.9773     C
C       0.6532  0.21636  0.15314     C
C       0.6532  0.21636   0.9773     C
C       0.6532   0.9773  0.15314     C
C       0.6532   0.9773  0.21636     C
C      0.67678  0.03278  0.61366     C
C      0.67678  0.03278  0.67678     C
C      0.67678  0.61366  0.03278     C
C      0.67678  0.61366  0.67678     C
C      0.67678  0.67678  0.03278     C
C      0.67678  0.67678  0.61366     C
C      0.67965  0.04311  0.53895     C
C      0.67965  0.04311  0.73829     C
C      0.67965  0.53895  0.04311     C
C      0.67965  0.53895  0.73829     C
C      0.67965  0.73829  0.04311     C
C      0.67965  0.73829  0.53895     C
H       0.6903   0.0435   0.4791     H
H       0.6903   0.0435   0.7871     H
H       0.6903   0.4791   0.0435     H
H       0.6903   0.4791   0.7871     H
H       0.6903   0.7871   0.0435     H
H       0.6903   0.7871   0.4791     H
O      0.69308  0.25447  0.06253     O
O      0.69308  0.25447  0.98992     O
O      0.69308  0.98992  0.06253     O
O      0.69309  0.06253  0.25446     O
O      0.69309  0.06253  0.98992     O
O      0.69309  0.98992  0.25446     O
C      0.69368  0.12918  0.19416     C
C      0.69368  0.12918  0.98298     C
C      0.69368  0.19416  0.12918     C
C      0.69368  0.19416  0.98298     C
C      0.69368  0.98298  0.12918     C
C      0.69368  0.98298  0.19416     C
C      0.69809  0.03489  0.63351     C
C      0.69809  0.63351  0.03489     C
C      0.69809  0.63351  0.63351     C
C      0.70168  0.02828  0.56836     C
C      0.70168  0.02828  0.70168     C
C      0.70168  0.56836  0.02828     C
C      0.70168  0.56836  0.70168     C
C      0.70168  0.70168  0.02828     C
C      0.70168  0.70168  0.56836     C
C      0.70494  0.03438  0.49892     C
C      0.70494  0.03438  0.76176     C
C      0.70494  0.49892  0.03438     C
C      0.70494  0.49892  0.76176     C
C      0.70494  0.76176  0.03438     C
C      0.70494  0.76176  0.49892     C
Cu      0.7138     -0.0      0.0    Cu
Cu      0.7138     -0.0   0.2862    Cu
Cu      0.7138   0.2862      0.0    Cu
C      0.71465  0.08113  0.21641     C
C      0.71465  0.08113  0.98781     C
C      0.71465  0.21641  0.08113     C
C      0.71465  0.21641  0.98781     C
C      0.71465  0.98781  0.08113     C
C      0.71465  0.98781  0.21641     C
C      0.71489  0.15091  0.15091     C
C      0.71489  0.15091  0.98329     C
C      0.71489  0.98329  0.15091     C
H        0.726   0.0376   0.6182     H
H        0.726   0.6182   0.0376     H
H        0.726   0.6182   0.6182     H
C      0.73829  0.04311  0.53895     C
C      0.73829  0.04311  0.67965     C
C      0.73829  0.53895  0.04311     C
C      0.73829  0.53895  0.67965     C
C      0.73829  0.67965  0.04311     C
C      0.73829  0.67965  0.53895     C
H       0.7437   0.1363   0.1363     H
H       0.7437   0.1363   0.9837     H
H       0.7437   0.9837   0.1363     H
O      0.74554  0.01008  0.30691     O
O      0.74554  0.01008  0.93747     O
O      0.74554  0.30691  0.01008     O
O      0.74554  0.30691  0.93747     O
O      0.74554  0.93747  0.01008     O
O      0.74554  0.93747  0.30691     O
H       0.7468   0.0582   0.5466     H
H       0.7468   0.0582   0.6484     H
H       0.7468   0.5466   0.0582     H
H       0.7468   0.5466   0.6484     H
H       0.7468   0.6484   0.0582     H
H       0.7468   0.6484   0.5466     H
C      0.74937  0.01279  0.48847     C
C      0.74937  0.01279  0.74937     C
C      0.74937  0.48847  0.01279     C
C      0.74937  0.48847  0.74937     C
C      0.74937  0.74937  0.01279     C
C      0.74937  0.74937  0.48847     C
O       0.7537  0.06291  0.19387     O
O       0.7537  0.06291  0.98952     O
O       0.7537  0.19387  0.06291     O
O       0.7537  0.19387  0.98952     O
O       0.7537  0.98952  0.06291     O
O       0.7537  0.98952  0.19387     O
H       0.7542   0.0244   0.3604     H
H       0.7542   0.0244    0.861     H
H       0.7542   0.3604   0.0244     H
H       0.7542   0.3604    0.861     H
H       0.7542    0.861   0.0244     H
H       0.7542    0.861   0.3604     H
C      0.76176  0.03438  0.49892     C
C      0.76176  0.03438  0.70494     C
C      0.76176  0.49892  0.03438     C
C      0.76176  0.49892  0.70494     C
C      0.76176  0.70494  0.03438     C
C      0.76176  0.70494  0.49892     C
H       0.7639   0.0601   0.4121     H
H       0.7639   0.0601   0.7639     H
H       0.7639   0.4121   0.0601     H
H       0.7639   0.4121   0.7639     H
H       0.7639   0.7639   0.0601     H
H       0.7639   0.7639   0.4121     H
C       0.7761    6e-05  0.44774     C
C       0.7761    6e-05   0.7761     C
C       0.7761  0.44774    6e-05     C
C       0.7761  0.44774   0.7761     C
C       0.7761   0.7761    6e-05     C
C       0.7761   0.7761  0.44774     C
N      0.77757  0.03363  0.41123     N
N      0.77757  0.03363  0.77757     N
N      0.77757  0.41123  0.03363     N
N      0.77757  0.41123  0.77757     N
N      0.77757  0.77757  0.03363     N
N      0.77757  0.77757  0.41123     N
C      0.78359  0.01219  0.28535     C
C      0.78359  0.01219  0.91887     C
C      0.78359  0.28535  0.01219     C
C      0.78359  0.28535  0.91887     C
C      0.78359  0.91887  0.01219     C
C      0.78359  0.91887  0.28535     C
C      0.78364   0.0227   0.3468     C
C      0.78364   0.0227  0.84686     C
C      0.78364   0.3468   0.0227     C
C      0.78364   0.3468  0.84686     C
C      0.78364  0.84686   0.0227     C
C      0.78364  0.84686   0.3468     C
Cu     0.78492     -0.0      0.0    Cu
Cu     0.78492  0.21508      0.0    Cu
Cu     0.78492      1.0  0.21508    Cu
H       0.7871   0.0435   0.4791     H
H       0.7871   0.0435   0.6903     H
H       0.7871   0.4791   0.0435     H
H       0.7871   0.4791   0.6903     H
H       0.7871   0.6903   0.0435     H
H       0.7871   0.6903   0.4791     H
O      0.79449  0.45203  0.79449     O
O      0.79449  0.45203  0.95899     O
O      0.79449  0.79449  0.45203     O
O      0.79449  0.79449  0.95899     O
O      0.79449  0.95899  0.45203     O
O      0.79449  0.95899  0.79449     O
C      0.80289  0.02587  0.36835     C
C      0.80289  0.02587  0.80289     C
C      0.80289  0.36835  0.02587     C
C      0.80289  0.36835  0.80289     C
C      0.80289  0.80289  0.02587     C
C      0.80289  0.80289  0.36835     C
C      0.80584  0.01702  0.30632     C
C      0.80584  0.01702  0.87082     C
C      0.80584  0.30632  0.01702     C
C      0.80584  0.30632  0.87082     C
C      0.80584  0.87082  0.01702     C
C      0.80584  0.87082  0.30632     C
O      0.80614  0.01048  0.24629     O
O      0.80614  0.01048  0.93709     O
O      0.80614  0.24629  0.01048     O
O      0.80614  0.24629  0.93709     O
O      0.80614  0.93709  0.01048     O
O      0.80614  0.93709  0.24629     O
C      0.84686   0.0227   0.3468     C
C      0.84686   0.0227  0.78364     C
C      0.84686   0.3468   0.0227     C
C      0.84686   0.3468  0.78364     C
C      0.84686  0.78364   0.0227     C
C      0.84686  0.78364   0.3468     C
C      0.84909  0.01671  0.28511     C
C      0.84909  0.01671  0.84909     C
C      0.84909  0.28511  0.01671     C
C      0.84909  0.28511  0.84909     C
C      0.84909  0.84909  0.01671     C
C      0.84909  0.84909  0.28511     C
H        0.861   0.0244   0.3604     H
H        0.861   0.0244   0.7542     H
H        0.861   0.3604   0.0244     H
H        0.861   0.3604   0.7542     H
H        0.861   0.7542   0.0244     H
H        0.861   0.7542   0.3604     H
H       0.8637   0.0163   0.2563     H
H       0.8637   0.0163   0.8637     H
H       0.8637   0.2563   0.0163     H
H       0.8637   0.2563   0.8637     H
H       0.8637   0.8637   0.0163     H
H       0.8637   0.8637   0.2563     H
C      0.87082  0.01702  0.30632     C
C      0.87082  0.01702  0.80584     C
C      0.87082  0.30632  0.01702     C
C      0.87082  0.30632  0.80584     C
C      0.87082  0.80584  0.01702     C
C      0.87082  0.80584  0.30632     C
C      0.91887  0.01219  0.28535     C
C      0.91887  0.01219  0.78359     C
C      0.91887  0.28535  0.01219     C
C      0.91887  0.28535  0.78359     C
C      0.91887  0.78359  0.01219     C
C      0.91887  0.78359  0.28535     C
O       0.9371  0.01048  0.24629     O
O       0.9371  0.01048  0.80613     O
O       0.9371  0.24629  0.01048     O
O       0.9371  0.24629  0.80613     O
O       0.9371  0.80613  0.01048     O
O       0.9371  0.80613  0.24629     O
O      0.93747  0.30691  0.01008     O
O      0.93747  0.74554  0.01008     O
O      0.93747  0.74554  0.30691     O
O      0.93748  0.01008  0.30691     O
O      0.93748  0.01008  0.74553     O
O      0.93748  0.30691  0.74553     O
H       0.9399   0.2361   0.2361     H
H       0.9399   0.2361   0.5879     H
H       0.9399   0.5879   0.2361     H
H       0.9418   0.2532   0.3516     H
H       0.9418   0.2532   0.4534     H
H       0.9418   0.3516   0.2532     H
H       0.9418   0.3516   0.4534     H
H       0.9418   0.4534   0.2532     H
H       0.9418   0.4534   0.3516     H
H       0.9565   0.2129   0.3097     H
H       0.9565   0.2129   0.5209     H
H       0.9565   0.3097   0.2129     H
H       0.9565   0.3097   0.5209     H
H       0.9565   0.5209   0.2129     H
H       0.9565   0.5209   0.3097     H
C      0.95689  0.26171  0.32035     C
C      0.95689  0.26171  0.46105     C
C      0.95689  0.32035  0.26171     C
C      0.95689  0.32035  0.46105     C
C      0.95689  0.46105  0.26171     C
C      0.95689  0.46105  0.32035     C
O      0.95899  0.45203  0.79449     O
O      0.95899  0.79449  0.45203     O
O      0.95899  0.79449  0.79449     O
H       0.9624    0.274   0.3818     H
H       0.9624   0.3818    0.274     H
H       0.9624   0.3818   0.3818     H
C      0.96511  0.30191  0.36649     C
C      0.96511  0.36649  0.30191     C
C      0.96511  0.36649  0.36649     C
C      0.96562  0.23824  0.29506     C
C      0.96562  0.23824  0.50108     C
C      0.96562  0.29506  0.23824     C
C      0.96562  0.29506  0.50108     C
C      0.96562  0.50108  0.23824     C
C      0.96562  0.50108  0.29506     C
N      0.96637  0.22243  0.22243     N
N      0.96637  0.22243  0.58877     N
N      0.96637  0.58877  0.22243     N
C      0.96722  0.32322  0.32322     C
C      0.96722  0.32322  0.38634     C
C      0.96722  0.38634  0.32322     C
C      0.97172  0.29832  0.29832     C
C      0.97172  0.29832  0.43164     C
C      0.97172  0.43164  0.29832     C
C      0.97413  0.19711  0.19711     C
C      0.97413  0.19711  0.63165     C
C      0.97413  0.63165  0.19711     C
H       0.9756    0.139   0.2458     H
H       0.9756    0.139   0.6396     H
H       0.9756   0.2458    0.139     H
H       0.9756   0.2458   0.6396     H
H       0.9756   0.6396    0.139     H
H       0.9756   0.6396   0.2458     H
C       0.9773  0.15314  0.21636     C
C       0.9773  0.15314   0.6532     C
C       0.9773  0.21636  0.15314     C
C       0.9773  0.21636   0.6532     C
C       0.9773   0.6532  0.15314     C
C       0.9773   0.6532  0.21636     C
C      0.98298  0.12918  0.19416     C
C      0.98298  0.12918  0.69368     C
C      0.98298  0.19416  0.12918     C
C      0.98298  0.19416  0.69368     C
C      0.98298  0.69368  0.12918     C
C      0.98298  0.69368  0.19416     C
C      0.98329  0.15091  0.15091     C
C      0.98329  0.15091  0.71489     C
C      0.98329  0.71489  0.15091     C
H       0.9837   0.1363   0.1363     H
H       0.9837   0.1363   0.7437     H
H       0.9837   0.7437   0.1363     H
C      0.98721  0.25063  0.25063     C
C      0.98721  0.25063  0.51153     C
C      0.98721  0.51153  0.25063     C
C      0.98781  0.08113  0.21641     C
C      0.98781  0.08113  0.71465     C
C      0.98781  0.21641  0.08113     C
C      0.98781  0.21641  0.71465     C
C      0.98781  0.71465  0.08113     C
C      0.98781  0.71465  0.21641     C
O      0.98951  0.06291  0.19387     O
O      0.98951  0.06291  0.75371     O
O      0.98951  0.19387  0.06291     O
O      0.98951  0.19387  0.75371     O
O      0.98951  0.75371  0.06291     O
O      0.98951  0.75371  0.19387     O
O      0.98991  0.06253  0.69309     O
O      0.98991  0.25447  0.06253     O
O      0.98991  0.25447  0.69309     O
O      0.98991  0.69309  0.06253     O
O      0.98991  0.69309  0.25447     O
O      0.98992  0.06253  0.25446     O
C      0.99994   0.2239   0.2239     C
C      0.99994   0.2239  0.55226     C
C      0.99994  0.55226   0.2239     C
Cu         1.0   0.7138      0.0    Cu
Cu         1.0  0.78492  0.21508    Cu
