data_I
_chemical_name_common  '/home/zhangsd/repos/MofS-CGCNN/ML/data/SSD/clean_cifs/LEWMUX_clean'
_cell_length_a 12.98790
_cell_length_b 12.98790
_cell_length_c 25.02500
_cell_angle_alpha 90.00000
_cell_angle_beta  90.00000
_cell_angle_gamma 90.00000
_space_group_name_H-M_alt      'P 1'


loop_
_space_group_symop_operation_xyz
  'x, y, z' 

loop_
_atom_site_label
_atom_site_fract_x
_atom_site_fract_y
_atom_site_fract_z
_atom_site_type_symbol
Si         0.0      0.5     0.25    Si
Si         0.0      0.5     0.75    Si
C       0.0102   0.7549  0.41835     C
C       0.0102   0.7549  0.58165     C
C       0.0198   0.6364  0.33895     C
C       0.0198   0.6364  0.66105     C
O       0.0461   0.8328  0.44199     O
O       0.0461   0.8328  0.55801     O
H       0.0464   0.3854   0.3475     H
H       0.0464   0.3854   0.6525     H
C       0.0671     0.71   0.3708     C
C       0.0671     0.71   0.6292     C
C       0.0691   0.5938  0.29398     C
C       0.0691   0.5938  0.70602     C
O       0.0745   0.2848  0.43154     O
O       0.0745   0.2848  0.56846     O
C       0.0938   0.4309  0.20602     C
C       0.0938   0.4309  0.79398     C
H       0.0942   0.2933   0.2434     H
H       0.0942   0.2933   0.7566     H
H       0.1146   0.5464   0.1525     H
H       0.1146   0.5464   0.8475     H
Cd     0.11589  0.17497      0.5    Cd
C       0.1242   0.3298   0.2154     C
C       0.1242   0.3298   0.7846     C
C       0.1364   0.4802  0.16105     C
C       0.1364   0.4802  0.83895     C
C       0.1658   0.7407   0.3592     C
C       0.1658   0.7407   0.6408     C
O       0.1672   0.0461  0.44199     O
O       0.1672   0.0461  0.55801     O
C       0.1702   0.6242   0.2846     C
C       0.1702   0.6242   0.7154     C
Cd     0.17497  0.88411      0.5    Cd
H       0.1979     0.79   0.3804     H
H       0.1979     0.79   0.6196     H
C       0.1989   0.2821   0.1838     C
C       0.1989   0.2821   0.8162     C
H       0.2067   0.5942   0.2566     H
H       0.2067   0.5942   0.7434     H
H         0.21   0.1979   0.3804     H
H         0.21   0.1979   0.6196     H
C         0.21   0.4329   0.1292     C
C         0.21   0.4329   0.8708     C
O       0.2152   0.5745  0.06846     O
O       0.2152   0.5745  0.93154     O
H       0.2155   0.7796   0.1916     H
H       0.2155   0.7796   0.8084     H
C       0.2179   0.6989   0.3162     C
C       0.2179   0.6989   0.6838     C
H       0.2204   0.2155   0.1916     H
H       0.2204   0.2155   0.8084     H
C       0.2407   0.3342   0.1408     C
C       0.2407   0.3342   0.8592     C
C       0.2451   0.0102  0.41835     C
C       0.2451   0.0102  0.58165     C
C       0.2549   0.4898  0.08165     C
C       0.2549   0.4898  0.91835     C
C       0.2593   0.1658   0.3592     C
C       0.2593   0.1658   0.6408     C
H       0.2796   0.2845   0.3084     H
H       0.2796   0.2845   0.6916     H
C       0.2821   0.8011   0.1838     C
C       0.2821   0.8011   0.8162     C
H       0.2845   0.7204   0.3084     H
H       0.2845   0.7204   0.6916     H
O       0.2848   0.9255  0.43154     O
O       0.2848   0.9255  0.56846     O
C         0.29   0.0671   0.3708     C
C         0.29   0.0671   0.6292     C
H         0.29   0.3021   0.1196     H
H         0.29   0.3021   0.8804     H
H       0.2933   0.9058   0.2434     H
H       0.2933   0.9058   0.7566     H
C       0.3011   0.2179   0.3162     C
C       0.3011   0.2179   0.6838     C
H       0.3021     0.71   0.1196     H
H       0.3021     0.71   0.8804     H
Cd     0.32503  0.61589      0.0    Cd
C       0.3298   0.8758   0.2154     C
C       0.3298   0.8758   0.7846     C
O       0.3328   0.4539  0.05801     O
O       0.3328   0.4539  0.94199     O
C       0.3342   0.7593   0.1408     C
C       0.3342   0.7593   0.8592     C
C       0.3636   0.0198  0.33895     C
C       0.3636   0.0198  0.66105     C
C       0.3758   0.1702   0.2846     C
C       0.3758   0.1702   0.7154     C
Cd     0.38411  0.32503      0.0    Cd
H       0.3854   0.9536   0.3475     H
H       0.3854   0.9536   0.6525     H
H       0.4058   0.2067   0.2566     H
H       0.4058   0.2067   0.7434     H
C       0.4062   0.0691  0.29398     C
C       0.4062   0.0691  0.70602     C
O       0.4255   0.2152  0.06846     O
O       0.4255   0.2152  0.93154     O
C       0.4309   0.9062  0.20602     C
C       0.4309   0.9062  0.79398     C
C       0.4329     0.79   0.1292     C
C       0.4329     0.79   0.8708     C
H       0.4536   0.1146   0.1525     H
H       0.4536   0.1146   0.8475     H
O       0.4539   0.6672  0.05801     O
O       0.4539   0.6672  0.94199     O
C       0.4802   0.8636  0.16105     C
C       0.4802   0.8636  0.83895     C
C       0.4898   0.7451  0.08165     C
C       0.4898   0.7451  0.91835     C
Si         0.5      0.0     0.25    Si
Si         0.5      0.0     0.75    Si
C       0.5102   0.2549  0.08165     C
C       0.5102   0.2549  0.91835     C
C       0.5198   0.1364  0.16105     C
C       0.5198   0.1364  0.83895     C
O       0.5461   0.3328  0.05801     O
O       0.5461   0.3328  0.94199     O
H       0.5464   0.8854   0.1525     H
H       0.5464   0.8854   0.8475     H
C       0.5671     0.21   0.1292     C
C       0.5671     0.21   0.8708     C
C       0.5691   0.0938  0.20602     C
C       0.5691   0.0938  0.79398     C
O       0.5745   0.7848  0.06846     O
O       0.5745   0.7848  0.93154     O
C       0.5938   0.9309  0.29398     C
C       0.5938   0.9309  0.70602     C
H       0.5942   0.7933   0.2566     H
H       0.5942   0.7933   0.7434     H
H       0.6146   0.0464   0.3475     H
H       0.6146   0.0464   0.6525     H
Cd     0.61589  0.67497      0.0    Cd
C       0.6242   0.8298   0.2846     C
C       0.6242   0.8298   0.7154     C
C       0.6364   0.9802  0.33895     C
C       0.6364   0.9802  0.66105     C
C       0.6658   0.2407   0.1408     C
C       0.6658   0.2407   0.8592     C
O       0.6672   0.5461  0.05801     O
O       0.6672   0.5461  0.94199     O
C       0.6702   0.1242   0.2154     C
C       0.6702   0.1242   0.7846     C
Cd     0.67497  0.38411      0.0    Cd
H       0.6979     0.29   0.1196     H
H       0.6979     0.29   0.8804     H
C       0.6989   0.7821   0.3162     C
C       0.6989   0.7821   0.6838     C
H       0.7067   0.0942   0.2434     H
H       0.7067   0.0942   0.7566     H
H         0.71   0.6979   0.1196     H
H         0.71   0.6979   0.8804     H
C         0.71   0.9329   0.3708     C
C         0.71   0.9329   0.6292     C
O       0.7152   0.0745  0.43154     O
O       0.7152   0.0745  0.56846     O
H       0.7155   0.2796   0.3084     H
H       0.7155   0.2796   0.6916     H
C       0.7179   0.1989   0.1838     C
C       0.7179   0.1989   0.8162     C
H       0.7204   0.7155   0.3084     H
H       0.7204   0.7155   0.6916     H
C       0.7407   0.8342   0.3592     C
C       0.7407   0.8342   0.6408     C
C       0.7451   0.5102  0.08165     C
C       0.7451   0.5102  0.91835     C
C       0.7549   0.9898  0.41835     C
C       0.7549   0.9898  0.58165     C
C       0.7593   0.6658   0.1408     C
C       0.7593   0.6658   0.8592     C
H       0.7796   0.7845   0.1916     H
H       0.7796   0.7845   0.8084     H
C       0.7821   0.3011   0.3162     C
C       0.7821   0.3011   0.6838     C
H       0.7845   0.2204   0.1916     H
H       0.7845   0.2204   0.8084     H
O       0.7848   0.4255  0.06846     O
O       0.7848   0.4255  0.93154     O
C         0.79   0.5671   0.1292     C
C         0.79   0.5671   0.8708     C
H         0.79   0.8021   0.3804     H
H         0.79   0.8021   0.6196     H
H       0.7933   0.4058   0.2566     H
H       0.7933   0.4058   0.7434     H
C       0.8011   0.7179   0.1838     C
C       0.8011   0.7179   0.8162     C
H       0.8021     0.21   0.3804     H
H       0.8021     0.21   0.6196     H
Cd     0.82503  0.11589      0.5    Cd
C       0.8298   0.3758   0.2846     C
C       0.8298   0.3758   0.7154     C
O       0.8328   0.9539  0.44199     O
O       0.8328   0.9539  0.55801     O
C       0.8342   0.2593   0.3592     C
C       0.8342   0.2593   0.6408     C
C       0.8636   0.5198  0.16105     C
C       0.8636   0.5198  0.83895     C
C       0.8758   0.6702   0.2154     C
C       0.8758   0.6702   0.7846     C
Cd     0.88411  0.82503      0.5    Cd
H       0.8854   0.4536   0.1525     H
H       0.8854   0.4536   0.8475     H
H       0.9058   0.7067   0.2434     H
H       0.9058   0.7067   0.7566     H
C       0.9062   0.5691  0.20602     C
C       0.9062   0.5691  0.79398     C
O       0.9255   0.7152  0.43154     O
O       0.9255   0.7152  0.56846     O
C       0.9309   0.4062  0.29398     C
C       0.9309   0.4062  0.70602     C
C       0.9329     0.29   0.3708     C
C       0.9329     0.29   0.6292     C
H       0.9536   0.6146   0.3475     H
H       0.9536   0.6146   0.6525     H
O       0.9539   0.1672  0.44199     O
O       0.9539   0.1672  0.55801     O
C       0.9802   0.3636  0.33895     C
C       0.9802   0.3636  0.66105     C
C       0.9898   0.2451  0.41835     C
C       0.9898   0.2451  0.58165     C
