data_I
_chemical_name_common  '/home/zhangsd/repos/MofS-CGCNN/ML/data/SSD/clean_cifs/LIHSIF_clean'
_cell_length_a 13.12330
_cell_length_b 13.12330
_cell_length_c 13.87900
_cell_angle_alpha 89.21440
_cell_angle_beta  89.21440
_cell_angle_gamma 82.75630
_space_group_name_H-M_alt      'P 1'


loop_
_space_group_symop_operation_xyz
  'x, y, z' 

loop_
_atom_site_label
_atom_site_fract_x
_atom_site_fract_y
_atom_site_fract_z
_atom_site_type_symbol
Cd         0.0      0.5      0.5    Cd
H       0.0024    0.022   0.4086     H
H       0.0039   0.6651   0.1287     H
N       0.0119   0.7131   0.3788     N
H       0.0132     0.68   0.6735     H
H       0.0161   0.1481   0.6837     H
H        0.022   0.0024   0.9086     H
C       0.0229   0.9439   0.6487     C
C       0.0295   0.3663   0.2993     C
N       0.0333   0.1099   0.2965     N
Cd     0.03431  0.24527  0.10037    Cd
C       0.0394    0.196   0.6393     C
N       0.0456    0.332   0.5555     N
N       0.0526   0.8808   0.8205     N
N       0.0551   0.4461   0.3457     N
C       0.0561   0.9771   0.8513     C
C       0.0566   0.7062    0.113     C
N       0.0604   0.7598   0.0295     N
N       0.0698   0.3566   0.2097     N
N       0.1099   0.0333   0.7965     N
C       0.1152   0.8848     0.75     C
N       0.1165   0.4929   0.2831     N
N       0.1192   0.9474   0.6795     N
C       0.1234   0.4382   0.2034     C
C       0.1263   0.2651    0.539     C
N       0.1277   0.1775   0.5889     N
N       0.1335   0.7165   0.1703     N
C       0.1471   0.8031   0.0408     C
H       0.1481   0.0161   0.1837     H
H       0.1534   0.8274   0.5065     H
H       0.1617   0.4543   0.1479     H
N        0.163   0.5356    0.538     N
H         0.17     0.83     0.75     H
H       0.1726   0.8466   0.9935     H
Cd      0.1742  0.64864  0.32253    Cd
N       0.1775   0.1277   0.0889     N
H       0.1796    0.278   0.4951     H
H       0.1808   0.5002   0.6787     H
N        0.193   0.7798   0.1229     N
C        0.196   0.0394   0.1393     C
C       0.1969   0.8529   0.4592     C
C       0.2063   0.5327   0.6234     C
N       0.2202    0.807   0.3771     N
N       0.2226   0.5874   0.4776     N
N       0.2402   0.9396   0.4705     N
Cd     0.24527  0.03431  0.60037    Cd
C       0.2651   0.1263    0.039     C
H        0.278   0.1796   0.9951     H
N       0.2835   0.8665   0.3297     N
N       0.2869   0.9881   0.1212     N
N       0.2914   0.5816   0.6235     N
C       0.2938   0.9434    0.387     C
C       0.2973   0.6129   0.5305     C
H         0.32   0.9868   0.8265     H
N        0.332   0.0456   0.0555     N
H       0.3349   0.9961   0.3713     H
N        0.342    0.597   0.2736     N
H       0.3502   0.6496   0.5061     H
H       0.3504   0.6498   0.9939     H
Cd     0.35136   0.8258  0.17747    Cd
N       0.3566   0.0698   0.7097     N
C       0.3663   0.0295   0.7993     C
H        0.375   0.4494   0.3165     H
Cd     0.37546  0.62454     0.75    Cd
C       0.3871   0.7027   0.9695     C
C       0.3993   0.5069   0.2857     C
N        0.403    0.658   0.2264     N
N       0.4126   0.7774   0.0224     N
N       0.4184   0.7086   0.8765     N
C       0.4382   0.1234   0.7034     C
N       0.4461   0.0551   0.8457     N
H       0.4494    0.375   0.8165     H
H       0.4543   0.1617   0.6479     H
N       0.4644    0.837    0.962     N
C       0.4673   0.7937   0.8766     C
N       0.4929   0.1165   0.7831     N
C       0.4931   0.6007   0.2143     C
N       0.4945   0.5055     0.25     N
H       0.4998   0.8192   0.8213     H
Cd         0.5     -0.0     -0.0    Cd
H       0.5002   0.1808   0.1787     H
N       0.5055   0.4945     0.75     N
C       0.5069   0.3993   0.7857     C
N       0.5071   0.8835   0.2169     N
C       0.5327   0.2063   0.1234     C
N       0.5356    0.163    0.038     N
H       0.5457   0.8383   0.3521     H
H       0.5506    0.625   0.1835     H
N       0.5539   0.9449   0.1543     N
C       0.5618   0.8766   0.2966     C
N       0.5816   0.2914   0.1235     N
N       0.5874   0.2226   0.9776     N
N        0.597    0.342   0.7736     N
C       0.6007   0.4931   0.7143     C
C       0.6129   0.2973   0.0305     C
Cd     0.62454  0.37546     0.25    Cd
H        0.625   0.5506   0.6835     H
C       0.6337   0.9705   0.2007     C
N       0.6434   0.9302   0.2903     N
Cd     0.64864   0.1742  0.82253    Cd
H       0.6496   0.3502   0.0061     H
H       0.6498   0.3504   0.4939     H
N        0.658    0.403   0.7264     N
H       0.6651   0.0039   0.6287     H
N        0.668   0.9544   0.9445     N
H         0.68   0.0132   0.1735     H
C       0.7027   0.3871   0.4695     C
C       0.7062   0.0566    0.613     C
N       0.7086   0.4184   0.3765     N
N       0.7131   0.0119   0.8788     N
N       0.7165   0.1335   0.6703     N
H        0.722   0.8204   0.0049     H
C       0.7349   0.8737    0.961     C
Cd     0.75473  0.96569  0.39963    Cd
N       0.7598   0.0604   0.5295     N
N       0.7774   0.4126   0.5224     N
N       0.7798    0.193   0.6229     N
C       0.7937   0.4673   0.3766     C
C       0.8031   0.1471   0.5408     C
C        0.804   0.9606   0.8607     C
N        0.807   0.2202   0.8771     N
H       0.8192   0.4998   0.3213     H
H       0.8204    0.722   0.5049     H
N       0.8225   0.8723   0.9111     N
Cd      0.8258  0.35136  0.67747    Cd
H       0.8274   0.1534   0.0065     H
H         0.83     0.17     0.25     H
N        0.837   0.4644    0.462     N
H       0.8383   0.5457   0.8521     H
H       0.8466   0.1726   0.4935     H
H       0.8519   0.9839   0.8163     H
C       0.8529   0.1969   0.9592     C
N       0.8665   0.2835   0.8297     N
N       0.8723   0.8225   0.4111     N
C       0.8737   0.7349    0.461     C
C       0.8766   0.5618   0.7966     C
N       0.8808   0.0526   0.3205     N
N       0.8835   0.5071   0.7169     N
C       0.8848   0.1152     0.25     C
N       0.8901   0.9667   0.2035     N
N       0.9302   0.6434   0.7903     N
N       0.9396   0.2402   0.9705     N
C       0.9434   0.2938    0.887     C
C       0.9439   0.0229   0.1487     C
N       0.9449   0.5539   0.6543     N
N       0.9474   0.1192   0.1795     N
N       0.9544    0.668   0.4445     N
C       0.9606    0.804   0.3607     C
Cd     0.96569  0.75473  0.89963    Cd
N       0.9667   0.8901   0.7035     N
C       0.9705   0.6337   0.7007     C
C       0.9771   0.0561   0.3513     C
H        0.978   0.9976   0.0914     H
H       0.9839   0.8519   0.3163     H
H       0.9868     0.32   0.3265     H
N       0.9881   0.2869   0.6212     N
H       0.9961   0.3349   0.8713     H
H       0.9976    0.978   0.5914     H
