data_I
_chemical_name_common  '/home/zhangsd/repos/MofS-CGCNN/ML/data/SSD/clean_cifs/LITCIC_clean'
_cell_length_a 11.08000
_cell_length_b 16.58300
_cell_length_c 16.60000
_cell_angle_alpha 68.53300
_cell_angle_beta  89.20800
_cell_angle_gamma 89.16700
_space_group_name_H-M_alt      'P 1'


loop_
_space_group_symop_operation_xyz
  'x, y, z' 

loop_
_atom_site_label
_atom_site_fract_x
_atom_site_fract_y
_atom_site_fract_z
_atom_site_type_symbol
C       0.0004   0.6774   0.4921     C
C       0.0006   0.1518    0.515     C
H       0.0012   0.0949   0.5171     H
C       0.0021   0.5857   0.4964     C
C       0.0247   0.6032    0.037     C
C       0.0351    0.431   0.5761     C
H       0.0369   0.2259   0.7999     H
C       0.0379   0.5204   0.5712     C
H       0.0416   0.6131   0.9773     H
H       0.0607   0.3924   0.9548     H
H       0.0653   0.6457   0.0532     H
H        0.066   0.3079   0.6599     H
O       0.0665   0.5181     0.09     O
C       0.0696   0.3654   0.6554     C
C       0.0788   0.5352   0.6457     C
H       0.0823   0.5919   0.6438     H
H       0.0897   0.5929   0.7808     H
C        0.107   0.3821   0.7241     C
C       0.1082   0.2796   0.5062     C
C       0.1082   0.7217   0.4872     C
C       0.1089   0.8073   0.4831     C
C       0.1104   0.1945   0.5098     C
C       0.1126   0.4705   0.7185     C
C       0.1176   0.2343   0.8154     C
H       0.1308   0.1992   0.8751     H
H       0.1328   0.2758   0.3112     H
O       0.1335   0.3228   0.8029     O
O       0.1427   0.3717   0.1935     O
O        0.157    0.479   0.7915     O
C       0.1679   0.5656   0.7888     C
H       0.1743   0.2179   0.7798     H
H       0.1806   0.3084   0.5027     H
H       0.1812   0.6935   0.4867     H
C       0.1828   0.4991   0.0769     C
C       0.1912    0.295    0.265     C
H       0.2014   0.5647   0.8421     H
H       0.2079   0.2492   0.2439     H
H         0.22   0.5975   0.7415     H
O       0.2233    0.928   0.4754     O
C       0.2246   0.4163   0.1327     C
C       0.2259   0.8506    0.482     C
C        0.229   0.1518   0.5071     C
O       0.2301  0.06977   0.5339     O
H       0.2315   0.6073   0.9806     H
C        0.259    0.553   0.0167     C
H       0.2625   0.9711   0.9397     H
H       0.2643   0.3104    0.286     H
O       0.2831    0.947   0.9065     O
O       0.3009   0.8341    0.029     O
C       0.3126   0.8673   0.9505     C
O       0.3171  0.20051    0.476     O
O       0.3189  0.80585   0.4853     O
C       0.3364   0.3882   0.1219     C
H       0.3394   0.9065    0.779     H
C       0.3516   0.8153   0.8983     C
O       0.3568  0.90845  0.62862     O
C        0.359   0.8485   0.8089     C
H       0.3593   0.3317   0.1551     H
Ni     0.35986  0.99541  0.50342    Ni
C       0.3813   0.5272   0.0082     C
H       0.3868   0.7076   0.0022     H
C        0.387   0.7296    0.942     C
C       0.3951   0.7973    0.763     C
C       0.4081   0.8361   0.6668     C
C       0.4215   0.4431   0.0602     C
C       0.4229   0.6754   0.8977     C
C       0.4254    0.711   0.8084     C
H        0.448   0.6761   0.7777     H
C       0.4606   0.5837   0.9492     C
O       0.4701  0.79492   0.6316     O
O       0.4976  0.06007  0.53487     O
Ni     0.49827  0.81226  0.50446    Ni
H       0.4999   0.0385   0.5983     H
H       0.5001   0.9615   0.4017     H
Ni     0.50173  0.18774  0.49554    Ni
O       0.5024  0.93993  0.46513     O
O       0.5299  0.20508   0.3684     O
C       0.5394   0.4163   0.0508     C
H        0.552   0.3239   0.2223     H
C       0.5746    0.289   0.1916     C
C       0.5771   0.3246   0.1023     C
C       0.5785   0.5569   0.9398     C
C       0.5919   0.1639   0.3332     C
C       0.6049   0.2027    0.237     C
C        0.613   0.2704    0.058     C
H       0.6132   0.2924   0.9978     H
C       0.6187   0.4728   0.9918     C
Ni     0.64014  0.00459  0.49658    Ni
H       0.6407   0.6683   0.8449     H
C        0.641   0.1515   0.1911     C
O       0.6432  0.09155  0.37138     O
C       0.6484   0.1847   0.1017     C
H       0.6606   0.0935    0.221     H
C       0.6636   0.6118   0.8781     C
O       0.6811  0.19415   0.5147     O
O       0.6829  0.79949    0.524     O
C       0.6874   0.1327   0.0495     C
O       0.6991   0.1659    0.971     O
O       0.7169    0.053   0.0935     O
H       0.7357   0.6896    0.714     H
H       0.7375   0.0289   0.0603     H
C        0.741    0.447   0.9833     C
H       0.7685   0.3927   0.0194     H
O       0.7699  0.93023   0.4661     O
C        0.771   0.8482   0.4929     C
C       0.7741   0.1494    0.518     C
C       0.7754   0.5837   0.8673     C
O       0.7767    0.072   0.5246     O
H         0.78   0.4025   0.2585     H
H       0.7921   0.7508   0.7561     H
H       0.7986   0.4353   0.1579     H
C       0.8088    0.705    0.735     C
C       0.8172   0.5009   0.9231     C
H       0.8188   0.3065   0.5133     H
H       0.8194   0.6916   0.4973     H
H       0.8257   0.7821   0.2202     H
C       0.8321   0.4344   0.2112     C
O        0.843    0.521   0.2085     O
O       0.8573   0.6283   0.8065     O
O       0.8665   0.6772   0.1971     O
H       0.8672   0.7242   0.6888     H
H       0.8692   0.8008   0.1249     H
C       0.8824   0.7657   0.1846     C
C       0.8874   0.5295   0.2815     C
C       0.8896   0.8055   0.4902     C
C       0.8911   0.1927   0.5169     C
C       0.8918   0.2783   0.5128     C
C       0.8918   0.7204   0.4938     C
C        0.893   0.6179   0.2759     C
H       0.9103   0.4071   0.2192     H
H       0.9177   0.4081   0.3562     H
C       0.9212   0.4648   0.3543     C
C       0.9304   0.6346   0.3446     C
O       0.9335   0.4819     0.91     O
H        0.934   0.6921   0.3401     H
H       0.9347   0.3543   0.9468     H
H       0.9393   0.6076   0.0452     H
H       0.9584   0.3869   0.0227     H
C       0.9621   0.4796   0.4288     C
H       0.9631   0.7741   0.2001     H
C       0.9649    0.569   0.4239     C
C       0.9753   0.3968    0.963     C
C       0.9979   0.4143   0.5036     C
H       0.9988   0.9051   0.4829     H
C       0.9994   0.8482    0.485     C
C       0.9996   0.3226   0.5079     C
