data_I
_chemical_name_common  '/home/zhangsd/repos/MofS-CGCNN/ML/data/SSD/clean_cifs/LIVREP_clean'
_cell_length_a  7.30530
_cell_length_b 17.50560
_cell_length_c 12.67310
_cell_angle_alpha 90.00000
_cell_angle_beta  90.00000
_cell_angle_gamma 90.00000
_space_group_name_H-M_alt      'P 1'


loop_
_space_group_symop_operation_xyz
  'x, y, z' 

loop_
_atom_site_label
_atom_site_fract_x
_atom_site_fract_y
_atom_site_fract_z
_atom_site_type_symbol
C       0.0022   0.6389   0.1287     C
C       0.0022   0.8611   0.1287     C
C       0.0025  0.56727   0.0613     C
C       0.0025  0.93273   0.0613     C
C       0.0591  0.06963   0.0433     C
C       0.0591  0.43037   0.0433     C
C       0.0647   0.0012   0.1056     C
C       0.0647   0.4988   0.1056     C
H        0.117   0.1841   0.0522     H
H        0.117   0.3159   0.0522     H
C       0.1182  0.13911   0.0921     C
C       0.1182  0.36089   0.0921     C
C       0.1303  0.00628   0.2115     C
C       0.1303  0.49372   0.2115     C
H       0.1348   0.5383   0.2527     H
H       0.1348   0.9617   0.2527     H
O       0.1508  0.16382  0.84353     O
O       0.1508  0.33618  0.84353     O
O        0.156  0.66631  0.14993     O
O        0.156  0.83369  0.14993     O
C       0.1778   0.1404   0.1927     C
C       0.1778   0.3596   0.1927     C
C       0.1851    0.073   0.2533     C
C       0.1851    0.427   0.2533     C
H       0.2154   0.1869   0.2229     H
H       0.2154   0.3131   0.2229     H
H        0.228   0.0749   0.3234     H
H        0.228   0.4251   0.3234     H
Zn      0.2438     0.25  0.74642    Zn
Zn      0.2562     0.75  0.24642    Zn
H        0.272   0.5749   0.8234     H
H        0.272   0.9251   0.8234     H
H       0.2846   0.6869   0.7229     H
H       0.2846   0.8131   0.7229     H
C       0.3149    0.573   0.7533     C
C       0.3149    0.927   0.7533     C
C       0.3222   0.6404   0.6927     C
C       0.3222   0.8596   0.6927     C
O        0.344  0.16631  0.64993     O
O        0.344  0.33369  0.64993     O
O       0.3492  0.66382  0.34353     O
O       0.3492  0.83618  0.34353     O
H       0.3652   0.0383   0.7527     H
H       0.3652   0.4617   0.7527     H
C       0.3697  0.50628   0.7115     C
C       0.3697  0.99372   0.7115     C
C       0.3818  0.63911   0.5921     C
C       0.3818  0.86089   0.5921     C
H        0.383   0.6841   0.5522     H
H        0.383   0.8159   0.5522     H
C       0.4353   0.5012   0.6056     C
C       0.4353   0.9988   0.6056     C
C       0.4409  0.56963   0.5433     C
C       0.4409  0.93037   0.5433     C
C       0.4975  0.06727   0.5613     C
C       0.4975  0.43273   0.5613     C
C       0.4978   0.1389   0.6287     C
C       0.4978   0.3611   0.6287     C
C       0.5022   0.6389   0.3713     C
C       0.5022   0.8611   0.3713     C
C       0.5025  0.56727   0.4387     C
C       0.5025  0.93273   0.4387     C
C       0.5591  0.06963   0.4567     C
C       0.5591  0.43037   0.4567     C
C       0.5647   0.0012   0.3944     C
C       0.5647   0.4988   0.3944     C
H        0.617   0.1841   0.4478     H
H        0.617   0.3159   0.4478     H
C       0.6182  0.13911   0.4079     C
C       0.6182  0.36089   0.4079     C
C       0.6303  0.00628   0.2885     C
C       0.6303  0.49372   0.2885     C
H       0.6348   0.5383   0.2473     H
H       0.6348   0.9617   0.2473     H
O       0.6508  0.16382  0.65647     O
O       0.6508  0.33618  0.65647     O
O        0.656  0.66631  0.35007     O
O        0.656  0.83369  0.35007     O
C       0.6778   0.1404   0.3073     C
C       0.6778   0.3596   0.3073     C
C       0.6851    0.073   0.2467     C
C       0.6851    0.427   0.2467     C
H       0.7154   0.1869   0.2771     H
H       0.7154   0.3131   0.2771     H
H        0.728   0.0749   0.1766     H
H        0.728   0.4251   0.1766     H
Zn      0.7438     0.25  0.75358    Zn
Zn      0.7562     0.75  0.25358    Zn
H        0.772   0.5749   0.6766     H
H        0.772   0.9251   0.6766     H
H       0.7846   0.6869   0.7771     H
H       0.7846   0.8131   0.7771     H
C       0.8149    0.573   0.7467     C
C       0.8149    0.927   0.7467     C
C       0.8222   0.6404   0.8073     C
C       0.8222   0.8596   0.8073     C
O        0.844  0.16631  0.85007     O
O        0.844  0.33369  0.85007     O
O       0.8492  0.66382  0.15647     O
O       0.8492  0.83618  0.15647     O
H       0.8652   0.0383   0.7473     H
H       0.8652   0.4617   0.7473     H
C       0.8697  0.50628   0.7885     C
C       0.8697  0.99372   0.7885     C
C       0.8818  0.63911   0.9079     C
C       0.8818  0.86089   0.9079     C
H        0.883   0.6841   0.9478     H
H        0.883   0.8159   0.9478     H
C       0.9353   0.5012   0.8944     C
C       0.9353   0.9988   0.8944     C
C       0.9409  0.56963   0.9567     C
C       0.9409  0.93037   0.9567     C
C       0.9975  0.06727   0.9387     C
C       0.9975  0.43273   0.9387     C
C       0.9978   0.1389   0.8713     C
C       0.9978   0.3611   0.8713     C
