data_I
_chemical_name_common  '/home/zhangsd/repos/MofS-CGCNN/ML/data/SSD/clean_cifs/LIVTIT_clean'
_cell_length_a 21.61700
_cell_length_b 11.12700
_cell_length_c 16.29400
_cell_angle_alpha 90.00000
_cell_angle_beta  111.61000
_cell_angle_gamma 90.00000
_space_group_name_H-M_alt      'P 1'


loop_
_space_group_symop_operation_xyz
  'x, y, z' 

loop_
_atom_site_label
_atom_site_fract_x
_atom_site_fract_y
_atom_site_fract_z
_atom_site_type_symbol
Cu     0.02464  0.50637  0.82211    Cu
Cu     0.02464  0.99363  0.32211    Cu
N       0.0623   0.5641   0.2193     N
N       0.0623   0.9359   0.7193     N
N       0.0753   0.5893   0.7599     N
N       0.0753   0.9107   0.2599     N
N        0.098   0.0915   0.4058     N
N        0.098   0.4085   0.9058     N
N       0.0989   0.0569   0.9146     N
N       0.0989   0.4431   0.4146     N
C       0.1133   0.6059   0.2374     C
C       0.1133   0.8941   0.7374     C
C       0.1205   0.6415   0.7586     C
C       0.1205   0.8585   0.2586     C
C       0.1462   0.1392   0.4424     C
C       0.1462   0.3608   0.9424     C
C       0.1482   0.1067   0.9489     C
C       0.1482   0.3933   0.4489     C
C       0.1763   0.6653   0.2563     C
C       0.1763   0.8347   0.7563     C
C       0.1795   0.7076   0.7625     C
C       0.1795   0.7924   0.2625     C
C       0.2082    0.202   0.4902     C
C       0.2082    0.298   0.9902     C
C       0.2085   0.1731   0.9941     C
C       0.2085   0.3269   0.4941     C
C       0.2336   0.6001   0.2679     C
C       0.2336   0.8999   0.7679     C
C       0.2379   0.6491   0.7782     C
C       0.2379   0.8509   0.2782     C
C        0.266   0.1127   0.0415     C
C        0.266   0.3873   0.5415     C
C       0.2662   0.1371   0.5308     C
C       0.2662   0.3629   0.0308     C
C        0.293   0.6594   0.2869     C
C        0.293   0.8406   0.7869     C
C       0.2949   0.7148   0.7893     C
C       0.2949   0.7852   0.2893     C
C       0.3238   0.1761   0.0836     C
C       0.3238   0.3239   0.5836     C
C       0.3243   0.1982   0.5775     C
C       0.3243   0.3018   0.0775     C
C        0.354   0.5935   0.3002     C
C        0.354   0.9065   0.8002     C
C       0.3569   0.6519   0.8056     C
C       0.3569   0.8481   0.3056     C
C       0.3833   0.1147     0.14     C
C       0.3833   0.3853     0.64     C
C       0.3854   0.1315   0.6206     C
C       0.3854   0.3685   0.1206     C
N       0.4031   0.5449   0.3141     N
N       0.4031   0.9551   0.8141     N
N       0.4059   0.6036   0.8172     N
N       0.4059   0.8964   0.3172     N
N        0.429   0.0675   0.1882     N
N        0.429   0.4325   0.6882     N
N       0.4345   0.0833   0.6525     N
N       0.4345   0.4167   0.1525     N
Cu     0.47971  0.50792  0.80334    Cu
Cu     0.47971  0.99208  0.30334    Cu
Cu     0.52029  0.00792  0.69666    Cu
Cu     0.52029  0.49208  0.19666    Cu
N       0.5655   0.5833   0.8475     N
N       0.5655   0.9167   0.3475     N
N        0.571   0.5675   0.3118     N
N        0.571   0.9325   0.8118     N
N       0.5941   0.1036   0.6828     N
N       0.5941   0.3964   0.1828     N
N       0.5969   0.0449   0.1859     N
N       0.5969   0.4551   0.6859     N
C       0.6146   0.6315   0.8794     C
C       0.6146   0.8685   0.3794     C
C       0.6167   0.6147     0.36     C
C       0.6167   0.8853     0.86     C
C       0.6431   0.1519   0.6944     C
C       0.6431   0.3481   0.1944     C
C        0.646   0.0935   0.1998     C
C        0.646   0.4065   0.6998     C
C       0.6757   0.6982   0.9225     C
C       0.6757   0.8018   0.4225     C
C       0.6762   0.6761   0.4164     C
C       0.6762   0.8239   0.9164     C
C       0.7051   0.2148   0.7107     C
C       0.7051   0.2852   0.2107     C
C        0.707   0.1594   0.2131     C
C        0.707   0.3406   0.7131     C
C       0.7338   0.6371   0.9692     C
C       0.7338   0.8629   0.4692     C
C        0.734   0.6127   0.4585     C
C        0.734   0.8873   0.9585     C
C       0.7621   0.1491   0.7218     C
C       0.7621   0.3509   0.2218     C
C       0.7664   0.1001   0.2321     C
C       0.7664   0.3999   0.7321     C
C       0.7915   0.6731   0.5059     C
C       0.7915   0.8269   0.0059     C
C       0.7918    0.702   0.0098     C
C       0.7918    0.798   0.5098     C
C       0.8205   0.2076   0.7375     C
C       0.8205   0.2924   0.2375     C
C       0.8237   0.1653   0.2437     C
C       0.8237   0.3347   0.7437     C
C       0.8518   0.6067   0.5511     C
C       0.8518   0.8933   0.0511     C
C       0.8538   0.6392   0.0576     C
C       0.8538   0.8608   0.5576     C
C       0.8795   0.1415   0.7414     C
C       0.8795   0.3585   0.2414     C
C       0.8867   0.1059   0.2626     C
C       0.8867   0.3941   0.7626     C
N       0.9011   0.5569   0.5854     N
N       0.9011   0.9431   0.0854     N
N        0.902   0.5915   0.0942     N
N        0.902   0.9085   0.5942     N
N       0.9247   0.0893   0.7401     N
N       0.9247   0.4107   0.2401     N
N       0.9377   0.0641   0.2807     N
N       0.9377   0.4359   0.7807     N
Cu     0.97536  0.00637  0.67789    Cu
Cu     0.97536  0.49363  0.17789    Cu
