data_I
_chemical_name_common  '/home/zhangsd/repos/MofS-CGCNN/ML/data/SSD/clean_cifs/LIXWEV_clean'
_cell_length_a 13.48600
_cell_length_b 13.48600
_cell_length_c 18.31000
_cell_angle_alpha 90.00000
_cell_angle_beta  90.00000
_cell_angle_gamma 120.00000
_space_group_name_H-M_alt      'P 1'


loop_
_space_group_symop_operation_xyz
  'x, y, z' 

loop_
_atom_site_label
_atom_site_fract_x
_atom_site_fract_y
_atom_site_fract_z
_atom_site_type_symbol
Fe         0.0      0.0      0.0    Fe
Fe         0.0      0.0     0.25    Fe
Fe         0.0      0.0      0.5    Fe
Fe         0.0      0.0     0.75    Fe
O       0.0024   0.4261   0.5759     O
O       0.0024   0.5763   0.0759     O
O       0.0162   0.1308  0.56185     O
O       0.0162   0.8854  0.06185     O
P      0.03102  0.18893   0.8708     P
P      0.03102  0.84209   0.3708     P
H       0.0321   0.2273   0.6509     H
H       0.0321   0.8048   0.1509     H
O       0.0659   0.1405  0.31224     O
O       0.0659   0.9254  0.81224     O
O       0.0746   0.1405  0.81224     O
O       0.0746   0.9341  0.31224     O
O       0.1146   0.1308  0.06185     O
O       0.1146   0.9838  0.56185     O
O       0.1259   0.3107    0.889     O
O       0.1259   0.8152    0.389     O
P      0.12715  0.49522   0.5528     P
P      0.12715  0.63193   0.0528     P
O       0.1308   0.0162  0.93815     O
O       0.1308   0.1146  0.43815     O
O       0.1405   0.0659  0.18776     O
O       0.1405   0.0746  0.68776     O
Fe     0.14381  0.43733  0.95609    Fe
Fe     0.14381  0.70648  0.45609    Fe
O       0.1513   0.4335   0.4917     O
O       0.1513   0.7178   0.9917     O
P      0.15791  0.18893   0.3708     P
P      0.15791  0.96898   0.8708     P
O       0.1641   0.5458   0.0351     O
O       0.1641   0.6183   0.5351     O
H       0.1729   0.4969   0.5949     H
H       0.1729    0.676   0.0949     H
O       0.1848   0.3107    0.389     O
O       0.1848   0.8741    0.889     O
P      0.18893  0.03102   0.6292     P
P      0.18893  0.15791   0.1292     P
H       0.1952   0.2273   0.1509     H
H       0.1952   0.9679   0.6509     H
H       0.2273   0.0321   0.8491     H
H       0.2273   0.1952   0.3491     H
O       0.2275   0.5556  0.88063     O
O       0.2275   0.6719  0.38063     O
O       0.2822   0.4335   0.9917     O
O       0.2822   0.8487   0.4917     O
Fe     0.29352  0.43733  0.45609    Fe
Fe     0.29352  0.85619  0.95609    Fe
O       0.3107   0.1259    0.611     O
O       0.3107   0.1848    0.111     O
H        0.324   0.4969   0.0949     H
H        0.324   0.8271   0.5949     H
O       0.3281   0.5556  0.38063     O
O       0.3281   0.7725  0.88063     O
P      0.33333  0.66667  0.36092     P
P      0.33333  0.66667  0.86092     P
P      0.36807  0.49522   0.0528     P
P      0.36807  0.87285   0.5528     P
O       0.3817   0.5458   0.5351     O
O       0.3817   0.8359   0.0351     O
O       0.4237   0.4261   0.0759     O
O       0.4237   0.9976   0.5759     O
O       0.4261   0.0024   0.9241     O
O       0.4261   0.4237   0.4241     O
O       0.4335   0.1513   0.0083     O
O       0.4335   0.2822   0.5083     O
Fe     0.43733  0.14381  0.54391    Fe
Fe     0.43733  0.29352  0.04391    Fe
O       0.4444   0.6719  0.88063     O
O       0.4444   0.7725  0.38063     O
O       0.4542   0.6183   0.0351     O
O       0.4542   0.8359   0.5351     O
P      0.49522  0.12715   0.9472     P
P      0.49522  0.36807   0.4472     P
H       0.4969   0.1729   0.9051     H
H       0.4969    0.324   0.4051     H
H       0.5031    0.676   0.5949     H
H       0.5031   0.8271   0.0949     H
P      0.50478  0.63193   0.5528     P
P      0.50478  0.87285   0.0528     P
O       0.5458   0.1641   0.4649     O
O       0.5458   0.3817   0.9649     O
O       0.5556   0.2275  0.61937     O
O       0.5556   0.3281  0.11937     O
Fe     0.56267  0.70648  0.95609    Fe
Fe     0.56267  0.85619  0.45609    Fe
O       0.5665   0.7178   0.4917     O
O       0.5665   0.8487   0.9917     O
O       0.5739   0.5763   0.5759     O
O       0.5739   0.9976   0.0759     O
O       0.5763   0.0024   0.4241     O
O       0.5763   0.5739   0.9241     O
O       0.6183   0.1641   0.9649     O
O       0.6183   0.4542   0.4649     O
P      0.63193  0.12715   0.4472     P
P      0.63193  0.50478   0.9472     P
P      0.66667  0.33333  0.13908     P
P      0.66667  0.33333  0.63908     P
O       0.6719   0.2275  0.11937     O
O       0.6719   0.4444  0.61937     O
H        0.676   0.1729   0.4051     H
H        0.676   0.5031   0.9051     H
O       0.6893   0.8152    0.889     O
O       0.6893   0.8741    0.389     O
Fe     0.70648  0.14381  0.04391    Fe
Fe     0.70648  0.56267  0.54391    Fe
O       0.7178   0.1513   0.5083     O
O       0.7178   0.5665   0.0083     O
O       0.7725   0.3281  0.61937     O
O       0.7725   0.4444  0.11937     O
H       0.7727   0.8048   0.6509     H
H       0.7727   0.9679   0.1509     H
H       0.8048   0.0321   0.3491     H
H       0.8048   0.7727   0.8491     H
P      0.81107  0.84209   0.8708     P
P      0.81107  0.96898   0.3708     P
O       0.8152   0.1259    0.111     O
O       0.8152   0.6893    0.611     O
H       0.8271    0.324   0.9051     H
H       0.8271   0.5031   0.4051     H
O       0.8359   0.3817   0.4649     O
O       0.8359   0.4542   0.9649     O
P      0.84209  0.03102   0.1292     P
P      0.84209  0.81107   0.6292     P
O       0.8487   0.2822   0.0083     O
O       0.8487   0.5665   0.5083     O
Fe     0.85619  0.29352  0.54391    Fe
Fe     0.85619  0.56267  0.04391    Fe
O       0.8595   0.9254  0.31224     O
O       0.8595   0.9341  0.81224     O
O       0.8692   0.8854  0.56185     O
O       0.8692   0.9838  0.06185     O
P      0.87285  0.36807   0.9472     P
P      0.87285  0.50478   0.4472     P
O       0.8741   0.1848    0.611     O
O       0.8741   0.6893    0.111     O
O       0.8854   0.0162  0.43815     O
O       0.8854   0.8692  0.93815     O
O       0.9254   0.0659  0.68776     O
O       0.9254   0.8595  0.18776     O
O       0.9341   0.0746  0.18776     O
O       0.9341   0.8595  0.68776     O
H       0.9679   0.1952   0.8491     H
H       0.9679   0.7727   0.3491     H
P      0.96898  0.15791   0.6292     P
P      0.96898  0.81107   0.1292     P
O       0.9838   0.1146  0.93815     O
O       0.9838   0.8692  0.43815     O
O       0.9976   0.4237   0.9241     O
O       0.9976   0.5739   0.4241     O
