data_I
_chemical_name_common  '/home/zhangsd/repos/MofS-CGCNN/ML/data/SSD/clean_cifs/LOGBEO_clean'
_cell_length_a 18.69100
_cell_length_b 18.69100
_cell_length_c  9.42300
_cell_angle_alpha 90.00000
_cell_angle_beta  90.00000
_cell_angle_gamma 90.00000
_space_group_name_H-M_alt      'P 1'


loop_
_space_group_symop_operation_xyz
  'x, y, z' 

loop_
_atom_site_label
_atom_site_fract_x
_atom_site_fract_y
_atom_site_fract_z
_atom_site_type_symbol
O        5e-05   0.1541   0.9886     O
O      0.00287  0.36289   0.2784     O
O      0.00461  0.48359   0.6786     O
O      0.01258  0.87122   0.7062     O
O      0.01476  0.34356   0.0164     O
O      0.01641  0.00461   0.6786     O
Al     0.04419  0.16393  0.15605    Al
P      0.05034  0.33359  0.16022     P
Al     0.05065  0.56577  0.66541    Al
P       0.0572  0.93511  0.66442     P
O      0.05926  0.62405   0.2451     O
O      0.06064  0.86991   0.2391     O
O      0.06258  0.25539   0.1912     O
P      0.06489   0.5572  0.33558     P
Al     0.06521  0.66548  0.08049    Al
Al     0.06577  0.94935  0.33459    Al
P      0.06733  0.83418  0.09549     P
O      0.07494  0.58091   0.4891     O
O      0.08017  0.75543   0.1223     O
O      0.08091  0.92506   0.5109     O
O      0.12185  0.37084   0.1574     O
O      0.12405  0.94074   0.7549     O
O      0.12878  0.51258   0.2938     O
O      0.12916  0.12185   0.1574     O
O      0.13009  0.56064   0.7609     O
O      0.13261  0.86198    0.017     O
O      0.13711  0.00287   0.2784     O
O      0.13802  0.63261    0.983     O
O       0.1541  0.49995   0.9886     O
O      0.15644  0.01476   0.0164     O
Al     0.16393  0.45581  0.15605    Al
Al     0.16548  0.93479  0.91951    Al
P      0.16582  0.56733  0.90451     P
P      0.16641  0.05034  0.16022     P
O      0.24457  0.58017   0.8777     O
O      0.24461  0.06258   0.1912     O
O      0.25539  0.43742   0.1912     O
O      0.25543  0.91983   0.8777     O
P      0.33359  0.44966  0.16022     P
P      0.33418  0.93267  0.90451     P
Al     0.33452  0.56521  0.91951    Al
Al     0.33607  0.04419  0.15605    Al
O      0.34356  0.48524   0.0164     O
O       0.3459    5e-05   0.9886     O
O      0.36198  0.86739    0.983     O
O      0.36289  0.49713   0.2784     O
O      0.36739  0.63802    0.017     O
O      0.36991  0.93936   0.7609     O
O      0.37084  0.37815   0.1574     O
O      0.37122  0.98742   0.2938     O
O      0.37595  0.55926   0.7549     O
O      0.37815  0.12916   0.1574     O
O      0.41909  0.57494   0.5109     O
O      0.41983  0.74457   0.1223     O
O      0.42506  0.91909   0.4891     O
P      0.43267  0.66582  0.09549     P
Al     0.43423  0.55065  0.33459    Al
Al     0.43479  0.83452  0.08049    Al
P      0.43511   0.9428  0.33558     P
O      0.43742  0.24461   0.1912     O
O      0.43936  0.63009   0.2391     O
O      0.44074  0.87595   0.2451     O
P       0.4428  0.56489  0.66442     P
Al     0.44935  0.93423  0.66541    Al
P      0.44966  0.16641  0.16022     P
Al     0.45581  0.33607  0.15605    Al
O      0.48359  0.49539   0.6786     O
O      0.48524  0.15644   0.0164     O
O      0.48742  0.62878   0.7062     O
O      0.49539  0.01641   0.6786     O
O      0.49713  0.13711   0.2784     O
O      0.49995   0.3459   0.9886     O
O      0.50005   0.6541   0.0114     O
O      0.50287  0.86289   0.7216     O
O      0.50461  0.98359   0.3214     O
O      0.51258  0.37122   0.2938     O
O      0.51476  0.84356   0.9836     O
O      0.51641  0.50461   0.3214     O
Al     0.54419  0.66393  0.84395    Al
P      0.55034  0.83359  0.83978     P
Al     0.55065  0.06577  0.33459    Al
P       0.5572  0.43511  0.33558     P
O      0.55926  0.12405   0.7549     O
O      0.56064  0.36991   0.7609     O
O      0.56258  0.75539   0.8088     O
P      0.56489   0.0572  0.66442     P
Al     0.56521  0.16548  0.91951    Al
Al     0.56577  0.44935  0.66541    Al
P      0.56733  0.33418  0.90451     P
O      0.57494  0.08091   0.5109     O
O      0.58017  0.25543   0.8777     O
O      0.58091  0.42506   0.4891     O
O      0.62185  0.87084   0.8426     O
O      0.62405  0.44074   0.2451     O
O      0.62878  0.01258   0.7062     O
O      0.62916  0.62185   0.8426     O
O      0.63009  0.06064   0.2391     O
O      0.63261  0.36198    0.983     O
O      0.63711  0.50287   0.7216     O
O      0.63802  0.13261    0.017     O
O       0.6541  0.99995   0.0114     O
O      0.65644  0.51476   0.9836     O
Al     0.66393  0.95581  0.84395    Al
Al     0.66548  0.43479  0.08049    Al
P      0.66582  0.06733  0.09549     P
P      0.66641  0.55034  0.83978     P
O      0.74457  0.08017   0.1223     O
O      0.74461  0.56258   0.8088     O
O      0.75539  0.93742   0.8088     O
O      0.75543  0.41983   0.1223     O
P      0.83359  0.94966  0.83978     P
P      0.83418  0.43267  0.09549     P
Al     0.83452  0.06521  0.08049    Al
Al     0.83607  0.54419  0.84395    Al
O      0.84356  0.98524   0.9836     O
O       0.8459  0.50005   0.0114     O
O      0.86198  0.36739    0.017     O
O      0.86289  0.99713   0.7216     O
O      0.86739  0.13802    0.983     O
O      0.86991  0.43936   0.2391     O
O      0.87084  0.87815   0.8426     O
O      0.87122  0.48742   0.7062     O
O      0.87595  0.05926   0.2451     O
O      0.87815  0.62916   0.8426     O
O      0.91909  0.07494   0.4891     O
O      0.91983  0.24457   0.8777     O
O      0.92506  0.41909   0.5109     O
P      0.93267  0.16582  0.90451     P
Al     0.93423  0.05065  0.66541    Al
Al     0.93479  0.33452  0.91951    Al
P      0.93511   0.4428  0.66442     P
O      0.93742  0.74461   0.8088     O
O      0.93936  0.13009   0.7609     O
O      0.94074  0.37595   0.7549     O
P       0.9428  0.06489  0.33558     P
Al     0.94935  0.43423  0.33459    Al
P      0.94966  0.66641  0.83978     P
Al     0.95581  0.83607  0.84395    Al
O      0.98359  0.99539   0.3214     O
O      0.98524  0.65644   0.9836     O
O      0.98742  0.12878   0.2938     O
O      0.99539  0.51641   0.3214     O
O      0.99713  0.63711   0.7216     O
O      0.99995   0.8459   0.0114     O
