data_I
_chemical_name_common  '/home/zhangsd/repos/MofS-CGCNN/ML/data/SSD/clean_cifs/LOGBAK_clean'
_cell_length_a 18.74000
_cell_length_b 18.74000
_cell_length_c  9.43900
_cell_angle_alpha 90.00000
_cell_angle_beta  90.00000
_cell_angle_gamma 90.00000
_space_group_name_H-M_alt      'P 1'


loop_
_space_group_symop_operation_xyz
  'x, y, z' 

loop_
_atom_site_label
_atom_site_fract_x
_atom_site_fract_y
_atom_site_fract_z
_atom_site_type_symbol
O       0.0002    0.863   0.7176     O
O       0.0008   0.3456    0.994     O
O       0.0051   0.0129   0.6802     O
O       0.0097   0.6306   0.7091     O
O       0.0127    0.156   0.0114     O
O       0.0129   0.4949   0.6802     O
Al     0.04526  0.33583   0.1571    Al
P        0.049   0.1663   0.1596     P
Al     0.05131   0.9339    0.665    Al
P      0.05544   0.5651   0.6639     P
O       0.0599   0.8766   0.2431     O
O       0.0602   0.6278   0.2396     O
O       0.0639   0.2476   0.1914     O
P       0.0651  0.94456   0.3361     P
Al       0.066   0.8344   0.0833    Al
Al      0.0661  0.55131    0.335    Al
P       0.0675   0.6661   0.0924     P
O       0.0745   0.9197   0.4942     O
O         0.08    0.747   0.1255     O
O       0.0803   0.5745   0.5058     O
O       0.1214   0.1265   0.1555     O
O       0.1234   0.5599   0.7569     O
O       0.1265   0.3786   0.1555     O
O       0.1278   0.9398   0.7604     O
O       0.1306   0.9903   0.2909     O
O       0.1332   0.6365   0.0096     O
O       0.1365   0.8668   0.9904     O
O        0.137   0.5002   0.2824     O
O       0.1544   0.0008    0.994     O
O        0.156   0.4873   0.0114     O
Al     0.16417  0.04526   0.1571    Al
Al      0.1656    0.566   0.9167    Al
P       0.1661   0.9325   0.9076     P
P       0.1663    0.451   0.1596     P
O        0.247     0.92   0.8745     O
O       0.2476   0.4361   0.1914     O
O       0.2524   0.0639   0.1914     O
O        0.253     0.58   0.8745     O
P       0.3337    0.049   0.1596     P
P       0.3339   0.5675   0.9076     P
Al      0.3344    0.934   0.9167    Al
Al     0.33583  0.45474   0.1571    Al
O        0.344   0.0127   0.0114     O
O       0.3456   0.4992    0.994     O
O        0.363   0.9998   0.2824     O
O       0.3635   0.6332   0.9904     O
O       0.3668   0.8635   0.0096     O
O       0.3694   0.5097   0.2909     O
O       0.3722   0.5602   0.7604     O
O       0.3735   0.1214   0.1555     O
O       0.3766   0.9401   0.7569     O
O       0.3786   0.3735   0.1555     O
O       0.4197   0.9255   0.5058     O
O         0.42    0.753   0.1255     O
O       0.4255   0.5803   0.4942     O
P       0.4325   0.8339   0.0924     P
Al      0.4339  0.94869    0.335    Al
Al       0.434   0.6656   0.0833    Al
P       0.4349  0.55544   0.3361     P
O       0.4361   0.2524   0.1914     O
O       0.4398   0.8722   0.2396     O
O       0.4401   0.6234   0.2431     O
P      0.44456   0.9349   0.6639     P
Al     0.44869   0.5661    0.665    Al
P        0.451   0.3337   0.1596     P
Al     0.45474  0.16417   0.1571    Al
O       0.4871   0.0051   0.6802     O
O       0.4873    0.344   0.0114     O
O       0.4903   0.8694   0.7091     O
O       0.4949   0.4871   0.6802     O
O       0.4992   0.1544    0.994     O
O       0.4998    0.637   0.7176     O
O       0.5002    0.363   0.2824     O
O       0.5008   0.8456    0.006     O
O       0.5051   0.5129   0.3198     O
O       0.5097   0.1306   0.2909     O
O       0.5127    0.656   0.9886     O
O       0.5129   0.9949   0.3198     O
Al     0.54526  0.83583   0.8429    Al
P        0.549   0.6663   0.8404     P
Al     0.55131   0.4339    0.335    Al
P      0.55544   0.0651   0.3361     P
O       0.5599   0.3766   0.7569     O
O       0.5602   0.1278   0.7604     O
O       0.5639   0.7476   0.8086     O
P       0.5651  0.44456   0.6639     P
Al       0.566   0.3344   0.9167    Al
Al      0.5661  0.05131    0.665    Al
P       0.5675   0.1661   0.9076     P
O       0.5745   0.4197   0.5058     O
O         0.58    0.247   0.8745     O
O       0.5803   0.0745   0.4942     O
O       0.6214   0.6265   0.8445     O
O       0.6234   0.0599   0.2431     O
O       0.6265   0.8786   0.8445     O
O       0.6278   0.4398   0.2396     O
O       0.6306   0.4903   0.7091     O
O       0.6332   0.1365   0.9904     O
O       0.6365   0.3668   0.0096     O
O        0.637   0.0002   0.7176     O
O       0.6544   0.5008    0.006     O
O        0.656   0.9873   0.9886     O
Al     0.66417  0.54526   0.8429    Al
Al      0.6656    0.066   0.0833    Al
P       0.6661   0.4325   0.0924     P
P       0.6663    0.951   0.8404     P
O        0.747     0.42   0.1255     O
O       0.7476   0.9361   0.8086     O
O       0.7524   0.5639   0.8086     O
O        0.753     0.08   0.1255     O
P       0.8337    0.549   0.8404     P
P       0.8339   0.0675   0.0924     P
Al      0.8344    0.434   0.0833    Al
Al     0.83583  0.95474   0.8429    Al
O        0.844   0.5127   0.9886     O
O       0.8456   0.9992    0.006     O
O        0.863   0.4998   0.7176     O
O       0.8635   0.1332   0.0096     O
O       0.8668   0.3635   0.9904     O
O       0.8694   0.0097   0.7091     O
O       0.8722   0.0602   0.2396     O
O       0.8735   0.6214   0.8445     O
O       0.8766   0.4401   0.2431     O
O       0.8786   0.8735   0.8445     O
O       0.9197   0.4255   0.4942     O
O         0.92    0.253   0.8745     O
O       0.9255   0.0803   0.5058     O
P       0.9325   0.3339   0.9076     P
Al      0.9339  0.44869    0.665    Al
Al       0.934   0.1656   0.9167    Al
P       0.9349  0.05544   0.6639     P
O       0.9361   0.7524   0.8086     O
O       0.9398   0.3722   0.7604     O
O       0.9401   0.1234   0.7569     O
P      0.94456   0.4349   0.3361     P
Al     0.94869   0.0661    0.335    Al
P        0.951   0.8337   0.8404     P
Al     0.95474  0.66417   0.8429    Al
O       0.9871   0.5051   0.3198     O
O       0.9873    0.844   0.9886     O
O       0.9903   0.3694   0.2909     O
O       0.9949   0.9871   0.3198     O
O       0.9992   0.6544    0.006     O
O       0.9998    0.137   0.2824     O
