data_I
_chemical_name_common  '/home/zhangsd/repos/MofS-CGCNN/ML/data/SSD/clean_cifs/LOSBOM_clean'
_cell_length_a 11.06400
_cell_length_b 15.95700
_cell_length_c 23.36200
_cell_angle_alpha 90.00000
_cell_angle_beta  92.26500
_cell_angle_gamma 90.00000
_space_group_name_H-M_alt      'P 1'


loop_
_space_group_symop_operation_xyz
  'x, y, z' 

loop_
_atom_site_label
_atom_site_fract_x
_atom_site_fract_y
_atom_site_fract_z
_atom_site_type_symbol
C        0.003   0.0388   0.0152     C
C        0.003   0.4612   0.5152     C
C        0.013    0.189   0.0753     C
C        0.013    0.311   0.5753     C
H       0.0159   0.2391   0.0956     H
H       0.0159   0.2609   0.5956     H
C       0.0794   0.6774   0.4652     C
C       0.0794   0.8226   0.9652     C
C       0.0887   0.6006   0.4942     C
C       0.0887   0.8994   0.9942     C
C       0.1014   0.0541   0.0555     C
C       0.1014   0.4459   0.5555     C
C       0.1025    0.129   0.0875     C
C       0.1025    0.371   0.5875     C
H       0.1647   0.7493   0.0622     H
H       0.1647   0.7507   0.5622     H
C       0.1655   0.7468   0.4756     C
C       0.1655   0.7532   0.9756     C
C       0.1915   0.5791   0.5311     C
C       0.1915   0.9209   0.0311     C
H       0.1928   0.7311   0.8925     H
H       0.1928   0.7689   0.3925     H
C       0.1956   0.1484   0.1331     C
C       0.1956   0.3516   0.6331     C
C       0.1969   0.5064   0.5598     C
C       0.1969   0.9936   0.0598     C
C       0.1976    0.724   0.0304     C
C       0.1976    0.776   0.5304     C
H       0.2041   0.0345   0.1708     H
H       0.2041   0.4655   0.6708     H
C       0.2144   0.7132   0.9294     C
C       0.2144   0.7868   0.4294     C
H       0.2186   0.2313   0.6106     H
H       0.2186   0.2687   0.1106     H
C       0.2356   0.0885   0.1728     C
C       0.2356   0.4115   0.6728     C
C       0.2439   0.2284   0.1371     C
C       0.2439   0.2716   0.6371     C
H       0.2556   0.6166   0.5352     H
H       0.2556   0.8834   0.0352     H
H       0.2649   0.0052   0.0832     H
H       0.2649   0.4948   0.5832     H
O       0.2735   0.6668   0.1393     O
O       0.2735   0.8332   0.6393     O
C       0.2779    0.658   0.0383     C
C       0.2779    0.842   0.5383     C
C       0.2947   0.6472   0.9366     C
C       0.2947   0.8528   0.4366     C
O        0.309   0.6341   0.8378     O
O        0.309   0.8659   0.3378     O
C       0.3135   0.6274   0.0978     C
C       0.3135   0.8726   0.5978     C
C       0.3225   0.1087   0.2156     C
C       0.3225   0.3913   0.7156     C
C        0.327   0.6197   0.9914     C
C        0.327   0.8803   0.4914     C
C       0.3283   0.2496   0.1794     C
C       0.3283   0.2504   0.6794     C
O       0.3345   0.1118   0.6432     O
O       0.3345   0.3882   0.1432     O
O       0.3478   0.5339   0.7389     O
O       0.3478   0.9661   0.2389     O
C       0.3492   0.6084   0.8853     C
C       0.3492   0.8916   0.3853     C
Mg      0.3587  0.65324  0.75929    Mg
Mg      0.3587  0.84676  0.25929    Mg
C       0.3678   0.1897   0.2197     C
C       0.3678   0.3103   0.7197     C
C       0.3734   0.0405   0.2541     C
C       0.3734   0.4595   0.7541     C
C       0.3784   0.1629   0.6793     C
C       0.3784   0.3371   0.1793     C
O        0.379   0.5655  0.10138     O
O        0.379   0.9345  0.60138     O
H       0.3814   0.5758   0.9966     H
H       0.3814   0.9242   0.4966     H
H       0.4236    0.204   0.2489     H
H       0.4236    0.296   0.7489     H
O       0.4307   0.5552  0.89296     O
O       0.4307   0.9448  0.39296     O
O       0.4386   0.0609   0.2951     O
O       0.4386   0.4391   0.7951     O
Mg     0.44725   0.0109  0.66054    Mg
Mg     0.44725   0.4891  0.16054    Mg
O        0.461   0.1429   0.7149     O
O        0.461   0.3571   0.2149     O
O        0.539   0.6429   0.7851     O
O        0.539   0.8571   0.2851     O
Mg     0.55275   0.5109  0.83946    Mg
Mg     0.55275   0.9891  0.33946    Mg
O       0.5614   0.5609   0.2049     O
O       0.5614   0.9391   0.7049     O
O       0.5693   0.0552  0.60704     O
O       0.5693   0.4448  0.10704     O
H       0.5764    0.704   0.2511     H
H       0.5764    0.796   0.7511     H
H       0.6186   0.0758   0.5034     H
H       0.6186   0.4242   0.0034     H
O        0.621   0.0655  0.39862     O
O        0.621   0.4345  0.89862     O
C       0.6216   0.6629   0.8207     C
C       0.6216   0.8371   0.3207     C
C       0.6266   0.5405   0.2459     C
C       0.6266   0.9595   0.7459     C
C       0.6322   0.6897   0.2803     C
C       0.6322   0.8103   0.7803     C
Mg      0.6413  0.15324  0.74071    Mg
Mg      0.6413  0.34676  0.24071    Mg
C       0.6508   0.1084   0.6147     C
C       0.6508   0.3916   0.1147     C
O       0.6522   0.0339   0.7611     O
O       0.6522   0.4661   0.2611     O
O       0.6655   0.6118   0.8568     O
O       0.6655   0.8882   0.3568     O
C       0.6717   0.7496   0.3206     C
C       0.6717   0.7504   0.8206     C
C        0.673   0.1197   0.5086     C
C        0.673   0.3803   0.0086     C
C       0.6775   0.6087   0.2844     C
C       0.6775   0.8913   0.7844     C
C       0.6865   0.1274   0.4022     C
C       0.6865   0.3726   0.9022     C
O        0.691   0.1341   0.6622     O
O        0.691   0.3659   0.1622     O
C       0.7053   0.1472   0.5634     C
C       0.7053   0.3528   0.0634     C
C       0.7221    0.158   0.4617     C
C       0.7221    0.342   0.9617     C
O       0.7265   0.1668   0.3607     O
O       0.7265   0.3332   0.8607     O
H       0.7351   0.5052   0.4168     H
H       0.7351   0.9948   0.9168     H
H       0.7444   0.1166   0.9648     H
H       0.7444   0.3834   0.4648     H
C       0.7561   0.7284   0.3629     C
C       0.7561   0.7716   0.8629     C
C       0.7644   0.5885   0.3272     C
C       0.7644   0.9115   0.8272     C
H       0.7814   0.7313   0.8894     H
H       0.7814   0.7687   0.3894     H
C       0.7856   0.2132   0.5706     C
C       0.7856   0.2868   0.0706     C
H       0.7959   0.5345   0.3292     H
H       0.7959   0.9655   0.8292     H
C       0.8024    0.224   0.4696     C
C       0.8024    0.276   0.9696     C
C       0.8031   0.0064   0.9402     C
C       0.8031   0.4936   0.4402     C
C       0.8044   0.6484   0.3669     C
C       0.8044   0.8516   0.8669     C
H       0.8072   0.2311   0.6075     H
H       0.8072   0.2689   0.1075     H
C       0.8085   0.0791   0.9689     C
C       0.8085   0.4209   0.4689     C
C       0.8345   0.2468   0.0244     C
C       0.8345   0.2532   0.5244     C
H       0.8353   0.2493   0.4378     H
H       0.8353   0.2507   0.9378     H
C       0.8975    0.629   0.4125     C
C       0.8975    0.871   0.9125     C
C       0.8986   0.5541   0.4445     C
C       0.8986   0.9459   0.9445     C
C       0.9113   0.1006   0.0058     C
C       0.9113   0.3994   0.5058     C
C       0.9206   0.1774   0.0348     C
C       0.9206   0.3226   0.5348     C
H       0.9841   0.7391   0.4044     H
H       0.9841   0.7609   0.9044     H
C        0.987    0.689   0.4247     C
C        0.987    0.811   0.9247     C
C        0.997   0.5388   0.4848     C
C        0.997   0.9612   0.9848     C
