data_I
_chemical_name_common  '/home/zhangsd/repos/MofS-CGCNN/ML/data/SSD/clean_cifs/LUNBIF_clean'
_cell_length_a 11.03550
_cell_length_b 15.69300
_cell_length_c 16.91400
_cell_angle_alpha 90.00000
_cell_angle_beta  90.00000
_cell_angle_gamma 90.00000
_space_group_name_H-M_alt      'P 1'


loop_
_space_group_symop_operation_xyz
  'x, y, z' 

loop_
_atom_site_label
_atom_site_fract_x
_atom_site_fract_y
_atom_site_fract_z
_atom_site_type_symbol
S          0.0   0.0027   0.6769     S
W          0.0  0.09732  0.43392     W
S          0.0    0.181   0.5571     S
C          0.0      0.2     0.36     C
N          0.0    0.258    0.308     N
Zn         0.0   0.3354   0.2177    Zn
Zn         0.0   0.6646   0.7823    Zn
N          0.0    0.742    0.692     N
C          0.0      0.8     0.64     C
S          0.0    0.819   0.4429     S
W          0.0  0.90268  0.56608     W
S          0.0   0.9973   0.3231     S
W      0.12122  0.05007  0.56359     W
W      0.12122  0.94993  0.43641     W
N       0.1538   0.3721   0.1717     N
N       0.1538   0.6279   0.8283     N
S       0.2217   0.0905   0.4388     S
S       0.2217   0.9095   0.5612     S
C        0.231   0.3973   0.1316     C
C        0.231   0.6027   0.8684     C
C        0.269   0.1027   0.6316     C
C        0.269   0.8973   0.3684     C
S       0.2783   0.4095   0.9388     S
S       0.2783   0.5905   0.0612     S
N       0.3462   0.1279   0.6717     N
N       0.3462   0.8721   0.3283     N
W      0.37878  0.44993  0.06359     W
W      0.37878  0.55007  0.93641     W
Zn         0.5   0.1646   0.7177    Zn
N          0.5    0.242    0.808     N
C          0.5      0.3     0.86     C
S          0.5    0.319   0.0571     S
W          0.5  0.40268  0.93392     W
S          0.5   0.4973   0.1769     S
S          0.5   0.5027   0.8231     S
W          0.5  0.59732  0.06608     W
S          0.5    0.681   0.9429     S
C          0.5      0.7     0.14     C
N          0.5    0.758    0.192     N
Zn         0.5   0.8354   0.2823    Zn
W      0.62122  0.44993  0.06359     W
W      0.62122  0.55007  0.93641     W
N       0.6538   0.1279   0.6717     N
N       0.6538   0.8721   0.3283     N
S       0.7217   0.4095   0.9388     S
S       0.7217   0.5905   0.0612     S
C        0.731   0.1027   0.6316     C
C        0.731   0.8973   0.3684     C
C        0.769   0.3973   0.1316     C
C        0.769   0.6027   0.8684     C
S       0.7783   0.0905   0.4388     S
S       0.7783   0.9095   0.5612     S
N       0.8462   0.3721   0.1717     N
N       0.8462   0.6279   0.8283     N
W      0.87878  0.05007  0.56359     W
W      0.87878  0.94993  0.43641     W
