data_I
_chemical_name_common  '/home/zhangsd/repos/MofS-CGCNN/ML/data/SSD/clean_cifs/LUNBEB_clean'
_cell_length_a 13.11200
_cell_length_b 13.11200
_cell_length_c 18.03000
_cell_angle_alpha 92.68580
_cell_angle_beta  92.68580
_cell_angle_gamma 113.13600
_space_group_name_H-M_alt      'P 1'


loop_
_space_group_symop_operation_xyz
  'x, y, z' 

loop_
_atom_site_label
_atom_site_fract_x
_atom_site_fract_y
_atom_site_fract_z
_atom_site_type_symbol
Co         0.0      0.5      0.5    Co
S       0.0184    0.729   0.9665     S
W      0.04812  0.46136  0.09125     W
W      0.06707  0.41733  0.94755     W
S       0.1044   0.6576   0.1345     S
C       0.1049   0.4067   0.1908     C
W       0.1334  0.62738  0.00202     W
S       0.1396   0.5766   0.8696     S
N       0.1409   0.3759   0.2399     N
C        0.143   0.3218   0.8924     C
N       0.1517   0.6359   0.4969     N
N       0.1882   0.2712   0.8635     N
Co     0.20449  0.28471   0.3056    Co
C       0.2278   0.7176   0.4931     C
S       0.2282   0.5072   0.0364     S
S        0.271   0.9816   0.5335     S
N       0.2712   0.1882   0.3635     N
C       0.2824   0.7722   0.0069     C
Co     0.28471  0.20449   0.8056    Co
C       0.3218    0.143   0.3924     C
S       0.3424   0.8956   0.3655     S
N       0.3641   0.8483   0.0031     N
W      0.37262   0.8666  0.49798     W
N       0.3759   0.1409   0.7399     N
C       0.4067   0.1049   0.6908     C
W      0.41733  0.06707  0.44755     W
S       0.4234   0.8604   0.6304     S
W      0.46136  0.04812  0.59125     W
S       0.4928   0.7718   0.4636     S
Co         0.5      0.0      0.0    Co
S       0.5072   0.2282   0.5364     S
W      0.53864  0.95188  0.40875     W
S       0.5766   0.1396   0.3696     S
W      0.58267  0.93293  0.55245     W
C       0.5933   0.8951   0.3092     C
N       0.6241   0.8591   0.2601     N
W      0.62738   0.1334  0.50202     W
N       0.6359   0.1517   0.9969     N
S       0.6576   0.1044   0.6345     S
C       0.6782    0.857   0.6076     C
Co     0.71529  0.79551   0.1944    Co
C       0.7176   0.2278   0.9931     C
N       0.7288   0.8118   0.6365     N
S        0.729   0.0184   0.4665     S
S       0.7718   0.4928   0.9636     S
C       0.7722   0.2824   0.5069     C
Co     0.79551  0.71529   0.6944    Co
N       0.8118   0.7288   0.1365     N
N       0.8483   0.3641   0.5031     N
C        0.857   0.6782   0.1076     C
N       0.8591   0.6241   0.7601     N
S       0.8604   0.4234   0.1304     S
W       0.8666  0.37262  0.99798     W
C       0.8951   0.5933   0.8092     C
S       0.8956   0.3424   0.8655     S
W      0.93293  0.58267  0.05245     W
W      0.95188  0.53864  0.90875     W
S       0.9816    0.271   0.0335     S
