data_I
_chemical_name_common  '/home/zhangsd/repos/MofS-CGCNN/ML/data/SSD/clean_cifs/LUPYAX_clean'
_cell_length_a 12.34160
_cell_length_b 20.72460
_cell_length_c 23.23060
_cell_angle_alpha 113.60300
_cell_angle_beta  105.40500
_cell_angle_gamma 90.00000
_space_group_name_H-M_alt      'P 1'


loop_
_space_group_symop_operation_xyz
  'x, y, z' 

loop_
_atom_site_label
_atom_site_fract_x
_atom_site_fract_y
_atom_site_fract_z
_atom_site_type_symbol
O      0.00681   0.8284  0.86362     O
C      0.00782   0.0545  0.06244     C
Zn     0.00885  0.85999  0.74534    Zn
C       0.0107   0.1119   0.1296     C
Cl     0.01615   0.3537   0.6311    Cl
Zn     0.02215  0.68475  0.67546    Zn
C       0.0268   0.4321   0.9856     C
O      0.02731   0.0873  0.17182     O
C       0.0348   0.0129    0.954     C
C       0.0412   0.0679   0.0144     C
H       0.0418   0.6769   0.5062     H
C      0.05462   0.5545  0.06244     C
H       0.0609   0.0227   0.9236     H
Cl     0.07053  0.34822  0.97126    Cl
H       0.0765   0.7762   0.7924     H
C       0.0808   0.4871    0.046     C
Cl      0.0812    0.067   0.7226    Cl
O       0.0829   0.7067   0.6146     O
O      0.08577   0.7801  0.75274     O
O      0.08893   0.9292  0.72846     O
Cl     0.09927  0.15178  0.02874    Cl
C       0.1021   0.7023   0.5036     C
C       0.1119   0.6907    0.442     C
C       0.1189   0.6119   0.1296     C
O      0.12812   0.1603  0.32744     O
O      0.13452   0.2788  0.36284     O
H       0.1373   0.4773   0.0764     H
O      0.14319   0.6716  0.13638     O
O      0.14451   0.5873  0.17182     O
O      0.15201   0.6293  0.70102     O
C       0.1609   0.2245     0.37     C
C       0.1644   0.7498     0.62     C
H       0.1737   0.3099   0.4852     H
C       0.1743   0.7477   0.5582     C
Cl      0.1819   0.5311     0.77    Cl
C       0.1901   0.7316   0.4344     C
C       0.1933   0.9448     0.76     C
O      0.19932   0.6603  0.32744     O
C       0.2091   0.7245     0.37     C
C       0.2202   0.0495   0.7288     C
O      0.22832   0.7788  0.36284     O
C       0.2284   0.2789   0.4884     C
O      0.23272   0.7913  0.67404     O
O      0.24327   0.9166  0.79614     O
C       0.2443   0.2316   0.4344     C
C      0.25445   0.6482   0.7289     C
H       0.2547   0.1301     0.71     H
Zn     0.25922  0.80651  0.77026    Zn
C         0.26   0.7789   0.4884     C
C         0.26   0.7846   0.5496     C
C       0.2634   0.9968   0.7492     C
Zn     0.26351  0.64001  0.25466    Zn
H       0.2841   0.7238   0.2076     H
C       0.2869   0.0952    0.723     C
C       0.2896   0.2846   0.5496     C
Cl      0.2999   0.3771   0.6206    Cl
O      0.30299   0.7084  0.75638     O
C       0.3091   0.5417   0.7554     C
H       0.3115   0.8099   0.4852     H
Cl      0.3207   0.8771   0.6206    Cl
C       0.3301   0.1907    0.442     C
O      0.33303   0.7199  0.24726     O
C      0.33343   0.5932  0.73546     C
Zn     0.34669  0.81525  0.32454    Zn
Cl      0.3586    0.433   0.2774    Cl
O      0.36047   0.5708  0.27154     O
H       0.3666   0.4575   0.7758     H
C       0.3776   0.9923   0.7624     C
C       0.3839   0.2477   0.5582     C
C       0.3848   0.4923   0.7624     C
Cl     0.38505   0.1463   0.3689    Cl
C       0.4015   0.2023   0.5036     C
C      0.40203   0.0932  0.73546     C
H       0.4092   0.9575   0.7758     H
Cl      0.4119   0.9689     0.23    Cl
C       0.4333   0.5552     0.24     C
C       0.4361   0.5952    0.723     C
O      0.44132   0.2913  0.67404     O
C       0.4463   0.0417   0.7554     C
O      0.44713   0.5834  0.20386     O
O      0.45099   0.8707  0.29898     O
O      0.45339   0.2084  0.75638     O
H       0.4553   0.6301     0.71     H
C       0.4556   0.2498     0.62     C
H       0.4644   0.1769   0.5062     H
O       0.4683   0.7933   0.3854     O
C      0.47445   0.1482   0.7289     C
C       0.4858   0.4968   0.7492     C
Zn     0.48896  0.69349  0.22974    Zn
C       0.4914   0.4505   0.2712     C
C       0.5086   0.5495   0.7288     C
Zn     0.51104  0.30651  0.77026    Zn
C       0.5142   0.5032   0.2508     C
C      0.52555   0.8518   0.2711     C
O       0.5317   0.2067   0.6146     O
H       0.5356   0.8231   0.4938     H
C       0.5444   0.7502     0.38     C
H       0.5447   0.3699     0.29     H
O      0.54661   0.7916  0.24362     O
O      0.54901   0.1293  0.70102     O
O      0.55287   0.4166  0.79614     O
C       0.5537   0.9583   0.2446     C
O      0.55868   0.7087  0.32596     O
C       0.5639   0.4048    0.277     C
C       0.5667   0.4448     0.76     C
Cl      0.5881   0.0311     0.77    Cl
H       0.5908   0.0425   0.2242     H
C      0.59797   0.9068  0.26454     C
C       0.5985   0.7977   0.4964     C
Cl     0.61495   0.8537   0.6311    Cl
C       0.6152   0.5077   0.2376     C
C       0.6161   0.7523   0.4418     C
C       0.6224   0.0077   0.2376     C
H       0.6334   0.5425   0.2242     H
O      0.63953   0.4292  0.72846     O
Cl      0.6414    0.567   0.7226    Cl
Zn     0.65331  0.18475  0.67546    Zn
C      0.66657   0.4068  0.26454     C
O      0.66697   0.2801  0.75274     O
C       0.6699   0.8093    0.558     C
Cl      0.6793   0.1229   0.3794    Cl
H       0.6885   0.1901   0.5148     H
C       0.6909   0.4583   0.2446     C
O      0.69701   0.2916  0.24362     O
Cl      0.7001   0.6229   0.3794    Cl
C       0.7104   0.7154   0.4504     C
C       0.7131   0.9048    0.277     C
H       0.7159   0.2762   0.7924     H
Zn     0.73649  0.35999  0.74534    Zn
C       0.7366   0.0032   0.2508     C
C         0.74   0.2154   0.4504     C
C         0.74   0.2211   0.5116     C
Zn     0.74078  0.19349  0.22974    Zn
H       0.7453   0.8699     0.29     H
C      0.74555   0.3518   0.2711     C
C       0.7557   0.7684   0.5656     C
O      0.75673   0.0834  0.20386     O
O      0.76728   0.2087  0.32596     O
C       0.7716   0.7211   0.5116     C
O      0.77168   0.2212  0.63716     O
C       0.7798   0.9505   0.2712     C
C       0.7909   0.2755     0.63     C
O      0.80068   0.3397  0.67256     O
C       0.8067   0.0552     0.24     C
C       0.8099   0.2684   0.5656     C
Cl      0.8181   0.4689     0.23    Cl
C       0.8257   0.2523   0.4418     C
H       0.8263   0.6901   0.5148     H
C       0.8356   0.2502     0.38     C
C       0.8391   0.7755     0.63     C
O      0.84799   0.3707  0.29898     O
O      0.85549   0.4127  0.82818     O
O      0.85681   0.3284  0.86362     O
H       0.8627   0.5227   0.9236     H
O      0.86548   0.7212  0.63716     O
O      0.87188   0.8397  0.67256     O
C       0.8811   0.3881   0.8704     C
C       0.8881   0.3093    0.558     C
C       0.8979   0.2977   0.4964     C
Cl     0.90073  0.84822  0.97126    Cl
O      0.91107   0.0708  0.27154     O
O      0.91423   0.2199  0.24726     O
O       0.9171   0.2933   0.3854     O
Cl      0.9188    0.933   0.2774    Cl
C       0.9192   0.5129    0.954     C
H       0.9235   0.2238   0.2076     H
Cl     0.92947  0.65178  0.02874    Cl
H       0.9391   0.9773   0.0764     H
C      0.94538   0.4455  0.93756     C
H       0.9582   0.3231   0.4938     H
C       0.9588   0.9321   0.9856     C
C       0.9652   0.9871    0.046     C
O      0.97269   0.9127  0.82818     O
C       0.9732   0.5679   0.0144     C
Zn     0.97785  0.31525  0.32454    Zn
Cl     0.98385   0.6463   0.3689    Cl
C       0.9893   0.8881   0.8704     C
Zn     0.99115  0.14001  0.25466    Zn
C      0.99218   0.9455  0.93756     C
O      0.99319   0.1716  0.13638     O
