data_I
_chemical_name_common  '/home/zhangsd/repos/MofS-CGCNN/ML/data/SSD/clean_cifs/LUQGAG_clean'
_cell_length_a 12.45800
_cell_length_b 17.31450
_cell_length_c 17.31450
_cell_angle_alpha 82.56370
_cell_angle_beta  68.91480
_cell_angle_gamma 68.91480
_space_group_name_H-M_alt      'P 1'


loop_
_space_group_symop_operation_xyz
  'x, y, z' 

loop_
_atom_site_label
_atom_site_fract_x
_atom_site_fract_y
_atom_site_fract_z
_atom_site_type_symbol
C       0.0005    0.318   0.9656     C
C       0.0005   0.9656    0.318     C
C        0.002   0.3766   0.4816     C
C        0.002   0.4816   0.3766     C
C       0.0102   0.0155   0.3785     C
C       0.0102   0.3785   0.0155     C
C       0.0164   0.1234   0.4816     C
C       0.0164   0.4816   0.1234     C
H       0.0178   0.1599   0.5159     H
H       0.0178   0.5159   0.1599     H
H       0.0337   0.4841   0.6599     H
H       0.0337   0.6599   0.4841     H
C       0.0551   0.5719   0.5719     C
N       0.0591     0.24   0.8546     N
H       0.0591   0.2619   0.6057     H
H       0.0591   0.6057   0.2619     H
N       0.0591   0.8546     0.24     N
N       0.0648   0.1158   0.7332     N
N       0.0648   0.7332   0.1158     N
C       0.0958   0.5155   0.8785     C
C       0.0958   0.8785   0.5155     C
C       0.0974    0.271   0.9026     C
C       0.0974   0.9026    0.271     C
C       0.1001   0.0493   0.6871     C
C       0.1001   0.6871   0.0493     C
C       0.1047   0.5789   0.9211     C
C       0.1047   0.9211   0.5789     C
C       0.1113   0.3785   0.4845     C
C       0.1113   0.4845   0.3785     C
C       0.1214   0.0184   0.3766     C
C       0.1214   0.3766   0.0184     C
C        0.127   0.0719   0.4281     C
C        0.127   0.4281   0.0719     C
H       0.1289    0.573    0.573     H
C       0.1316    0.271   0.5974     C
C       0.1316   0.5974    0.271     C
H       0.1512   0.5471   0.9529     H
H       0.1512   0.9529   0.5471     H
Co     0.16159  0.17682     0.75    Co
Co     0.16159     0.75  0.17682    Co
H       0.1648   0.3943   0.7619     H
H       0.1648   0.7619   0.3943     H
H        0.179   0.2619   0.8943     H
H        0.179   0.8943   0.2619     H
H       0.1812   0.0169   0.6615     H
H       0.1812   0.6615   0.0169     H
C       0.1815    0.318   0.5344     C
C       0.1815   0.5344    0.318     C
C       0.1836   0.4211   0.4211     C
H       0.1936   0.3401   0.9841     H
H       0.1936   0.9841   0.3401     H
H       0.1983   0.4529   0.4529     H
N       0.2009     0.24   0.6454     N
N       0.2009   0.6454     0.24     N
H       0.2019    0.073    0.427     H
H       0.2019    0.427    0.073     H
C       0.2159   0.4656    0.818     C
C       0.2159    0.818   0.4656     C
H       0.2251    0.073    0.073     H
C        0.229   0.4026    0.771     C
C        0.229    0.771   0.4026     C
C       0.2872   0.3129   0.5493     C
C       0.2872   0.5493   0.3129     C
N        0.298   0.2668   0.6158     N
N        0.298   0.6158   0.2668     N
C       0.3011   0.0719   0.0719     C
H       0.3019   0.0169   0.8385     H
H       0.3019   0.8385   0.0169     H
N       0.3194   0.1158   0.7668     N
N       0.3194   0.7668   0.1158     N
H       0.3223   0.1599   0.9841     H
H       0.3223   0.9841   0.1599     H
C       0.3365   0.4507   0.8129     C
C       0.3365   0.8129   0.4507     C
H       0.3427   0.3385   0.5169     H
H       0.3427   0.5169   0.3385     H
N       0.3463   0.3546     0.74     N
N       0.3463     0.74   0.3546     N
C       0.3506   0.0493   0.8129     C
C       0.3506   0.8129   0.0493     C
H       0.3596   0.4831   0.8385     H
H       0.3596   0.8385   0.4831     H
C       0.3602   0.0184   0.1234     C
C       0.3602   0.1234   0.0184     C
H       0.3959   0.9529   0.9529     H
Co     0.41159     0.25  0.67682    Co
Co     0.41159  0.67682     0.25    Co
N       0.4137   0.1454     0.74     N
N       0.4137     0.74   0.1454     N
N       0.4138   0.3842   0.7668     N
N       0.4138   0.7668   0.3842     N
H       0.4267   0.2381   0.8943     H
H       0.4267   0.8943   0.2381     H
C       0.4661   0.0344    0.818     C
C       0.4661    0.818   0.0344     C
C       0.4742   0.9211   0.9211     C
C       0.4743   0.0155   0.1215     C
C       0.4743   0.1215   0.0155     C
C          0.5   0.0974    0.771     C
C          0.5    0.229   0.9026     C
C          0.5    0.771   0.0974     C
C          0.5   0.9026    0.229     C
C       0.5257   0.8785   0.9845     C
C       0.5257   0.9845   0.8785     C
C       0.5258   0.0789   0.0789     C
C       0.5339    0.182   0.9656     C
C       0.5339   0.9656    0.182     C
H       0.5733   0.1057   0.7619     H
H       0.5733   0.7619   0.1057     H
N       0.5862   0.2332   0.6158     N
N       0.5862   0.6158   0.2332     N
N       0.5863     0.26   0.8546     N
N       0.5863   0.8546     0.26     N
Co     0.58841  0.32318     0.75    Co
Co     0.58841     0.75  0.32318    Co
H       0.6041   0.0471   0.0471     H
C       0.6398   0.8766   0.9816     C
C       0.6398   0.9816   0.8766     C
H       0.6404   0.1615   0.5169     H
H       0.6404   0.5169   0.1615     H
C       0.6494   0.1871   0.9507     C
C       0.6494   0.9507   0.1871     C
N       0.6537     0.26   0.6454     N
N       0.6537   0.6454     0.26     N
H       0.6573   0.4831   0.6615     H
H       0.6573   0.6615   0.4831     H
C       0.6635   0.1871   0.5493     C
C       0.6635   0.5493   0.1871     C
H       0.6777   0.0159   0.8401     H
H       0.6777   0.8401   0.0159     H
N       0.6806   0.2332   0.8842     N
N       0.6806   0.8842   0.2332     N
H       0.6981   0.1615   0.9831     H
H       0.6981   0.9831   0.1615     H
C       0.6989   0.9281   0.9281     C
N        0.702   0.3842   0.7332     N
N        0.702   0.7332   0.3842     N
C       0.7128   0.4507   0.6871     C
C       0.7128   0.6871   0.4507     C
C        0.771    0.229   0.5974     C
C        0.771   0.5974    0.229     C
H       0.7749    0.927    0.927     H
C       0.7841    0.182   0.5344     C
C       0.7841   0.5344    0.182     C
H       0.7981    0.573    0.927     H
H       0.7981    0.927    0.573     H
N       0.7991   0.3546     0.76     N
N       0.7991     0.76   0.3546     N
H       0.8017   0.5471   0.5471     H
H       0.8064   0.0159   0.6599     H
H       0.8064   0.6599   0.0159     H
C       0.8164   0.5789   0.5789     C
C       0.8185   0.4656    0.682     C
C       0.8185    0.682   0.4656     C
H       0.8188   0.3385   0.9831     H
H       0.8188   0.9831   0.3385     H
H        0.821   0.1057   0.7381     H
H        0.821   0.7381   0.1057     H
H       0.8352   0.2381   0.6057     H
H       0.8352   0.6057   0.2381     H
Co     0.83841     0.25  0.82318    Co
Co     0.83841  0.82318     0.25    Co
H       0.8488   0.0471   0.4529     H
H       0.8488   0.4529   0.0471     H
C       0.8684   0.4026    0.729     C
C       0.8684    0.729   0.4026     C
H       0.8711    0.427    0.427     H
C        0.873   0.5719   0.9281     C
C        0.873   0.9281   0.5719     C
C       0.8786   0.6234   0.9816     C
C       0.8786   0.9816   0.6234     C
C       0.8887   0.5155   0.6215     C
C       0.8887   0.6215   0.5155     C
C       0.8953   0.0789   0.4211     C
C       0.8953   0.4211   0.0789     C
C       0.8999   0.3129   0.9507     C
C       0.8999   0.9507   0.3129     C
C       0.9026   0.0974    0.729     C
C       0.9026    0.729   0.0974     C
C       0.9042   0.1215   0.4845     C
C       0.9042   0.4845   0.1215     C
N       0.9352   0.2668   0.8842     N
N       0.9352   0.8842   0.2668     N
N       0.9409   0.1454     0.76     N
H       0.9409   0.3943   0.7381     H
H       0.9409   0.7381   0.3943     H
N       0.9409     0.76   0.1454     N
C       0.9449   0.4281   0.4281     C
H       0.9663   0.3401   0.5159     H
H       0.9663   0.5159   0.3401     H
H       0.9822   0.4841   0.8401     H
H       0.9822   0.8401   0.4841     H
C       0.9836   0.5184   0.8766     C
C       0.9836   0.8766   0.5184     C
C       0.9898   0.6215   0.9845     C
C       0.9898   0.9845   0.6215     C
C        0.998   0.5184   0.6234     C
C        0.998   0.6234   0.5184     C
C       0.9995   0.0344    0.682     C
C       0.9995    0.682   0.0344     C
