data_I
_chemical_name_common  '/home/zhangsd/repos/MofS-CGCNN/ML/data/SSD/clean_cifs/LUTSEA_clean'
_cell_length_a 11.28830
_cell_length_b 11.28830
_cell_length_c 12.84190
_cell_angle_alpha 90.00000
_cell_angle_beta  90.00000
_cell_angle_gamma 90.00000
_space_group_name_H-M_alt      'P 1'


loop_
_space_group_symop_operation_xyz
  'x, y, z' 

loop_
_atom_site_label
_atom_site_fract_x
_atom_site_fract_y
_atom_site_fract_z
_atom_site_type_symbol
Mo         0.0      0.0     0.25    Mo
Mo         0.0      0.0     0.75    Mo
C       0.0644  0.14579  0.15723     C
C       0.0644  0.14579  0.84277     C
C       0.0644  0.85421  0.34277     C
C       0.0644  0.85421  0.65723     C
N      0.10293  0.22048  0.10708     N
N      0.10293  0.22048  0.89292     N
N      0.10293  0.77952  0.39292     N
N      0.10293  0.77952  0.60708     N
C      0.14579   0.0644  0.34277     C
C      0.14579   0.0644  0.65723     C
C      0.14579   0.9356  0.15723     C
C      0.14579   0.9356  0.84277     C
Cu     0.18727  0.31273      0.0    Cu
Cu     0.18727  0.68727      0.5    Cu
N      0.22048  0.10293  0.39292     N
N      0.22048  0.10293  0.60708     N
N      0.22048  0.89707  0.10708     N
N      0.22048  0.89707  0.89292     N
N      0.27952  0.39707  0.10708     N
N      0.27952  0.39707  0.89292     N
N      0.27952  0.60293  0.39292     N
N      0.27952  0.60293  0.60708     N
Cu     0.31273  0.18727      0.5    Cu
Cu     0.31273  0.81273      0.0    Cu
C      0.35421   0.4356  0.15723     C
C      0.35421   0.4356  0.84277     C
C      0.35421   0.5644  0.34277     C
C      0.35421   0.5644  0.65723     C
N      0.39707  0.27952  0.39292     N
N      0.39707  0.27952  0.60708     N
N      0.39707  0.72048  0.10708     N
N      0.39707  0.72048  0.89292     N
C       0.4356  0.35421  0.34277     C
C       0.4356  0.35421  0.65723     C
C       0.4356  0.64579  0.15723     C
C       0.4356  0.64579  0.84277     C
Mo         0.5      0.5     0.25    Mo
Mo         0.5      0.5     0.75    Mo
C       0.5644  0.35421  0.15723     C
C       0.5644  0.35421  0.84277     C
C       0.5644  0.64579  0.34277     C
C       0.5644  0.64579  0.65723     C
N      0.60293  0.27952  0.10708     N
N      0.60293  0.27952  0.89292     N
N      0.60293  0.72048  0.39292     N
N      0.60293  0.72048  0.60708     N
C      0.64579   0.4356  0.34277     C
C      0.64579   0.4356  0.65723     C
C      0.64579   0.5644  0.15723     C
C      0.64579   0.5644  0.84277     C
Cu     0.68727  0.18727      0.0    Cu
Cu     0.68727  0.81273      0.5    Cu
N      0.72048  0.39707  0.39292     N
N      0.72048  0.39707  0.60708     N
N      0.72048  0.60293  0.10708     N
N      0.72048  0.60293  0.89292     N
N      0.77952  0.10293  0.10708     N
N      0.77952  0.10293  0.89292     N
N      0.77952  0.89707  0.39292     N
N      0.77952  0.89707  0.60708     N
Cu     0.81273  0.31273      0.5    Cu
Cu     0.81273  0.68727      0.0    Cu
C      0.85421   0.0644  0.15723     C
C      0.85421   0.0644  0.84277     C
C      0.85421   0.9356  0.34277     C
C      0.85421   0.9356  0.65723     C
N      0.89707  0.22048  0.39292     N
N      0.89707  0.22048  0.60708     N
N      0.89707  0.77952  0.10708     N
N      0.89707  0.77952  0.89292     N
C       0.9356  0.14579  0.34277     C
C       0.9356  0.14579  0.65723     C
C       0.9356  0.85421  0.15723     C
C       0.9356  0.85421  0.84277     C
