data_I
_chemical_name_common  '/home/zhangsd/repos/MofS-CGCNN/ML/data/SSD/clean_cifs/MABJUV01_clean'
_cell_length_a  8.52120
_cell_length_b 12.48030
_cell_length_c 12.48030
_cell_angle_alpha 116.20100
_cell_angle_beta  98.74300
_cell_angle_gamma 81.25700
_space_group_name_H-M_alt      'P 1'


loop_
_space_group_symop_operation_xyz
  'x, y, z' 

loop_
_atom_site_label
_atom_site_fract_x
_atom_site_fract_y
_atom_site_fract_z
_atom_site_type_symbol
H       0.0005   0.1763   0.1665     H
H       0.0058    0.152    0.619     H
O       0.0105  0.67568  0.16142     O
H        0.038   0.9393   0.5923     H
C       0.0384  0.79669  0.42251     C
H       0.0511   0.2399   0.5683     H
C        0.056  0.00176  0.05224     C
C        0.067   0.1054   0.1586     C
Cu      0.0753  0.40324   0.0084    Cu
C       0.0937  0.62269  0.21871     C
C       0.1173  0.87431  0.54689     C
O        0.121   0.6152  0.93732     O
O       0.1327  0.51115  0.17733     O
H         0.15   0.8281   0.9795     H
H        0.152   0.8244   0.5912     H
C       0.1547  0.90197  0.04943     C
C       0.1578  0.69758  0.34662     C
H       0.1728   0.1425   0.8389     H
C       0.1748   0.1049   0.2527     C
H       0.1802    0.177   0.3246     H
H       0.1952   0.6437   0.3863     H
N        0.228  0.24862  0.00898     N
C       0.2398  0.14745  0.90875     C
C       0.2403  0.53928  0.92896     C
H       0.2485   0.3448   0.7348     H
O       0.2496  0.45646  0.96174     O
O       0.2504  0.96174  0.45646     O
H       0.2515   0.7348   0.3448     H
C       0.2597  0.92896  0.53928     C
C       0.2602  0.90875  0.14745     C
N        0.272  0.00898  0.24862     N
H       0.3048   0.3863   0.6437     H
H       0.3198   0.3246    0.177     H
C       0.3252   0.2527   0.1049     C
H       0.3272   0.8389   0.1425     H
C       0.3422  0.34662  0.69758     C
C       0.3453  0.04943  0.90197     C
H        0.348   0.5912   0.8244     H
H         0.35   0.9795   0.8281     H
O       0.3673  0.17733  0.51115     O
O        0.379  0.93732   0.6152     O
C       0.3827  0.54689  0.87431     C
C       0.4063  0.21871  0.62269     C
Cu      0.4247   0.0084  0.40324    Cu
C        0.433   0.1586   0.1054     C
C        0.444  0.05224  0.00176     C
H       0.4489   0.5683   0.2399     H
C       0.4616  0.42251  0.79669     C
H        0.462   0.5923   0.9393     H
O       0.4895  0.16142  0.67568     O
H       0.4942    0.619    0.152     H
H       0.4995   0.1665   0.1763     H
H       0.5005   0.8335   0.8237     H
H       0.5058    0.381    0.848     H
O       0.5105  0.83858  0.32432     O
H        0.538   0.4077   0.0607     H
C       0.5384  0.57749  0.20331     C
H       0.5511   0.4317   0.7601     H
C        0.556  0.94776  0.99824     C
C        0.567   0.8414   0.8946     C
Cu      0.5753   0.9916  0.59676    Cu
C       0.5937  0.78129  0.37731     C
C       0.6173  0.45311  0.12569     C
O        0.621  0.06268   0.3848     O
O       0.6327  0.82267  0.48885     O
H         0.65   0.0205   0.1719     H
H        0.652   0.4088   0.1756     H
C       0.6547  0.95057  0.09803     C
C       0.6578  0.65338  0.30242     C
H       0.6728   0.1611   0.8575     H
C       0.6748   0.7473   0.8951     C
H       0.6802   0.6754    0.823     H
H       0.6952   0.6137   0.3563     H
N        0.728  0.99102  0.75138     N
C       0.7398  0.09125  0.85255     C
C       0.7403  0.07104  0.46072     C
H       0.7485   0.2652   0.6552     H
O       0.7496  0.03826  0.54354     O
O       0.7504  0.54354  0.03826     O
H       0.7515   0.6552   0.2652     H
C       0.7597  0.46072  0.07104     C
C       0.7602  0.85255  0.09125     C
N        0.772  0.75138  0.99102     N
H       0.8048   0.3563   0.6137     H
H       0.8198    0.823   0.6754     H
C       0.8252   0.8951   0.7473     C
H       0.8272   0.8575   0.1611     H
C       0.8422  0.30242  0.65338     C
C       0.8453  0.09803  0.95057     C
H        0.848   0.1756   0.4088     H
H         0.85   0.1719   0.0205     H
O       0.8673  0.48885  0.82267     O
O        0.879   0.3848  0.06268     O
C       0.8827  0.12569  0.45311     C
C       0.9063  0.37731  0.78129     C
Cu      0.9247  0.59676   0.9916    Cu
C        0.933   0.8946   0.8414     C
C        0.944  0.99824  0.94776     C
H       0.9489   0.7601   0.4317     H
C       0.9616  0.20331  0.57749     C
H        0.962   0.0607   0.4077     H
O       0.9895  0.32432  0.83858     O
H       0.9942    0.848    0.381     H
H       0.9995   0.8237   0.8335     H
