data_I
_chemical_name_common  '/home/zhangsd/repos/MofS-CGCNN/ML/data/SSD/clean_cifs/MAFZOK_clean'
_cell_length_a  7.41900
_cell_length_b  9.96900
_cell_length_c 11.14800
_cell_angle_alpha 65.15200
_cell_angle_beta  76.10900
_cell_angle_gamma 69.96500
_space_group_name_H-M_alt      'P 1'


loop_
_space_group_symop_operation_xyz
  'x, y, z' 

loop_
_atom_site_label
_atom_site_fract_x
_atom_site_fract_y
_atom_site_fract_z
_atom_site_type_symbol
O       0.0228   0.5509   0.1324     O
C       0.0599    0.314   0.3654     C
Zn      0.0741  0.71801  0.95208    Zn
C       0.0758    0.808   0.3687     C
C       0.0834   0.1027   0.5789     C
C       0.0956   0.5972   0.5797     C
H       0.1236   0.8489   0.2798     H
O       0.1346   0.9057   0.7894     O
O       0.1408   0.2804   0.1294     O
P       0.1476   0.3886  0.19121     P
C       0.1503   0.1634   0.4441     C
H       0.1535   0.4964   0.6318     H
C       0.1656   0.6586   0.4462     C
C       0.1827   0.9438   0.6672     C
H        0.235    0.493    0.887     H
H       0.2547   0.1038   0.4067     H
O       0.2929   0.5609   0.8778     O
O       0.3075   0.8587   0.6096     O
C       0.3335    0.566   0.3824     C
O       0.3602   0.3831   0.1821     O
O       0.3889   0.4206   0.4418     O
O       0.4152   0.6318   0.2717     O
Zn     0.44334  0.64693  0.70507    Zn
Zn         0.5      0.5      0.0    Zn
Zn     0.55666  0.35307  0.29493    Zn
O       0.5848   0.3682   0.7283     O
O       0.6111   0.5794   0.5582     O
O       0.6398   0.6169   0.8179     O
C       0.6665    0.434   0.6176     C
O       0.6925   0.1413   0.3904     O
O       0.7071   0.4391   0.1222     O
H       0.7453   0.8962   0.5933     H
H        0.765    0.507    0.113     H
C       0.8173   0.0562   0.3328     C
C       0.8344   0.3414   0.5538     C
H       0.8465   0.5036   0.3682     H
C       0.8497   0.8366   0.5559     C
P       0.8524   0.6114  0.80879     P
O       0.8592   0.7196   0.8706     O
O       0.8654   0.0943   0.2106     O
H       0.8764   0.1511   0.7202     H
C       0.9044   0.4028   0.4203     C
C       0.9166   0.8973   0.4211     C
C       0.9242    0.192   0.6313     C
Zn      0.9259  0.28199  0.04792    Zn
C       0.9401    0.686   0.6346     C
O       0.9772   0.4491   0.8676     O
