data_I
_chemical_name_common  '/home/zhangsd/repos/MofS-CGCNN/ML/data/SSD/clean_cifs/MAGBAZ_clean'
_cell_length_a  9.86600
_cell_length_b 13.96300
_cell_length_c 15.44900
_cell_angle_alpha 90.00000
_cell_angle_beta  90.00000
_cell_angle_gamma 90.00000
_space_group_name_H-M_alt      'P 1'


loop_
_space_group_symop_operation_xyz
  'x, y, z' 

loop_
_atom_site_label
_atom_site_fract_x
_atom_site_fract_y
_atom_site_fract_z
_atom_site_type_symbol
C         0.02   0.9804   0.1648     C
O       0.0233   0.8033  0.39421     O
O       0.0258  0.38095   0.3291     O
C        0.042   0.2194   0.6704     C
C       0.0424   0.9135    0.231     C
C       0.0612   0.1483   0.7433     C
O       0.0825  0.53454  0.40741     O
O        0.096  0.30112  0.68398     O
Zn     0.09721  0.40409  0.59772    Zn
O       0.0974   0.1318   0.1197     O
C       0.1077   0.0157    0.874     C
P      0.11908  0.42909  0.39468     P
H       0.1231   0.9718   0.9182     H
O       0.1261  0.37131  0.47823     O
H       0.1266   0.9104   0.2579     H
C       0.1303   0.0496   0.1384     C
C       0.1869   0.1435   0.7839     C
C       0.2122   0.0758   0.8481     C
H       0.2451   0.3139    0.268     H
O       0.2497   0.0156  0.13787     O
O       0.2503   0.4844  0.63787     O
H       0.2549   0.1861    0.768     H
C       0.2878   0.4242   0.3481     C
C       0.3131   0.3565   0.2839     C
C       0.3697   0.4504   0.6384     C
H       0.3734   0.5896   0.7579     H
O       0.3739  0.12869  0.97823     O
H       0.3769   0.5282   0.4182     H
P      0.38092  0.07091  0.89468     P
C       0.3923   0.4843    0.374     C
O       0.4026   0.3682   0.6197     O
Zn     0.40279  0.09591  0.09772    Zn
O        0.404  0.19888  0.18398     O
O       0.4175  0.96546  0.90741     O
C       0.4388   0.3517   0.2433     C
C       0.4576   0.5865    0.731     C
C        0.458   0.2806   0.1704     C
O       0.4742  0.11905   0.8291     O
O       0.4767   0.6967  0.89421     O
C         0.48   0.5196   0.6648     C
C         0.52   0.4804   0.3352     C
O       0.5233   0.3033  0.10579     O
O       0.5258  0.88095   0.1709     O
C        0.542   0.7194   0.8296     C
C       0.5424   0.4135    0.269     C
C       0.5612   0.6483   0.7567     C
O       0.5825  0.03454  0.09259     O
O        0.596  0.80112  0.81602     O
Zn     0.59721  0.90409  0.90228    Zn
O       0.5974   0.6318   0.3803     O
C       0.6077   0.5157    0.626     C
P      0.61908  0.92909  0.10532     P
H       0.6231   0.4718   0.5818     H
O       0.6261  0.87131  0.02177     O
H       0.6266   0.4104   0.2421     H
C       0.6303   0.5496   0.3616     C
C       0.6869   0.6435   0.7161     C
C       0.7122   0.5758   0.6519     C
H       0.7451   0.8139    0.232     H
O       0.7497   0.5156  0.36213     O
O       0.7503   0.9844  0.86213     O
H       0.7549   0.6861    0.732     H
C       0.7878   0.9242   0.1519     C
C       0.8131   0.8565   0.2161     C
C       0.8697   0.9504   0.8616     C
H       0.8734   0.0896   0.7421     H
O       0.8739  0.62869  0.52177     O
H       0.8769   0.0282   0.0818     H
P      0.88092  0.57091  0.60532     P
C       0.8923   0.9843    0.126     C
O       0.9026   0.8682   0.8803     O
Zn     0.90279  0.59591  0.40228    Zn
O        0.904  0.69888  0.31602     O
O       0.9175  0.46546  0.59259     O
C       0.9388   0.8517   0.2567     C
C       0.9576   0.0865    0.769     C
C        0.958   0.7806   0.3296     C
O       0.9742  0.61905   0.6709     O
O       0.9767   0.1967  0.60579     O
C         0.98   0.0196   0.8352     C
