data_I
_chemical_name_common  '/home/zhangsd/repos/MofS-CGCNN/ML/data/SSD/clean_cifs/MAGBON_clean'
_cell_length_a 18.45000
_cell_length_b 18.45000
_cell_length_c 23.20100
_cell_angle_alpha 90.00000
_cell_angle_beta  90.00000
_cell_angle_gamma 90.00000
_space_group_name_H-M_alt      'P 1'


loop_
_space_group_symop_operation_xyz
  'x, y, z' 

loop_
_atom_site_label
_atom_site_fract_x
_atom_site_fract_y
_atom_site_fract_z
_atom_site_type_symbol
C       0.0029   0.2311   0.4035     C
C       0.0029   0.2689   0.8465     C
C        0.009   0.2334   0.3006     C
C        0.009   0.2666   0.9494     C
H       0.0256   0.2326   0.4393     H
H       0.0256   0.2674   0.8107     H
H       0.0355   0.2354   0.2666     H
H       0.0355   0.2646   0.9834     H
C       0.0453    0.235   0.3528     C
C       0.0453    0.265   0.8972     C
C       0.0658    0.729   0.9524     C
C       0.0658    0.771   0.2976     C
O       0.0678   0.7396   0.0543     O
O       0.0678   0.7604   0.1957     O
C       0.0716   0.7251   0.8492     C
C       0.0716   0.7749   0.4008     C
O       0.0827   0.7274   0.7479     O
O       0.0827   0.7726   0.5021     O
C       0.1052   0.7283    0.009     C
C       0.1052   0.7717    0.241     C
C       0.1054   0.7247   0.9016     C
C       0.1054   0.7753   0.3484     C
C       0.1134    0.723   0.7938     C
C       0.1134    0.777   0.4562     C
Zn     0.12705     0.75    0.125    Zn
P      0.14134  0.24269  0.35834     P
P      0.14134  0.25731  0.89166     P
H       0.1557   0.7214   0.9033     H
H       0.1557   0.7786   0.3467     H
O       0.1587   0.1778   0.8881     O
O       0.1587   0.3222   0.3619     O
O       0.1636   0.2024   0.4135     O
O       0.1636   0.2976   0.8365     O
O       0.1708   0.7203   0.0076     O
O       0.1708   0.7797   0.2424     O
O       0.1727   0.2071   0.3047     O
O       0.1727   0.2929   0.9453     O
O       0.1778   0.6587   0.1381     O
O       0.1778   0.8413   0.1119     O
O       0.1823   0.7214   0.7991     O
O       0.1823   0.7786   0.4509     O
O       0.2024   0.6636   0.6635     O
O       0.2024   0.8364   0.5865     O
O       0.2071   0.6727   0.5547     O
O       0.2071   0.8273   0.6953     O
O       0.2203   0.1708   0.7576     O
O       0.2203   0.3292   0.4924     O
H       0.2214   0.1557   0.6533     H
O       0.2214   0.1823   0.5491     O
O       0.2214   0.3177   0.7009     O
H       0.2214   0.3443   0.5967     H
C        0.223   0.1134   0.5438     C
C        0.223   0.3866   0.7062     C
C       0.2247   0.1054   0.6516     C
C       0.2247   0.3946   0.5984     C
Zn     0.22482  0.73032  0.72313    Zn
Zn     0.22482  0.76968  0.52687    Zn
C       0.2251   0.0716   0.5992     C
C       0.2251   0.4284   0.6508     C
O       0.2274   0.0827   0.4979     O
O       0.2274   0.4173   0.7521     O
C       0.2283   0.1052    0.759     C
C       0.2283   0.3948    0.491     C
C        0.229   0.0658   0.7024     C
C        0.229   0.4342   0.5476     C
Zn     0.23032  0.22482  0.47313    Zn
Zn     0.23032  0.27518  0.77687    Zn
C       0.2311   0.5029   0.6535     C
C       0.2311   0.9971   0.5965     C
H       0.2326   0.5256   0.6893     H
H       0.2326   0.9744   0.5607     H
C       0.2334    0.509   0.5506     C
C       0.2334    0.991   0.6994     C
C        0.235   0.5453   0.6028     C
C        0.235   0.9547   0.6472     C
H       0.2354   0.5355   0.5166     H
H       0.2354   0.9645   0.7334     H
O       0.2396   0.0678   0.8043     O
O       0.2396   0.4322   0.4457     O
P      0.24269  0.64134  0.60834     P
P      0.24269  0.85866  0.64166     P
Zn        0.25  0.12705    0.875    Zn
Zn        0.25  0.37295    0.375    Zn
P      0.25731  0.64134  0.14166     P
P      0.25731  0.85866  0.10834     P
O       0.2604   0.0678   0.9457     O
O       0.2604   0.4322   0.3043     O
H       0.2646   0.5355   0.2334     H
H       0.2646   0.9645   0.0166     H
C        0.265   0.5453   0.1472     C
C        0.265   0.9547   0.1028     C
C       0.2666    0.509   0.1994     C
C       0.2666    0.991   0.0506     C
H       0.2674   0.5256   0.0607     H
H       0.2674   0.9744   0.1893     H
C       0.2689   0.5029   0.0965     C
C       0.2689   0.9971   0.1535     C
Zn     0.26968  0.22482  0.27687    Zn
Zn     0.26968  0.27518  0.97313    Zn
C        0.271   0.0658   0.0476     C
C        0.271   0.4342   0.2024     C
C       0.2717   0.1052    0.991     C
C       0.2717   0.3948    0.259     C
O       0.2726   0.0827   0.2521     O
O       0.2726   0.4173   0.9979     O
C       0.2749   0.0716   0.1508     C
C       0.2749   0.4284   0.0992     C
Zn     0.27518  0.73032  0.02687    Zn
Zn     0.27518  0.76968  0.22313    Zn
C       0.2753   0.1054   0.0984     C
C       0.2753   0.3946   0.1516     C
C        0.277   0.1134   0.2062     C
C        0.277   0.3866   0.0438     C
H       0.2786   0.1557   0.0967     H
O       0.2786   0.1823   0.2009     O
O       0.2786   0.3177   0.0491     O
H       0.2786   0.3443   0.1533     H
O       0.2797   0.1708   0.9924     O
O       0.2797   0.3292   0.2576     O
O       0.2929   0.6727   0.1953     O
O       0.2929   0.8273   0.0547     O
O       0.2976   0.6636   0.0865     O
O       0.2976   0.8364   0.1635     O
O       0.3177   0.7214   0.9509     O
O       0.3177   0.7786   0.2991     O
O       0.3222   0.6587   0.6119     O
O       0.3222   0.8413   0.6381     O
O       0.3273   0.2071   0.4453     O
O       0.3273   0.2929   0.8047     O
O       0.3292   0.7203   0.7424     O
O       0.3292   0.7797   0.5076     O
O       0.3364   0.2024   0.3365     O
O       0.3364   0.2976   0.9135     O
O       0.3413   0.1778   0.8619     O
O       0.3413   0.3222   0.3881     O
H       0.3443   0.7214   0.8467     H
H       0.3443   0.7786   0.4033     H
P      0.35866  0.24269  0.39166     P
P      0.35866  0.25731  0.85834     P
Zn     0.37295     0.75    0.625    Zn
C       0.3866    0.723   0.9562     C
C       0.3866    0.777   0.2938     C
C       0.3946   0.7247   0.8484     C
C       0.3946   0.7753   0.4016     C
C       0.3948   0.7283    0.741     C
C       0.3948   0.7717    0.509     C
O       0.4173   0.7274   0.0021     O
O       0.4173   0.7726   0.2479     O
C       0.4284   0.7251   0.9008     C
C       0.4284   0.7749   0.3492     C
O       0.4322   0.7396   0.6957     O
O       0.4322   0.7604   0.5543     O
C       0.4342    0.729   0.7976     C
C       0.4342    0.771   0.4524     C
C       0.4547    0.235   0.3972     C
C       0.4547    0.265   0.8528     C
H       0.4645   0.2354   0.4834     H
H       0.4645   0.2646   0.7666     H
H       0.4744   0.2326   0.3107     H
H       0.4744   0.2674   0.9393     H
C        0.491   0.2334   0.4494     C
C        0.491   0.2666   0.8006     C
C       0.4971   0.2311   0.3465     C
C       0.4971   0.2689   0.9035     C
C       0.5029   0.7311   0.9035     C
C       0.5029   0.7689   0.3465     C
C        0.509   0.7334   0.8006     C
C        0.509   0.7666   0.4494     C
H       0.5256   0.7326   0.9393     H
H       0.5256   0.7674   0.3107     H
H       0.5355   0.7354   0.7666     H
H       0.5355   0.7646   0.4834     H
C       0.5453    0.735   0.8528     C
C       0.5453    0.765   0.3972     C
C       0.5658    0.229   0.4524     C
C       0.5658    0.271   0.7976     C
O       0.5678   0.2396   0.5543     O
O       0.5678   0.2604   0.6957     O
C       0.5716   0.2251   0.3492     C
C       0.5716   0.2749   0.9008     C
O       0.5827   0.2274   0.2479     O
O       0.5827   0.2726   0.0021     O
C       0.6052   0.2283    0.509     C
C       0.6052   0.2717    0.741     C
C       0.6054   0.2247   0.4016     C
C       0.6054   0.2753   0.8484     C
C       0.6134    0.223   0.2938     C
C       0.6134    0.277   0.9562     C
Zn     0.62705     0.25    0.625    Zn
P      0.64134  0.74269  0.85834     P
P      0.64134  0.75731  0.39166     P
H       0.6557   0.2214   0.4033     H
H       0.6557   0.2786   0.8467     H
O       0.6587   0.6778   0.3881     O
O       0.6587   0.8222   0.8619     O
O       0.6636   0.7024   0.9135     O
O       0.6636   0.7976   0.3365     O
O       0.6708   0.2203   0.5076     O
O       0.6708   0.2797   0.7424     O
O       0.6727   0.7071   0.8047     O
O       0.6727   0.7929   0.4453     O
O       0.6778   0.1587   0.6381     O
O       0.6778   0.3413   0.6119     O
O       0.6823   0.2214   0.2991     O
O       0.6823   0.2786   0.9509     O
O       0.7024   0.1636   0.1635     O
O       0.7024   0.3364   0.0865     O
O       0.7071   0.1727   0.0547     O
O       0.7071   0.3273   0.1953     O
O       0.7203   0.6708   0.2576     O
O       0.7203   0.8292   0.9924     O
H       0.7214   0.6557   0.1533     H
O       0.7214   0.6823   0.0491     O
O       0.7214   0.8177   0.2009     O
H       0.7214   0.8443   0.0967     H
C        0.723   0.6134   0.0438     C
C        0.723   0.8866   0.2062     C
C       0.7247   0.6054   0.1516     C
C       0.7247   0.8946   0.0984     C
Zn     0.72482  0.23032  0.22313    Zn
Zn     0.72482  0.26968  0.02687    Zn
C       0.7251   0.5716   0.0992     C
C       0.7251   0.9284   0.1508     C
O       0.7274   0.5827   0.9979     O
O       0.7274   0.9173   0.2521     O
C       0.7283   0.6052    0.259     C
C       0.7283   0.8948    0.991     C
C        0.729   0.5658   0.2024     C
C        0.729   0.9342   0.0476     C
Zn     0.73032  0.72482  0.97313    Zn
Zn     0.73032  0.77518  0.27687    Zn
C       0.7311   0.0029   0.1535     C
C       0.7311   0.4971   0.0965     C
H       0.7326   0.0256   0.1893     H
H       0.7326   0.4744   0.0607     H
C       0.7334    0.009   0.0506     C
C       0.7334    0.491   0.1994     C
C        0.735   0.0453   0.1028     C
C        0.735   0.4547   0.1472     C
H       0.7354   0.0355   0.0166     H
H       0.7354   0.4645   0.2334     H
O       0.7396   0.5678   0.3043     O
O       0.7396   0.9322   0.9457     O
P      0.74269  0.14134  0.10834     P
P      0.74269  0.35866  0.14166     P
Zn        0.75  0.62705    0.375    Zn
Zn        0.75  0.87295    0.875    Zn
P      0.75731  0.14134  0.64166     P
P      0.75731  0.35866  0.60834     P
O       0.7604   0.5678   0.4457     O
O       0.7604   0.9322   0.8043     O
H       0.7646   0.0355   0.7334     H
H       0.7646   0.4645   0.5166     H
C        0.765   0.0453   0.6472     C
C        0.765   0.4547   0.6028     C
C       0.7666    0.009   0.6994     C
C       0.7666    0.491   0.5506     C
H       0.7674   0.0256   0.5607     H
H       0.7674   0.4744   0.6893     H
C       0.7689   0.0029   0.5965     C
C       0.7689   0.4971   0.6535     C
Zn     0.76968  0.72482  0.77687    Zn
Zn     0.76968  0.77518  0.47313    Zn
C        0.771   0.5658   0.5476     C
C        0.771   0.9342   0.7024     C
C       0.7717   0.6052    0.491     C
C       0.7717   0.8948    0.759     C
O       0.7726   0.5827   0.7521     O
O       0.7726   0.9173   0.4979     O
C       0.7749   0.5716   0.6508     C
C       0.7749   0.9284   0.5992     C
Zn     0.77518  0.23032  0.52687    Zn
Zn     0.77518  0.26968  0.72313    Zn
C       0.7753   0.6054   0.5984     C
C       0.7753   0.8946   0.6516     C
C        0.777   0.6134   0.7062     C
C        0.777   0.8866   0.5438     C
H       0.7786   0.6557   0.5967     H
O       0.7786   0.6823   0.7009     O
O       0.7786   0.8177   0.5491     O
H       0.7786   0.8443   0.6533     H
O       0.7797   0.6708   0.4924     O
O       0.7797   0.8292   0.7576     O
O       0.7929   0.1727   0.6953     O
O       0.7929   0.3273   0.5547     O
O       0.7976   0.1636   0.5865     O
O       0.7976   0.3364   0.6635     O
O       0.8177   0.2214   0.4509     O
O       0.8177   0.2786   0.7991     O
O       0.8222   0.1587   0.1119     O
O       0.8222   0.3413   0.1381     O
O       0.8273   0.7071   0.9453     O
O       0.8273   0.7929   0.3047     O
O       0.8292   0.2203   0.2424     O
O       0.8292   0.2797   0.0076     O
O       0.8364   0.7024   0.8365     O
O       0.8364   0.7976   0.4135     O
O       0.8413   0.6778   0.3619     O
O       0.8413   0.8222   0.8881     O
H       0.8443   0.2214   0.3467     H
H       0.8443   0.2786   0.9033     H
P      0.85866  0.74269  0.89166     P
P      0.85866  0.75731  0.35834     P
Zn     0.87295     0.25    0.125    Zn
C       0.8866    0.223   0.4562     C
C       0.8866    0.277   0.7938     C
C       0.8946   0.2247   0.3484     C
C       0.8946   0.2753   0.9016     C
C       0.8948   0.2283    0.241     C
C       0.8948   0.2717    0.009     C
O       0.9173   0.2274   0.5021     O
O       0.9173   0.2726   0.7479     O
C       0.9284   0.2251   0.4008     C
C       0.9284   0.2749   0.8492     C
O       0.9322   0.2396   0.1957     O
O       0.9322   0.2604   0.0543     O
C       0.9342    0.229   0.2976     C
C       0.9342    0.271   0.9524     C
C       0.9547    0.735   0.8972     C
C       0.9547    0.765   0.3528     C
H       0.9645   0.7354   0.9834     H
H       0.9645   0.7646   0.2666     H
H       0.9744   0.7326   0.8107     H
H       0.9744   0.7674   0.4393     H
C        0.991   0.7334   0.9494     C
C        0.991   0.7666   0.3006     C
C       0.9971   0.7311   0.8465     C
C       0.9971   0.7689   0.4035     C
