data_I
_chemical_name_common  '/home/zhangsd/repos/MofS-CGCNN/ML/data/SSD/clean_cifs/MAGBIH_clean'
_cell_length_a 28.54000
_cell_length_b 12.98300
_cell_length_c 15.83400
_cell_angle_alpha 90.00000
_cell_angle_beta  106.10400
_cell_angle_gamma 90.00000
_space_group_name_H-M_alt      'P 1'


loop_
_space_group_symop_operation_xyz
  'x, y, z' 

loop_
_atom_site_label
_atom_site_fract_x
_atom_site_fract_y
_atom_site_fract_z
_atom_site_type_symbol
Zn         0.0  0.38679     0.75    Zn
Zn         0.0  0.61321     0.25    Zn
O      0.02727    0.497   0.6958     O
O      0.02727    0.503   0.1958     O
O      0.04144   0.2884   0.8243     O
O      0.04144   0.7116   0.3243     O
C       0.0446   0.4974   0.6313     C
C       0.0446   0.5026   0.1313     C
O      0.05062   0.4201   0.5911     O
O      0.05062   0.5799   0.0911     O
H       0.0529    0.321   0.2111     H
H       0.0529    0.679   0.7111     H
C      0.05816   0.3974   0.1046     C
C      0.05816   0.6026   0.6046     C
C       0.0598   0.3132   0.1574     C
C       0.0598   0.6868   0.6574     C
H        0.066    0.098    0.302     H
H        0.066    0.902    0.802     H
O      0.06644   0.1482   0.2663     O
O      0.06644   0.8518   0.7663     O
C      0.06924   0.3846   0.0259     C
C      0.06924   0.6154   0.5259     C
H       0.0693   0.4419   0.9907     H
H       0.0693   0.5581   0.4907     H
C       0.0714   0.2167   0.1323     C
C       0.0714   0.7833   0.6323     C
C       0.0722    0.126   0.1896     C
C       0.0722    0.874   0.6896     C
O       0.0769   0.0395   0.1677     O
O       0.0769   0.9605   0.6677     O
C      0.08035   0.2885   0.9974     C
C      0.08035   0.7115   0.4974     C
C      0.08177   0.2055   0.0522     C
C      0.08177   0.7945   0.5522     C
H       0.0898   0.1408   0.0353     H
H       0.0898   0.8592   0.5353     H
P      0.09096  0.28063  0.89085     P
P      0.09096  0.71937  0.39085     P
O      0.11334   0.1747   0.8824     O
O      0.11334   0.8253   0.3824     O
O      0.12377   0.3703   0.8833     O
O      0.12377   0.6297   0.3833     O
Zn     0.18189  0.13605  0.91756    Zn
Zn     0.18189  0.86395  0.41756    Zn
O      0.18407   0.0213    0.422     O
O      0.18407   0.9787    0.922     O
O      0.18456   0.4097   0.4539     O
O      0.18456   0.5903   0.9539     O
O      0.18939   0.0436   0.7986     O
O      0.18939   0.9564   0.2986     O
C      0.19033   0.0325   0.3463     C
C      0.19033   0.9675   0.8463     C
H       0.1905   0.2184   0.4201     H
H       0.1905   0.7816   0.9201     H
Zn     0.19311  0.39095  0.93225    Zn
Zn     0.19311  0.60905  0.43225    Zn
C      0.19609   0.2255   0.3652     C
C      0.19609   0.7745   0.8652     C
C      0.19805   0.1389   0.3155     C
C      0.19805   0.8611   0.8155     C
C      0.19917   0.4163   0.3873     C
C      0.19917   0.5837   0.8873     C
O      0.20166    0.163  0.04499     O
O      0.20166    0.837  0.54499     O
C      0.20238   0.3227    0.334     C
C      0.20238   0.6773    0.834     C
C      0.20727   0.1502   0.2352     C
C      0.20727   0.8498   0.7352     C
H       0.2092    0.092   0.2021     H
H       0.2092    0.908   0.7021     H
O      0.21124   0.4986    0.861     O
O      0.21124   0.5014    0.361     O
O       0.2115   0.3586  0.05723     O
O       0.2115   0.6414  0.55723     O
C       0.2116   0.3327   0.2528     C
C       0.2116   0.6673   0.7528     C
C      0.21378   0.2469   0.2026     C
C      0.21378   0.7531   0.7026     C
H       0.2164   0.3978   0.2321     H
H       0.2164   0.6022   0.7321     H
O      0.21745   0.2583  0.88473     O
O      0.21745   0.7417  0.38473     O
P      0.22669  0.25381  0.09752     P
P      0.22669  0.74619  0.59752     P
P      0.27331  0.24619  0.90248     P
P      0.27331  0.75381  0.40248     P
O      0.28255   0.2417  0.11527     O
O      0.28255   0.7583  0.61527     O
H       0.2836   0.1022   0.7679     H
H       0.2836   0.8978   0.2679     H
C      0.28622   0.2531   0.7974     C
C      0.28622   0.7469   0.2974     C
C       0.2884   0.1673   0.7472     C
C       0.2884   0.8327   0.2472     C
O       0.2885   0.1414  0.94277     O
O       0.2885   0.8586  0.44277     O
O      0.28876   0.0014    0.139     O
O      0.28876   0.9986    0.639     O
H       0.2908    0.408   0.7979     H
H       0.2908    0.592   0.2979     H
C      0.29273   0.3498   0.7648     C
C      0.29273   0.6502   0.2648     C
C      0.29762   0.1773    0.666     C
C      0.29762   0.8227    0.166     C
O      0.29834    0.337  0.95501     O
O      0.29834    0.663  0.45501     O
C      0.30083   0.0837   0.6127     C
C      0.30083   0.9163   0.1127     C
C      0.30195   0.3611   0.6845     C
C      0.30195   0.6389   0.1845     C
C      0.30391   0.2745   0.6348     C
C      0.30391   0.7255   0.1348     C
Zn     0.30689  0.10905  0.06775    Zn
Zn     0.30689  0.89095  0.56775    Zn
H       0.3095   0.2816   0.5799     H
H       0.3095   0.7184   0.0799     H
C      0.30967   0.4675   0.6537     C
C      0.30967   0.5325   0.1537     C
O      0.31061   0.4564   0.2014     O
O      0.31061   0.5436   0.7014     O
O      0.31544   0.0903   0.5461     O
O      0.31544   0.9097   0.0461     O
O      0.31593   0.4787    0.578     O
O      0.31593   0.5213    0.078     O
Zn     0.31811  0.36395  0.08244    Zn
Zn     0.31811  0.63605  0.58244    Zn
O      0.37623   0.1297   0.1167     O
O      0.37623   0.8703   0.6167     O
O      0.38666   0.3253   0.1176     O
O      0.38666   0.6747   0.6176     O
P      0.40904  0.21937  0.10915     P
P      0.40904  0.78063  0.60915     P
H       0.4102   0.3592   0.9647     H
H       0.4102   0.6408   0.4647     H
C      0.41823   0.2945   0.9478     C
C      0.41823   0.7055   0.4478     C
C      0.41965   0.2115   0.0026     C
C      0.41965   0.7885   0.5026     C
O       0.4231   0.4605   0.8323     O
O       0.4231   0.5395   0.3323     O
C       0.4278    0.374   0.8104     C
C       0.4278    0.626   0.3104     C
C       0.4286   0.2833   0.8677     C
C       0.4286   0.7167   0.3677     C
H       0.4307   0.0581   0.0093     H
H       0.4307   0.9419   0.5093     H
C      0.43076   0.1154   0.9741     C
C      0.43076   0.8846   0.4741     C
O      0.43356   0.3518   0.7337     O
O      0.43356   0.6482   0.2337     O
H        0.434    0.402    0.698     H
H        0.434    0.598    0.198     H
C       0.4402   0.1868   0.8426     C
C       0.4402   0.8132   0.3426     C
C      0.44184   0.1026   0.8954     C
C      0.44184   0.8974   0.3954     C
H       0.4471    0.179   0.7889     H
H       0.4471    0.821   0.2889     H
O      0.44938   0.0799   0.4089     O
O      0.44938   0.9201   0.9089     O
C       0.4554   0.0026   0.3687     C
C       0.4554   0.9974   0.8687     C
O      0.45856   0.2116   0.1757     O
O      0.45856   0.7884   0.6757     O
O      0.47273    0.003   0.3042     O
O      0.47273    0.997   0.8042     O
Zn         0.5  0.11321     0.25    Zn
Zn         0.5  0.88679     0.75    Zn
O      0.52727    0.003   0.1958     O
O      0.52727    0.997   0.6958     O
O      0.54144   0.2116   0.3243     O
O      0.54144   0.7884   0.8243     O
C       0.5446   0.0026   0.1313     C
C       0.5446   0.9974   0.6313     C
O      0.55062   0.0799   0.0911     O
O      0.55062   0.9201   0.5911     O
H       0.5529    0.179   0.7111     H
H       0.5529    0.821   0.2111     H
C      0.55816   0.1026   0.6046     C
C      0.55816   0.8974   0.1046     C
C       0.5598   0.1868   0.6574     C
C       0.5598   0.8132   0.1574     C
H        0.566    0.402    0.802     H
H        0.566    0.598    0.302     H
O      0.56644   0.3518   0.7663     O
O      0.56644   0.6482   0.2663     O
C      0.56924   0.1154   0.5259     C
C      0.56924   0.8846   0.0259     C
H       0.5693   0.0581   0.4907     H
H       0.5693   0.9419   0.9907     H
C       0.5714   0.2833   0.6323     C
C       0.5714   0.7167   0.1323     C
C       0.5722    0.374   0.6896     C
C       0.5722    0.626   0.1896     C
O       0.5769   0.4605   0.6677     O
O       0.5769   0.5395   0.1677     O
C      0.58035   0.2115   0.4974     C
C      0.58035   0.7885   0.9974     C
C      0.58177   0.2945   0.5522     C
C      0.58177   0.7055   0.0522     C
H       0.5898   0.3592   0.5353     H
H       0.5898   0.6408   0.0353     H
P      0.59096  0.21937  0.39085     P
P      0.59096  0.78063  0.89085     P
O      0.61334   0.3253   0.3824     O
O      0.61334   0.6747   0.8824     O
O      0.62377   0.1297   0.3833     O
O      0.62377   0.8703   0.8833     O
Zn     0.68189  0.36395  0.41756    Zn
Zn     0.68189  0.63605  0.91756    Zn
O      0.68407   0.4787    0.922     O
O      0.68407   0.5213    0.422     O
O      0.68456   0.0903   0.9539     O
O      0.68456   0.9097   0.4539     O
O      0.68939   0.4564   0.2986     O
O      0.68939   0.5436   0.7986     O
C      0.69033   0.4675   0.8463     C
C      0.69033   0.5325   0.3463     C
H       0.6905   0.2816   0.9201     H
H       0.6905   0.7184   0.4201     H
Zn     0.69311  0.10905  0.43225    Zn
Zn     0.69311  0.89095  0.93225    Zn
C      0.69609   0.2745   0.8652     C
C      0.69609   0.7255   0.3652     C
C      0.69805   0.3611   0.8155     C
C      0.69805   0.6389   0.3155     C
C      0.69917   0.0837   0.8873     C
C      0.69917   0.9163   0.3873     C
O      0.70166    0.337  0.54499     O
O      0.70166    0.663  0.04499     O
C      0.70238   0.1773    0.834     C
C      0.70238   0.8227    0.334     C
C      0.70727   0.3498   0.7352     C
C      0.70727   0.6502   0.2352     C
H       0.7092    0.408   0.7021     H
H       0.7092    0.592   0.2021     H
O      0.71124   0.0014    0.361     O
O      0.71124   0.9986    0.861     O
O       0.7115   0.1414  0.55723     O
O       0.7115   0.8586  0.05723     O
C       0.7116   0.1673   0.7528     C
C       0.7116   0.8327   0.2528     C
C      0.71378   0.2531   0.7026     C
C      0.71378   0.7469   0.2026     C
H       0.7164   0.1022   0.7321     H
H       0.7164   0.8978   0.2321     H
O      0.71745   0.2417  0.38473     O
O      0.71745   0.7583  0.88473     O
P      0.72669  0.24619  0.59752     P
P      0.72669  0.75381  0.09752     P
P      0.77331  0.25381  0.40248     P
P      0.77331  0.74619  0.90248     P
O      0.78255   0.2583  0.61527     O
O      0.78255   0.7417  0.11527     O
H       0.7836   0.3978   0.2679     H
H       0.7836   0.6022   0.7679     H
C      0.78622   0.2469   0.2974     C
C      0.78622   0.7531   0.7974     C
C       0.7884   0.3327   0.2472     C
C       0.7884   0.6673   0.7472     C
O       0.7885   0.3586  0.44277     O
O       0.7885   0.6414  0.94277     O
O      0.78876   0.4986    0.639     O
O      0.78876   0.5014    0.139     O
H       0.7908    0.092   0.2979     H
H       0.7908    0.908   0.7979     H
C      0.79273   0.1502   0.2648     C
C      0.79273   0.8498   0.7648     C
C      0.79762   0.3227    0.166     C
C      0.79762   0.6773    0.666     C
O      0.79834    0.163  0.45501     O
O      0.79834    0.837  0.95501     O
C      0.80083   0.4163   0.1127     C
C      0.80083   0.5837   0.6127     C
C      0.80195   0.1389   0.1845     C
C      0.80195   0.8611   0.6845     C
C      0.80391   0.2255   0.1348     C
C      0.80391   0.7745   0.6348     C
Zn     0.80689  0.39095  0.56775    Zn
Zn     0.80689  0.60905  0.06775    Zn
H       0.8095   0.2184   0.0799     H
H       0.8095   0.7816   0.5799     H
C      0.80967   0.0325   0.1537     C
C      0.80967   0.9675   0.6537     C
O      0.81061   0.0436   0.7014     O
O      0.81061   0.9564   0.2014     O
O      0.81544   0.4097   0.0461     O
O      0.81544   0.5903   0.5461     O
O      0.81593   0.0213    0.078     O
O      0.81593   0.9787    0.578     O
Zn     0.81811  0.13605  0.58244    Zn
Zn     0.81811  0.86395  0.08244    Zn
O      0.87623   0.3703   0.6167     O
O      0.87623   0.6297   0.1167     O
O      0.88666   0.1747   0.6176     O
O      0.88666   0.8253   0.1176     O
P      0.90904  0.28063  0.60915     P
P      0.90904  0.71937  0.10915     P
H       0.9102   0.1408   0.4647     H
H       0.9102   0.8592   0.9647     H
C      0.91823   0.2055   0.4478     C
C      0.91823   0.7945   0.9478     C
C      0.91965   0.2885   0.5026     C
C      0.91965   0.7115   0.0026     C
O       0.9231   0.0395   0.3323     O
O       0.9231   0.9605   0.8323     O
C       0.9278    0.126   0.3104     C
C       0.9278    0.874   0.8104     C
C       0.9286   0.2167   0.3677     C
C       0.9286   0.7833   0.8677     C
H       0.9307   0.4419   0.5093     H
H       0.9307   0.5581   0.0093     H
C      0.93076   0.3846   0.4741     C
C      0.93076   0.6154   0.9741     C
O      0.93356   0.1482   0.2337     O
O      0.93356   0.8518   0.7337     O
H        0.934    0.098    0.198     H
H        0.934    0.902    0.698     H
C       0.9402   0.3132   0.3426     C
C       0.9402   0.6868   0.8426     C
C      0.94184   0.3974   0.3954     C
C      0.94184   0.6026   0.8954     C
H       0.9471    0.321   0.2889     H
H       0.9471    0.679   0.7889     H
O      0.94938   0.4201   0.9089     O
O      0.94938   0.5799   0.4089     O
C       0.9554   0.4974   0.8687     C
C       0.9554   0.5026   0.3687     C
O      0.95856   0.2884   0.6757     O
O      0.95856   0.7116   0.1757     O
O      0.97273    0.497   0.8042     O
O      0.97273    0.503   0.3042     O
