data_I
_chemical_name_common  '/home/zhangsd/repos/MofS-CGCNN/ML/data/SSD/clean_cifs/MAGVOG05_clean'
_cell_length_a 10.59600
_cell_length_b 10.29500
_cell_length_c  6.14100
_cell_angle_alpha 90.00000
_cell_angle_beta  114.67000
_cell_angle_gamma 90.00000
_space_group_name_H-M_alt      'P 1'


loop_
_space_group_symop_operation_xyz
  'x, y, z' 

loop_
_atom_site_label
_atom_site_fract_x
_atom_site_fract_y
_atom_site_fract_z
_atom_site_type_symbol
Ag         0.0      0.5      0.0    Ag
Ag         0.0      0.5      0.5    Ag
H       0.1069   0.2296   0.4406     H
H       0.1069   0.7704   0.9406     H
H       0.1623   0.3238   0.2983     H
H       0.1623   0.6762   0.7983     H
C        0.182   0.2871    0.455     C
C        0.182   0.7129    0.955     C
N       0.1967   0.3912    0.627     N
N       0.1967   0.6088    0.127     N
H       0.2162    0.357   0.7725     H
H       0.2162    0.643   0.2725     H
H       0.2334   0.0553   0.3605     H
H       0.2334   0.9447   0.8605     H
H       0.2666   0.4447   0.6395     H
H       0.2666   0.5553   0.1395     H
H       0.2838    0.143   0.2275     H
H       0.2838    0.857   0.7275     H
N       0.3033   0.1088    0.373     N
N       0.3033   0.8912    0.873     N
C        0.318   0.2129    0.545     C
C        0.318   0.7871    0.045     C
H       0.3377   0.1762   0.7017     H
H       0.3377   0.8238   0.2017     H
H       0.3931   0.2704   0.5594     H
H       0.3931   0.7296   0.0594     H
Ag         0.5      0.0      0.0    Ag
Ag         0.5      0.0      0.5    Ag
H       0.6069   0.2704   0.9406     H
H       0.6069   0.7296   0.4406     H
H       0.6623   0.1762   0.7983     H
H       0.6623   0.8238   0.2983     H
C        0.682   0.2129    0.955     C
C        0.682   0.7871    0.455     C
N       0.6967   0.1088    0.127     N
N       0.6967   0.8912    0.627     N
H       0.7162    0.143   0.2725     H
H       0.7162    0.857   0.7725     H
H       0.7334   0.4447   0.8605     H
H       0.7334   0.5553   0.3605     H
H       0.7666   0.0553   0.1395     H
H       0.7666   0.9447   0.6395     H
H       0.7838    0.357   0.7275     H
H       0.7838    0.643   0.2275     H
N       0.8033   0.3912    0.873     N
N       0.8033   0.6088    0.373     N
C        0.818   0.2871    0.045     C
C        0.818   0.7129    0.545     C
H       0.8377   0.3238   0.2017     H
H       0.8377   0.6762   0.7017     H
H       0.8931   0.2296   0.0594     H
H       0.8931   0.7704   0.5594     H
