data_I
_chemical_name_common  '/home/zhangsd/repos/MofS-CGCNN/ML/data/SSD/clean_cifs/MAGVOG02_clean'
_cell_length_a 10.45100
_cell_length_b 10.51000
_cell_length_c  6.26800
_cell_angle_alpha 90.00000
_cell_angle_beta  115.08000
_cell_angle_gamma 90.00000
_space_group_name_H-M_alt      'P 1'


loop_
_space_group_symop_operation_xyz
  'x, y, z' 

loop_
_atom_site_label
_atom_site_fract_x
_atom_site_fract_y
_atom_site_fract_z
_atom_site_type_symbol
Ag         0.0      0.5      0.0    Ag
Ag         0.0      0.5      0.5    Ag
H        0.104   0.2389   0.4199     H
H        0.104   0.7611   0.9199     H
H       0.1778   0.3311   0.3108     H
H       0.1778   0.6689   0.8108     H
C        0.187   0.2915    0.456     C
C        0.187   0.7085    0.956     C
N       0.1889   0.3913   0.6204     N
N       0.1889   0.6087   0.1204     N
H       0.2037   0.3553   0.7591     H
H       0.2037   0.6447   0.2591     H
H       0.2381    0.056   0.3544     H
H       0.2381    0.944   0.8544     H
H       0.2619    0.444   0.6456     H
H       0.2619    0.556   0.1456     H
H       0.2963   0.1447   0.2409     H
H       0.2963   0.8553   0.7409     H
N       0.3111   0.1087   0.3796     N
N       0.3111   0.8913   0.8796     N
C        0.313   0.2085    0.544     C
C        0.313   0.7915    0.044     C
H       0.3222   0.1689   0.6892     H
H       0.3222   0.8311   0.1892     H
H        0.396   0.2611   0.5801     H
H        0.396   0.7389   0.0801     H
Ag         0.5      0.0      0.0    Ag
Ag         0.5      0.0      0.5    Ag
H        0.604   0.2611   0.9199     H
H        0.604   0.7389   0.4199     H
H       0.6778   0.1689   0.8108     H
H       0.6778   0.8311   0.3108     H
C        0.687   0.2085    0.956     C
C        0.687   0.7915    0.456     C
N       0.6889   0.1087   0.1204     N
N       0.6889   0.8913   0.6204     N
H       0.7037   0.1447   0.2591     H
H       0.7037   0.8553   0.7591     H
H       0.7381    0.444   0.8544     H
H       0.7381    0.556   0.3544     H
H       0.7619    0.056   0.1456     H
H       0.7619    0.944   0.6456     H
H       0.7963   0.3553   0.7409     H
H       0.7963   0.6447   0.2409     H
N       0.8111   0.3913   0.8796     N
N       0.8111   0.6087   0.3796     N
C        0.813   0.2915    0.044     C
C        0.813   0.7085    0.544     C
H       0.8222   0.3311   0.1892     H
H       0.8222   0.6689   0.6892     H
H        0.896   0.2389   0.0801     H
H        0.896   0.7611   0.5801     H
