data_I
_chemical_name_common  '/home/zhangsd/repos/MofS-CGCNN/ML/data/SSD/clean_cifs/MAGVOG27_clean'
_cell_length_a 10.28750
_cell_length_b 10.61250
_cell_length_c  6.24000
_cell_angle_alpha 90.00000
_cell_angle_beta  114.68800
_cell_angle_gamma 90.00000
_space_group_name_H-M_alt      'P 1'


loop_
_space_group_symop_operation_xyz
  'x, y, z' 

loop_
_atom_site_label
_atom_site_fract_x
_atom_site_fract_y
_atom_site_fract_z
_atom_site_type_symbol
Ag         0.0      0.5      0.0    Ag
Ag         0.0      0.5      0.5    Ag
H       0.0999   0.2339   0.4297     H
H       0.0999   0.7661   0.9297     H
H       0.1676   0.3263   0.3008     H
H       0.1676   0.6737   0.8008     H
C       0.1826   0.2891   0.4548     C
C       0.1826   0.7109   0.9548     C
N       0.1889   0.3907   0.6194     N
N       0.1889   0.6093   0.1194     N
H       0.2046   0.3559   0.7632     H
H       0.2046   0.6441   0.2632     H
H       0.2349   0.0575   0.3592     H
H       0.2349   0.9425   0.8592     H
H       0.2651   0.4425   0.6408     H
H       0.2651   0.5575   0.1408     H
H       0.2954   0.1441   0.2368     H
H       0.2954   0.8559   0.7368     H
N       0.3111   0.1093   0.3806     N
N       0.3111   0.8907   0.8806     N
C       0.3174   0.2109   0.5452     C
C       0.3174   0.7891   0.0452     C
H       0.3324   0.1737   0.6992     H
H       0.3324   0.8263   0.1992     H
H       0.4001   0.2661   0.5703     H
H       0.4001   0.7339   0.0703     H
Ag         0.5      0.0      0.0    Ag
Ag         0.5      0.0      0.5    Ag
H       0.5999   0.2661   0.9297     H
H       0.5999   0.7339   0.4297     H
H       0.6676   0.1737   0.8008     H
H       0.6676   0.8263   0.3008     H
C       0.6826   0.2109   0.9548     C
C       0.6826   0.7891   0.4548     C
N       0.6889   0.1093   0.1194     N
N       0.6889   0.8907   0.6194     N
H       0.7046   0.1441   0.2632     H
H       0.7046   0.8559   0.7632     H
H       0.7349   0.4425   0.8592     H
H       0.7349   0.5575   0.3592     H
H       0.7651   0.0575   0.1408     H
H       0.7651   0.9425   0.6408     H
H       0.7954   0.3559   0.7368     H
H       0.7954   0.6441   0.2368     H
N       0.8111   0.3907   0.8806     N
N       0.8111   0.6093   0.3806     N
C       0.8174   0.2891   0.0452     C
C       0.8174   0.7109   0.5452     C
H       0.8324   0.3263   0.1992     H
H       0.8324   0.6737   0.6992     H
H       0.9001   0.2339   0.0703     H
H       0.9001   0.7661   0.5703     H
