data_I
_chemical_name_common  '/home/zhangsd/repos/MofS-CGCNN/ML/data/SSD/clean_cifs/MAGVOG20_clean'
_cell_length_a 10.48690
_cell_length_b 10.47980
_cell_length_c  6.32790
_cell_angle_alpha 90.00000
_cell_angle_beta  115.43100
_cell_angle_gamma 90.00000
_space_group_name_H-M_alt      'P 1'


loop_
_space_group_symop_operation_xyz
  'x, y, z' 

loop_
_atom_site_label
_atom_site_fract_x
_atom_site_fract_y
_atom_site_fract_z
_atom_site_type_symbol
Ag         0.0      0.5      0.0    Ag
Ag         0.0      0.5      0.5    Ag
H        0.103   0.2361   0.4163     H
H        0.103   0.7639   0.9163     H
H        0.175   0.3312   0.3098     H
H        0.175   0.6688   0.8098     H
C       0.1846   0.2905   0.4536     C
C       0.1846   0.7095   0.9536     C
N       0.1857   0.3888   0.6179     N
N       0.1857   0.6112   0.1179     N
H       0.1988   0.3511   0.7535     H
H       0.1988   0.6489   0.2535     H
H       0.2404    0.059   0.3523     H
H       0.2404    0.941   0.8523     H
H       0.2596    0.441   0.6477     H
H       0.2596    0.559   0.1477     H
H       0.3012   0.1489   0.2465     H
H       0.3012   0.8511   0.7465     H
N       0.3143   0.1112   0.3821     N
N       0.3143   0.8888   0.8821     N
C       0.3154   0.2095   0.5464     C
C       0.3154   0.7905   0.0464     C
H        0.325   0.1688   0.6902     H
H        0.325   0.8312   0.1902     H
H        0.397   0.2639   0.5837     H
H        0.397   0.7361   0.0837     H
Ag         0.5      0.0      0.0    Ag
Ag         0.5      0.0      0.5    Ag
H        0.603   0.2639   0.9163     H
H        0.603   0.7361   0.4163     H
H        0.675   0.1688   0.8098     H
H        0.675   0.8312   0.3098     H
C       0.6846   0.2095   0.9536     C
C       0.6846   0.7905   0.4536     C
N       0.6857   0.1112   0.1179     N
N       0.6857   0.8888   0.6179     N
H       0.6988   0.1489   0.2535     H
H       0.6988   0.8511   0.7535     H
H       0.7404    0.441   0.8523     H
H       0.7404    0.559   0.3523     H
H       0.7596    0.059   0.1477     H
H       0.7596    0.941   0.6477     H
H       0.8012   0.3511   0.7465     H
H       0.8012   0.6489   0.2465     H
N       0.8143   0.3888   0.8821     N
N       0.8143   0.6112   0.3821     N
C       0.8154   0.2905   0.0464     C
C       0.8154   0.7095   0.5464     C
H        0.825   0.3312   0.1902     H
H        0.825   0.6688   0.6902     H
H        0.897   0.2361   0.0837     H
H        0.897   0.7639   0.5837     H
