data_I
_chemical_name_common  '/home/zhangsd/repos/MofS-CGCNN/ML/data/SSD/clean_cifs/MAGVOG25_clean'
_cell_length_a 10.23630
_cell_length_b 10.65040
_cell_length_c  6.22250
_cell_angle_alpha 90.00000
_cell_angle_beta  114.52200
_cell_angle_gamma 90.00000
_space_group_name_H-M_alt      'P 1'


loop_
_space_group_symop_operation_xyz
  'x, y, z' 

loop_
_atom_site_label
_atom_site_fract_x
_atom_site_fract_y
_atom_site_fract_z
_atom_site_type_symbol
Ag         0.0      0.5      0.0    Ag
Ag         0.0      0.5      0.5    Ag
H       0.0991   0.2343   0.4304     H
H       0.0991   0.7657   0.9304     H
H        0.167   0.3258   0.2998     H
H        0.167   0.6742   0.7998     H
C       0.1821   0.2891   0.4545     C
C       0.1821   0.7109   0.9545     C
N       0.1893   0.3909   0.6199     N
N       0.1893   0.6091   0.1199     N
H       0.2051   0.3565   0.7642     H
H       0.2051   0.6435   0.2642     H
H        0.234   0.0578   0.3595     H
H        0.234   0.9422   0.8595     H
H        0.266   0.4422   0.6405     H
H        0.266   0.5578   0.1405     H
H       0.2949   0.1435   0.2358     H
H       0.2949   0.8565   0.7358     H
N       0.3107   0.1091   0.3801     N
N       0.3107   0.8909   0.8801     N
C       0.3179   0.2109   0.5455     C
C       0.3179   0.7891   0.0455     C
H        0.333   0.1742   0.7002     H
H        0.333   0.8258   0.2002     H
H       0.4009   0.2657   0.5696     H
H       0.4009   0.7343   0.0696     H
Ag         0.5      0.0      0.0    Ag
Ag         0.5      0.0      0.5    Ag
H       0.5991   0.2657   0.9304     H
H       0.5991   0.7343   0.4304     H
H        0.667   0.1742   0.7998     H
H        0.667   0.8258   0.2998     H
C       0.6821   0.2109   0.9545     C
C       0.6821   0.7891   0.4545     C
N       0.6893   0.1091   0.1199     N
N       0.6893   0.8909   0.6199     N
H       0.7051   0.1435   0.2642     H
H       0.7051   0.8565   0.7642     H
H        0.734   0.4422   0.8595     H
H        0.734   0.5578   0.3595     H
H        0.766   0.0578   0.1405     H
H        0.766   0.9422   0.6405     H
H       0.7949   0.3565   0.7358     H
H       0.7949   0.6435   0.2358     H
N       0.8107   0.3909   0.8801     N
N       0.8107   0.6091   0.3801     N
C       0.8179   0.2891   0.0455     C
C       0.8179   0.7109   0.5455     C
H        0.833   0.3258   0.2002     H
H        0.833   0.6742   0.7002     H
H       0.9009   0.2343   0.0696     H
H       0.9009   0.7657   0.5696     H
