data_I
_chemical_name_common  '/home/zhangsd/repos/MofS-CGCNN/ML/data/SSD/clean_cifs/MAGVOG12_clean'
_cell_length_a 20.77500
_cell_length_b 19.47900
_cell_length_c  5.95200
_cell_angle_alpha 90.00000
_cell_angle_beta  114.10000
_cell_angle_gamma 90.00000
_space_group_name_H-M_alt      'P 1'


loop_
_space_group_symop_operation_xyz
  'x, y, z' 

loop_
_atom_site_label
_atom_site_fract_x
_atom_site_fract_y
_atom_site_fract_z
_atom_site_type_symbol
Ag         0.0      0.0      0.0    Ag
Ag         0.0      0.0      0.5    Ag
Ag         0.0      0.5      0.0    Ag
Ag         0.0      0.5      0.5    Ag
H       0.0511   0.1403   0.9338     H
H       0.0511   0.8597   0.4338     H
H       0.0599   0.3673   0.4903     H
H       0.0599   0.6327   0.9903     H
H       0.0762   0.0911   0.7745     H
H       0.0762   0.9089   0.2745     H
H       0.0811   0.4143   0.3173     H
H       0.0811   0.5857   0.8173     H
C       0.0879    0.109    0.939     C
C       0.0879    0.891    0.439     C
C       0.0967   0.3968    0.484     C
C       0.0967   0.6032    0.984     C
N        0.097   0.0525    0.117     N
N        0.097   0.9475    0.617     N
N        0.108   0.4539    0.653     N
N        0.108   0.5461    0.153     N
H       0.1095   0.0696   0.2693     H
H       0.1095   0.9304   0.7693     H
H       0.1124    0.228   0.8578     H
H       0.1124    0.772   0.3578     H
H       0.1207   0.4394   0.8091     H
H       0.1207   0.5606   0.3091     H
H       0.1209   0.2672   0.3861     H
H       0.1209   0.7328   0.8861     H
H       0.1315   0.0237   0.1196     H
H       0.1315   0.9763   0.6196     H
H       0.1348   0.1826    0.706     H
H       0.1348   0.8174    0.206     H
H       0.1398   0.3108   0.2221     H
H       0.1398   0.6892   0.7221     H
H       0.1404   0.4835   0.6469     H
H       0.1404   0.5165   0.1469     H
N       0.1464   0.1993    0.859     N
N       0.1464   0.8007    0.359     N
N        0.154   0.2964    0.379     N
N        0.154   0.7036    0.879     N
C       0.1588   0.1442    0.037     C
C       0.1588   0.8558    0.537     C
C       0.1632   0.3556    0.547     C
C       0.1632   0.6444    0.047     C
H       0.1709   0.1622   0.2015     H
H       0.1709   0.8378   0.7015     H
H        0.179   0.3387   0.7142     H
H        0.179   0.6613   0.2142     H
H       0.1957   0.1135   0.0392     H
H       0.1957   0.8865   0.5392     H
H       0.1998   0.3853   0.5395     H
H       0.1998   0.6147   0.0395     H
Ag        0.25     0.25      0.0    Ag
Ag        0.25     0.25      0.5    Ag
Ag        0.25     0.75      0.0    Ag
Ag        0.25     0.75      0.5    Ag
H       0.3002   0.1147   0.4605     H
H       0.3002   0.8853   0.9605     H
H       0.3043   0.3865   0.9608     H
H       0.3043   0.6135   0.4608     H
H        0.321   0.1613   0.2858     H
H        0.321   0.8387   0.7858     H
H       0.3291   0.3378   0.7985     H
H       0.3291   0.6622   0.2985     H
C       0.3368   0.1444    0.453     C
C       0.3368   0.8556    0.953     C
C       0.3412   0.3558    0.963     C
C       0.3412   0.6442    0.463     C
N        0.346   0.2036    0.621     N
N        0.346   0.7964    0.121     N
N       0.3536   0.3007    0.141     N
N       0.3536   0.6993    0.641     N
H       0.3596   0.0165   0.3531     H
H       0.3596   0.9835   0.8531     H
H       0.3602   0.1892   0.7779     H
H       0.3602   0.8108   0.2779     H
H       0.3652   0.3174    0.294     H
H       0.3652   0.6826    0.794     H
H       0.3685   0.4763   0.8804     H
H       0.3685   0.5237   0.3804     H
H       0.3791   0.2328   0.6139     H
H       0.3791   0.7672   0.1139     H
H       0.3793   0.0606   0.1909     H
H       0.3793   0.9394   0.6909     H
H       0.3876    0.272   0.1422     H
H       0.3876    0.728   0.6422     H
H       0.3905   0.4304   0.7307     H
H       0.3905   0.5696   0.2307     H
N        0.392   0.0461    0.347     N
N        0.392   0.9539    0.847     N
N        0.403   0.4475    0.883     N
N        0.403   0.5525    0.383     N
C       0.4033   0.1032    0.516     C
C       0.4033   0.8968    0.016     C
C       0.4121    0.391    0.061     C
C       0.4121    0.609    0.561     C
H       0.4189   0.0857   0.6827     H
H       0.4189   0.9143   0.1827     H
H       0.4238   0.4089   0.2255     H
H       0.4238   0.5911   0.7255     H
H       0.4401   0.1327   0.5097     H
H       0.4401   0.8673   0.0097     H
H       0.4489   0.3597   0.0662     H
H       0.4489   0.6403   0.5662     H
Ag         0.5      0.0      0.0    Ag
Ag         0.5      0.0      0.5    Ag
Ag         0.5      0.5      0.0    Ag
Ag         0.5      0.5      0.5    Ag
H       0.5511   0.3597   0.4338     H
H       0.5511   0.6403   0.9338     H
H       0.5599   0.1327   0.9903     H
H       0.5599   0.8673   0.4903     H
H       0.5762   0.4089   0.2745     H
H       0.5762   0.5911   0.7745     H
H       0.5811   0.0857   0.8173     H
H       0.5811   0.9143   0.3173     H
C       0.5879    0.391    0.439     C
C       0.5879    0.609    0.939     C
C       0.5967   0.1032    0.984     C
C       0.5967   0.8968    0.484     C
N        0.597   0.4475    0.617     N
N        0.597   0.5525    0.117     N
N        0.608   0.0461    0.153     N
N        0.608   0.9539    0.653     N
H       0.6095   0.4304   0.7693     H
H       0.6095   0.5696   0.2693     H
H       0.6124    0.272   0.3578     H
H       0.6124    0.728   0.8578     H
H       0.6207   0.0606   0.3091     H
H       0.6207   0.9394   0.8091     H
H       0.6209   0.2328   0.8861     H
H       0.6209   0.7672   0.3861     H
H       0.6315   0.4763   0.6196     H
H       0.6315   0.5237   0.1196     H
H       0.6348   0.3174    0.206     H
H       0.6348   0.6826    0.706     H
H       0.6398   0.1892   0.7221     H
H       0.6398   0.8108   0.2221     H
H       0.6404   0.0165   0.1469     H
H       0.6404   0.9835   0.6469     H
N       0.6464   0.3007    0.359     N
N       0.6464   0.6993    0.859     N
N        0.654   0.2036    0.879     N
N        0.654   0.7964    0.379     N
C       0.6588   0.3558    0.537     C
C       0.6588   0.6442    0.037     C
C       0.6632   0.1444    0.047     C
C       0.6632   0.8556    0.547     C
H       0.6709   0.3378   0.7015     H
H       0.6709   0.6622   0.2015     H
H        0.679   0.1613   0.2142     H
H        0.679   0.8387   0.7142     H
H       0.6957   0.3865   0.5392     H
H       0.6957   0.6135   0.0392     H
H       0.6998   0.1147   0.0395     H
H       0.6998   0.8853   0.5395     H
Ag        0.75     0.25      0.0    Ag
Ag        0.75     0.25      0.5    Ag
Ag        0.75     0.75      0.0    Ag
Ag        0.75     0.75      0.5    Ag
H       0.8002   0.3853   0.9605     H
H       0.8002   0.6147   0.4605     H
H       0.8043   0.1135   0.4608     H
H       0.8043   0.8865   0.9608     H
H        0.821   0.3387   0.7858     H
H        0.821   0.6613   0.2858     H
H       0.8291   0.1622   0.2985     H
H       0.8291   0.8378   0.7985     H
C       0.8368   0.3556    0.953     C
C       0.8368   0.6444    0.453     C
C       0.8412   0.1442    0.463     C
C       0.8412   0.8558    0.963     C
N        0.846   0.2964    0.121     N
N        0.846   0.7036    0.621     N
N       0.8536   0.1993    0.641     N
N       0.8536   0.8007    0.141     N
H       0.8596   0.4835   0.8531     H
H       0.8596   0.5165   0.3531     H
H       0.8602   0.3108   0.2779     H
H       0.8602   0.6892   0.7779     H
H       0.8652   0.1826    0.794     H
H       0.8652   0.8174    0.294     H
H       0.8685   0.0237   0.3804     H
H       0.8685   0.9763   0.8804     H
H       0.8791   0.2672   0.1139     H
H       0.8791   0.7328   0.6139     H
H       0.8793   0.4394   0.6909     H
H       0.8793   0.5606   0.1909     H
H       0.8876    0.228   0.6422     H
H       0.8876    0.772   0.1422     H
H       0.8905   0.0696   0.2307     H
H       0.8905   0.9304   0.7307     H
N        0.892   0.4539    0.847     N
N        0.892   0.5461    0.347     N
N        0.903   0.0525    0.383     N
N        0.903   0.9475    0.883     N
C       0.9033   0.3968    0.016     C
C       0.9033   0.6032    0.516     C
C       0.9121    0.109    0.561     C
C       0.9121    0.891    0.061     C
H       0.9189   0.4143   0.1827     H
H       0.9189   0.5857   0.6827     H
H       0.9238   0.0911   0.7255     H
H       0.9238   0.9089   0.2255     H
H       0.9401   0.3673   0.0097     H
H       0.9401   0.6327   0.5097     H
H       0.9489   0.1403   0.5662     H
H       0.9489   0.8597   0.0662     H
