data_I
_chemical_name_common  '/home/zhangsd/repos/MofS-CGCNN/ML/data/SSD/clean_cifs/MAGVOG16_clean'
_cell_length_a 10.44020
_cell_length_b 10.51300
_cell_length_c  6.30210
_cell_angle_alpha 90.00000
_cell_angle_beta  115.21700
_cell_angle_gamma 90.00000
_space_group_name_H-M_alt      'P 1'


loop_
_space_group_symop_operation_xyz
  'x, y, z' 

loop_
_atom_site_label
_atom_site_fract_x
_atom_site_fract_y
_atom_site_fract_z
_atom_site_type_symbol
Ag         0.0      0.5      0.0    Ag
Ag         0.0      0.5      0.5    Ag
H        0.103   0.2349   0.4213     H
H        0.103   0.7651   0.9213     H
H       0.1724   0.3288   0.3075     H
H       0.1724   0.6712   0.8075     H
C        0.184   0.2897    0.454     C
C        0.184   0.7103    0.954     C
N       0.1864   0.3894   0.6183     N
N       0.1864   0.6106   0.1183     N
H       0.2003   0.3529   0.7556     H
H       0.2003   0.6471   0.2556     H
H       0.2396   0.0587   0.3548     H
H       0.2396   0.9413   0.8548     H
H       0.2604   0.4413   0.6452     H
H       0.2604   0.5587   0.1452     H
H       0.2997   0.1471   0.2444     H
H       0.2997   0.8529   0.7444     H
N       0.3136   0.1106   0.3817     N
N       0.3136   0.8894   0.8817     N
C        0.316   0.2103    0.546     C
C        0.316   0.7897    0.046     C
H       0.3276   0.1712   0.6925     H
H       0.3276   0.8288   0.1925     H
H        0.397   0.2651   0.5787     H
H        0.397   0.7349   0.0787     H
Ag         0.5      0.0      0.0    Ag
Ag         0.5      0.0      0.5    Ag
H        0.603   0.2651   0.9213     H
H        0.603   0.7349   0.4213     H
H       0.6724   0.1712   0.8075     H
H       0.6724   0.8288   0.3075     H
C        0.684   0.2103    0.954     C
C        0.684   0.7897    0.454     C
N       0.6864   0.1106   0.1183     N
N       0.6864   0.8894   0.6183     N
H       0.7003   0.1471   0.2556     H
H       0.7003   0.8529   0.7556     H
H       0.7396   0.4413   0.8548     H
H       0.7396   0.5587   0.3548     H
H       0.7604   0.0587   0.1452     H
H       0.7604   0.9413   0.6452     H
H       0.7997   0.3529   0.7444     H
H       0.7997   0.6471   0.2444     H
N       0.8136   0.3894   0.8817     N
N       0.8136   0.6106   0.3817     N
C        0.816   0.2897    0.046     C
C        0.816   0.7103    0.546     C
H       0.8276   0.3288   0.1925     H
H       0.8276   0.6712   0.6925     H
H        0.897   0.2349   0.0787     H
H        0.897   0.7651   0.5787     H
