data_I
_chemical_name_common  '/home/zhangsd/repos/MofS-CGCNN/ML/data/SSD/clean_cifs/MAGVOG10_clean'
_cell_length_a 20.85500
_cell_length_b 19.60000
_cell_length_c  6.04090
_cell_angle_alpha 90.00000
_cell_angle_beta  114.21500
_cell_angle_gamma 90.00000
_space_group_name_H-M_alt      'P 1'


loop_
_space_group_symop_operation_xyz
  'x, y, z' 

loop_
_atom_site_label
_atom_site_fract_x
_atom_site_fract_y
_atom_site_fract_z
_atom_site_type_symbol
Ag         0.0      0.0      0.0    Ag
Ag         0.0      0.0      0.5    Ag
Ag         0.0      0.5      0.0    Ag
Ag         0.0      0.5      0.5    Ag
H       0.0525   0.1409   0.9526     H
H       0.0525   0.8591   0.4526     H
H       0.0621   0.3592   0.4755     H
H       0.0621   0.6408   0.9755     H
H       0.0743    0.095     0.78     H
H       0.0743    0.905     0.28     H
H        0.081   0.4048   0.2972     H
H        0.081   0.5952   0.7972     H
C       0.0879   0.1098    0.946     C
C       0.0879   0.8902    0.446     C
N        0.097   0.0504     0.11     N
N        0.097   0.9496     0.61     N
C       0.0974   0.3895    0.464     C
C       0.0974   0.6105    0.964     C
N        0.106   0.4481    0.622     N
N        0.106   0.5519    0.122     N
H       0.1114   0.0647   0.2645     H
H       0.1114   0.9353   0.7645     H
H       0.1153   0.2288   0.8876     H
H       0.1153   0.7712   0.3876     H
H       0.1209   0.4346    0.777     H
H       0.1209   0.5654    0.277     H
H       0.1264   0.2621   0.3783     H
H       0.1264   0.7379   0.8783     H
H       0.1297   0.0218   0.1015     H
H       0.1297   0.9782   0.6015     H
H       0.1335   0.1853   0.7246     H
H       0.1335   0.8147   0.2246     H
H       0.1379   0.4772     0.61     H
H       0.1379   0.5228     0.11     H
H       0.1467    0.305   0.2191     H
H       0.1467    0.695   0.7191     H
N       0.1478      0.2    0.879     N
N       0.1478      0.8    0.379     N
N        0.159   0.2915    0.374     N
N        0.159   0.7085    0.874     N
C       0.1593   0.1429    0.045     C
C       0.1593   0.8571    0.545     C
C       0.1656   0.3511    0.533     C
C       0.1656   0.6489    0.033     C
H        0.173   0.1583   0.2103     H
H        0.173   0.8417   0.7103     H
H       0.1815   0.3356   0.6995     H
H       0.1815   0.6644   0.1995     H
H       0.1949    0.112   0.0383     H
H       0.1949    0.888   0.5383     H
H       0.2009   0.3819   0.5247     H
H       0.2009   0.6181   0.0247     H
Ag        0.25     0.25      0.0    Ag
Ag        0.25     0.25      0.5    Ag
Ag        0.25     0.75      0.0    Ag
Ag        0.25     0.75      0.5    Ag
H       0.2991   0.1181   0.4753     H
H       0.2991   0.8819   0.9753     H
H       0.3051    0.388   0.9617     H
H       0.3051    0.612   0.4617     H
H       0.3185   0.1644   0.3005     H
H       0.3185   0.8356   0.8005     H
H        0.327   0.3417   0.7897     H
H        0.327   0.6583   0.2897     H
C       0.3344   0.1489    0.467     C
C       0.3344   0.8511    0.967     C
C       0.3407   0.3571    0.955     C
C       0.3407   0.6429    0.455     C
N        0.341   0.2085    0.626     N
N        0.341   0.7915    0.126     N
N       0.3522      0.3    0.121     N
N       0.3522      0.7    0.621     N
H       0.3533    0.195   0.7809     H
H       0.3533    0.805   0.2809     H
H       0.3621   0.0228     0.39     H
H       0.3621   0.9772     0.89     H
H       0.3665   0.3147   0.2754     H
H       0.3665   0.6853   0.7754     H
H       0.3703   0.4782   0.8985     H
H       0.3703   0.5218   0.3985     H
H       0.3736   0.2379   0.6217     H
H       0.3736   0.7621   0.1217     H
H       0.3791   0.0654    0.223     H
H       0.3791   0.9346    0.723     H
H       0.3847   0.2712   0.1124     H
H       0.3847   0.7288   0.6124     H
H       0.3886   0.4353   0.7355     H
H       0.3886   0.5647   0.2355     H
N        0.394   0.0519    0.378     N
N        0.394   0.9481    0.878     N
C       0.4026   0.1105    0.536     C
C       0.4026   0.8895    0.036     C
N        0.403   0.4496     0.89     N
N        0.403   0.5504     0.39     N
C       0.4121   0.3902    0.054     C
C       0.4121   0.6098    0.554     C
H        0.419   0.0952   0.7028     H
H        0.419   0.9048   0.2028     H
H       0.4257    0.405     0.22     H
H       0.4257    0.595     0.72     H
H       0.4379   0.1408   0.5245     H
H       0.4379   0.8592   0.0245     H
H       0.4475   0.3591   0.0474     H
H       0.4475   0.6409   0.5474     H
Ag         0.5      0.0      0.0    Ag
Ag         0.5      0.0      0.5    Ag
Ag         0.5      0.5      0.0    Ag
Ag         0.5      0.5      0.5    Ag
H       0.5525   0.3591   0.4526     H
H       0.5525   0.6409   0.9526     H
H       0.5621   0.1408   0.9755     H
H       0.5621   0.8592   0.4755     H
H       0.5743    0.405     0.28     H
H       0.5743    0.595     0.78     H
H        0.581   0.0952   0.7972     H
H        0.581   0.9048   0.2972     H
C       0.5879   0.3902    0.446     C
C       0.5879   0.6098    0.946     C
N        0.597   0.4496     0.61     N
N        0.597   0.5504     0.11     N
C       0.5974   0.1105    0.964     C
C       0.5974   0.8895    0.464     C
N        0.606   0.0519    0.122     N
N        0.606   0.9481    0.622     N
H       0.6114   0.4353   0.7645     H
H       0.6114   0.5647   0.2645     H
H       0.6153   0.2712   0.3876     H
H       0.6153   0.7288   0.8876     H
H       0.6209   0.0654    0.277     H
H       0.6209   0.9346    0.777     H
H       0.6264   0.2379   0.8783     H
H       0.6264   0.7621   0.3783     H
H       0.6297   0.4782   0.6015     H
H       0.6297   0.5218   0.1015     H
H       0.6335   0.3147   0.2246     H
H       0.6335   0.6853   0.7246     H
H       0.6379   0.0228     0.11     H
H       0.6379   0.9772     0.61     H
H       0.6467    0.195   0.7191     H
H       0.6467    0.805   0.2191     H
N       0.6478      0.3    0.379     N
N       0.6478      0.7    0.879     N
N        0.659   0.2085    0.874     N
N        0.659   0.7915    0.374     N
C       0.6593   0.3571    0.545     C
C       0.6593   0.6429    0.045     C
C       0.6656   0.1489    0.033     C
C       0.6656   0.8511    0.533     C
H        0.673   0.3417   0.7103     H
H        0.673   0.6583   0.2103     H
H       0.6815   0.1644   0.1995     H
H       0.6815   0.8356   0.6995     H
H       0.6949    0.388   0.5383     H
H       0.6949    0.612   0.0383     H
H       0.7009   0.1181   0.0247     H
H       0.7009   0.8819   0.5247     H
Ag        0.75     0.25      0.0    Ag
Ag        0.75     0.25      0.5    Ag
Ag        0.75     0.75      0.0    Ag
Ag        0.75     0.75      0.5    Ag
H       0.7991   0.3819   0.9753     H
H       0.7991   0.6181   0.4753     H
H       0.8051    0.112   0.4617     H
H       0.8051    0.888   0.9617     H
H       0.8185   0.3356   0.8005     H
H       0.8185   0.6644   0.3005     H
H        0.827   0.1583   0.2897     H
H        0.827   0.8417   0.7897     H
C       0.8344   0.3511    0.967     C
C       0.8344   0.6489    0.467     C
C       0.8407   0.1429    0.455     C
C       0.8407   0.8571    0.955     C
N        0.841   0.2915    0.126     N
N        0.841   0.7085    0.626     N
N       0.8522      0.2    0.621     N
N       0.8522      0.8    0.121     N
H       0.8533    0.305   0.2809     H
H       0.8533    0.695   0.7809     H
H       0.8621   0.4772     0.89     H
H       0.8621   0.5228     0.39     H
H       0.8665   0.1853   0.7754     H
H       0.8665   0.8147   0.2754     H
H       0.8703   0.0218   0.3985     H
H       0.8703   0.9782   0.8985     H
H       0.8736   0.2621   0.1217     H
H       0.8736   0.7379   0.6217     H
H       0.8791   0.4346    0.723     H
H       0.8791   0.5654    0.223     H
H       0.8847   0.2288   0.6124     H
H       0.8847   0.7712   0.1124     H
H       0.8886   0.0647   0.2355     H
H       0.8886   0.9353   0.7355     H
N        0.894   0.4481    0.878     N
N        0.894   0.5519    0.378     N
C       0.9026   0.3895    0.036     C
C       0.9026   0.6105    0.536     C
N        0.903   0.0504     0.39     N
N        0.903   0.9496     0.89     N
C       0.9121   0.1098    0.554     C
C       0.9121   0.8902    0.054     C
H        0.919   0.4048   0.2028     H
H        0.919   0.5952   0.7028     H
H       0.9257    0.095     0.72     H
H       0.9257    0.905     0.22     H
H       0.9379   0.3592   0.0245     H
H       0.9379   0.6408   0.5245     H
H       0.9475   0.1409   0.5474     H
H       0.9475   0.8591   0.0474     H
