data_I
_chemical_name_common  '/home/zhangsd/repos/MofS-CGCNN/ML/data/SSD/clean_cifs/MAGVOG13_clean'
_cell_length_a 20.26400
_cell_length_b 19.64000
_cell_length_c  5.97570
_cell_angle_alpha 90.00000
_cell_angle_beta  113.84000
_cell_angle_gamma 90.00000
_space_group_name_H-M_alt      'P 1'


loop_
_space_group_symop_operation_xyz
  'x, y, z' 

loop_
_atom_site_label
_atom_site_fract_x
_atom_site_fract_y
_atom_site_fract_z
_atom_site_type_symbol
Ag         0.0      0.0      0.0    Ag
Ag         0.0      0.0      0.5    Ag
Ag         0.0      0.5      0.0    Ag
Ag         0.0      0.5      0.5    Ag
H       0.0472   0.3752   0.4504     H
H       0.0472   0.6248   0.9504     H
H       0.0517   0.1392   0.9438     H
H       0.0517   0.8608   0.4438     H
H       0.0766   0.0904   0.7825     H
H       0.0766   0.9096   0.2825     H
H        0.082   0.4172   0.3025     H
H        0.082   0.5828   0.8025     H
C        0.089   0.1079    0.946     C
C        0.089   0.8921    0.446     C
C       0.0902   0.3995    0.463     C
C       0.0902   0.6005    0.963     C
N       0.0985   0.0516   0.1231     N
N       0.0985   0.9484   0.6231     N
N       0.1033   0.4559    0.634     N
N       0.1033   0.5441    0.134     N
H       0.1098   0.0683   0.2744     H
H       0.1098   0.9317   0.7744     H
H         0.11   0.2608   0.4026     H
H         0.11   0.7392   0.9026     H
H       0.1141   0.2275   0.8869     H
H       0.1141   0.7725   0.3869     H
H        0.117   0.4412    0.789     H
H        0.117   0.5588    0.289     H
H       0.1222   0.3035   0.2211     H
H       0.1222   0.6965   0.7211     H
H        0.134   0.0233   0.1272     H
H        0.134   0.9767   0.6272     H
H       0.1341   0.1858   0.7204     H
H       0.1341   0.8142   0.2204     H
H       0.1366   0.4849   0.6256     H
H       0.1366   0.5151   0.1256     H
N         0.14   0.2909    0.379     N
N         0.14   0.7091    0.879     N
N       0.1482   0.1998    0.876     N
N       0.1482   0.8002    0.376     N
C       0.1532    0.351    0.545     C
C       0.1532    0.649    0.045     C
C       0.1617   0.1423    0.042     C
C       0.1617   0.8577    0.542     C
H       0.1628   0.3352    0.709     H
H       0.1628   0.6648    0.209     H
H        0.176   0.1572   0.2098     H
H        0.176   0.8428   0.7098     H
H       0.1957    0.375   0.5509     H
H       0.1957    0.625   0.0509     H
H       0.1985   0.1125    0.032     H
H       0.1985   0.8875    0.532     H
Ag        0.25     0.25      0.0    Ag
Ag        0.25     0.25      0.5    Ag
Ag        0.25     0.75      0.0    Ag
Ag        0.25     0.75      0.5    Ag
H       0.3015   0.3875    0.968     H
H       0.3015   0.6125    0.468     H
H       0.3043    0.125   0.4491     H
H       0.3043    0.875   0.9491     H
H        0.324   0.3428   0.7902     H
H        0.324   0.6572   0.2902     H
H       0.3372   0.1648    0.291     H
H       0.3372   0.8352    0.791     H
C       0.3383   0.3577    0.958     C
C       0.3383   0.6423    0.458     C
C       0.3468    0.149    0.455     C
C       0.3468    0.851    0.955     C
N       0.3518   0.3002    0.124     N
N       0.3518   0.6998    0.624     N
N         0.36   0.2091    0.621     N
N         0.36   0.7909    0.121     N
H       0.3634   0.0151   0.3744     H
H       0.3634   0.9849   0.8744     H
H       0.3659   0.3142   0.2796     H
H       0.3659   0.6858   0.7796     H
H        0.366   0.4767   0.8728     H
H        0.366   0.5233   0.3728     H
H       0.3778   0.1965   0.7789     H
H       0.3778   0.8035   0.2789     H
H        0.383   0.0588    0.211     H
H        0.383   0.9412    0.711     H
H       0.3859   0.2725   0.1131     H
H       0.3859   0.7275   0.6131     H
H         0.39   0.2392   0.5974     H
H         0.39   0.7608   0.0974     H
H       0.3902   0.4317   0.7256     H
H       0.3902   0.5683   0.2256     H
N       0.3967   0.0441    0.366     N
N       0.3967   0.9559    0.866     N
N       0.4015   0.4484   0.8769     N
N       0.4015   0.5516   0.3769     N
C       0.4098   0.1005    0.537     C
C       0.4098   0.8995    0.037     C
C        0.411   0.3921    0.054     C
C        0.411   0.6079    0.554     C
H        0.418   0.0828   0.6975     H
H        0.418   0.9172   0.1975     H
H       0.4234   0.4096   0.2175     H
H       0.4234   0.5904   0.7175     H
H       0.4483   0.3608   0.0562     H
H       0.4483   0.6392   0.5562     H
H       0.4528   0.1248   0.5496     H
H       0.4528   0.8752   0.0496     H
Ag         0.5      0.0      0.0    Ag
Ag         0.5      0.0      0.5    Ag
Ag         0.5      0.5      0.0    Ag
Ag         0.5      0.5      0.5    Ag
H       0.5472   0.1248   0.9504     H
H       0.5472   0.8752   0.4504     H
H       0.5517   0.3608   0.4438     H
H       0.5517   0.6392   0.9438     H
H       0.5766   0.4096   0.2825     H
H       0.5766   0.5904   0.7825     H
H        0.582   0.0828   0.8025     H
H        0.582   0.9172   0.3025     H
C        0.589   0.3921    0.446     C
C        0.589   0.6079    0.946     C
C       0.5902   0.1005    0.963     C
C       0.5902   0.8995    0.463     C
N       0.5985   0.4484   0.6231     N
N       0.5985   0.5516   0.1231     N
N       0.6033   0.0441    0.134     N
N       0.6033   0.9559    0.634     N
H       0.6098   0.4317   0.7744     H
H       0.6098   0.5683   0.2744     H
H         0.61   0.2392   0.9026     H
H         0.61   0.7608   0.4026     H
H       0.6141   0.2725   0.3869     H
H       0.6141   0.7275   0.8869     H
H        0.617   0.0588    0.289     H
H        0.617   0.9412    0.789     H
H       0.6222   0.1965   0.7211     H
H       0.6222   0.8035   0.2211     H
H        0.634   0.4767   0.6272     H
H        0.634   0.5233   0.1272     H
H       0.6341   0.3142   0.2204     H
H       0.6341   0.6858   0.7204     H
H       0.6366   0.0151   0.1256     H
H       0.6366   0.9849   0.6256     H
N         0.64   0.2091    0.879     N
N         0.64   0.7909    0.379     N
N       0.6482   0.3002    0.376     N
N       0.6482   0.6998    0.876     N
C       0.6532    0.149    0.045     C
C       0.6532    0.851    0.545     C
C       0.6617   0.3577    0.542     C
C       0.6617   0.6423    0.042     C
H       0.6628   0.1648    0.209     H
H       0.6628   0.8352    0.709     H
H        0.676   0.3428   0.7098     H
H        0.676   0.6572   0.2098     H
H       0.6957    0.125   0.0509     H
H       0.6957    0.875   0.5509     H
H       0.6985   0.3875    0.532     H
H       0.6985   0.6125    0.032     H
Ag        0.75     0.25      0.0    Ag
Ag        0.75     0.25      0.5    Ag
Ag        0.75     0.75      0.0    Ag
Ag        0.75     0.75      0.5    Ag
H       0.8015   0.1125    0.468     H
H       0.8015   0.8875    0.968     H
H       0.8043    0.375   0.9491     H
H       0.8043    0.625   0.4491     H
H        0.824   0.1572   0.2902     H
H        0.824   0.8428   0.7902     H
H       0.8372   0.3352    0.791     H
H       0.8372   0.6648    0.291     H
C       0.8383   0.1423    0.458     C
C       0.8383   0.8577    0.958     C
C       0.8468    0.351    0.955     C
C       0.8468    0.649    0.455     C
N       0.8518   0.1998    0.624     N
N       0.8518   0.8002    0.124     N
N         0.86   0.2909    0.121     N
N         0.86   0.7091    0.621     N
H       0.8634   0.4849   0.8744     H
H       0.8634   0.5151   0.3744     H
H       0.8659   0.1858   0.7796     H
H       0.8659   0.8142   0.2796     H
H        0.866   0.0233   0.3728     H
H        0.866   0.9767   0.8728     H
H       0.8778   0.3035   0.2789     H
H       0.8778   0.6965   0.7789     H
H        0.883   0.4412    0.711     H
H        0.883   0.5588    0.211     H
H       0.8859   0.2275   0.6131     H
H       0.8859   0.7725   0.1131     H
H         0.89   0.2608   0.0974     H
H         0.89   0.7392   0.5974     H
H       0.8902   0.0683   0.2256     H
H       0.8902   0.9317   0.7256     H
N       0.8967   0.4559    0.866     N
N       0.8967   0.5441    0.366     N
N       0.9015   0.0516   0.3769     N
N       0.9015   0.9484   0.8769     N
C       0.9098   0.3995    0.037     C
C       0.9098   0.6005    0.537     C
C        0.911   0.1079    0.554     C
C        0.911   0.8921    0.054     C
H        0.918   0.4172   0.1975     H
H        0.918   0.5828   0.6975     H
H       0.9234   0.0904   0.7175     H
H       0.9234   0.9096   0.2175     H
H       0.9483   0.1392   0.5562     H
H       0.9483   0.8608   0.0562     H
H       0.9528   0.3752   0.0496     H
H       0.9528   0.6248   0.5496     H
