data_I
_chemical_name_common  '/home/zhangsd/repos/MofS-CGCNN/ML/data/SSD/clean_cifs/MAGVOG33_clean'
_cell_length_a 10.40210
_cell_length_b 10.54100
_cell_length_c  6.28320
_cell_angle_alpha 90.00000
_cell_angle_beta  115.06000
_cell_angle_gamma 90.00000
_space_group_name_H-M_alt      'P 1'


loop_
_space_group_symop_operation_xyz
  'x, y, z' 

loop_
_atom_site_label
_atom_site_fract_x
_atom_site_fract_y
_atom_site_fract_z
_atom_site_type_symbol
Ag         0.0      0.5      0.0    Ag
Ag         0.0      0.5      0.5    Ag
H       0.1025   0.2348   0.4245     H
H       0.1025   0.7652   0.9245     H
H       0.1705   0.3278   0.3061     H
H       0.1705   0.6722   0.8061     H
C       0.1833   0.2895   0.4541     C
C       0.1833   0.7105   0.9541     C
N       0.1877   0.3898   0.6192     N
N       0.1877   0.6102   0.1192     N
H       0.2022    0.354   0.7576     H
H       0.2022    0.646   0.2576     H
H       0.2383   0.0588   0.3561     H
H       0.2383   0.9412   0.8561     H
H       0.2617   0.4412   0.6439     H
H       0.2617   0.5588   0.1439     H
H       0.2978    0.146   0.2424     H
H       0.2978    0.854   0.7424     H
N       0.3123   0.1102   0.3808     N
N       0.3123   0.8898   0.8808     N
C       0.3167   0.2105   0.5459     C
C       0.3167   0.7895   0.0459     C
H       0.3295   0.1722   0.6939     H
H       0.3295   0.8278   0.1939     H
H       0.3975   0.2652   0.5755     H
H       0.3975   0.7348   0.0755     H
Ag         0.5      0.0      0.0    Ag
Ag         0.5      0.0      0.5    Ag
H       0.6025   0.2652   0.9245     H
H       0.6025   0.7348   0.4245     H
H       0.6705   0.1722   0.8061     H
H       0.6705   0.8278   0.3061     H
C       0.6833   0.2105   0.9541     C
C       0.6833   0.7895   0.4541     C
N       0.6877   0.1102   0.1192     N
N       0.6877   0.8898   0.6192     N
H       0.7022    0.146   0.2576     H
H       0.7022    0.854   0.7576     H
H       0.7383   0.4412   0.8561     H
H       0.7383   0.5588   0.3561     H
H       0.7617   0.0588   0.1439     H
H       0.7617   0.9412   0.6439     H
H       0.7978    0.354   0.7424     H
H       0.7978    0.646   0.2424     H
N       0.8123   0.3898   0.8808     N
N       0.8123   0.6102   0.3808     N
C       0.8167   0.2895   0.0459     C
C       0.8167   0.7105   0.5459     C
H       0.8295   0.3278   0.1939     H
H       0.8295   0.6722   0.6939     H
H       0.8975   0.2348   0.0755     H
H       0.8975   0.7652   0.5755     H
