data_I
_chemical_name_common  '/home/zhangsd/repos/MofS-CGCNN/ML/data/SSD/clean_cifs/MAGVOG15_clean'
_cell_length_a 20.11700
_cell_length_b 19.56500
_cell_length_c  5.96100
_cell_angle_alpha 90.00000
_cell_angle_beta  114.04000
_cell_angle_gamma 90.00000
_space_group_name_H-M_alt      'P 1'


loop_
_space_group_symop_operation_xyz
  'x, y, z' 

loop_
_atom_site_label
_atom_site_fract_x
_atom_site_fract_y
_atom_site_fract_z
_atom_site_type_symbol
Ag         0.0      0.0      0.0    Ag
Ag         0.0      0.0      0.5    Ag
Ag         0.0      0.5      0.0    Ag
Ag         0.0      0.5      0.5    Ag
H       0.0382   0.3651   0.4125     H
H       0.0382   0.6349   0.9125     H
H       0.0593   0.1386   0.9696     H
H       0.0593   0.8614   0.4696     H
H       0.0713   0.4169   0.2848     H
H       0.0713   0.5831   0.7848     H
C       0.0789   0.3954     0.44     C
C       0.0789   0.6046     0.94     C
N       0.0816   0.4476    0.617     N
N       0.0816   0.5524    0.117     N
H       0.0838   0.0935   0.7967     H
H       0.0838   0.9065   0.2967     H
H       0.0859   0.4276    0.758     H
H       0.0859   0.5724    0.258     H
C       0.0962   0.1074    0.965     C
C       0.0962   0.8926    0.465     C
N       0.1038   0.0469    0.126     N
N       0.1038   0.9531    0.626     N
H       0.1113   0.2658   0.3619     H
H       0.1113   0.7342   0.8619     H
H       0.1183   0.0601   0.2839     H
H       0.1183   0.9399   0.7839     H
H       0.1209   0.4743   0.6492     H
H       0.1209   0.5257   0.1492     H
H       0.1244   0.2195   0.8752     H
H       0.1244   0.7805   0.3752     H
H       0.1327   0.3116   0.2094     H
H       0.1327   0.6884   0.7094     H
H       0.1369   0.0175   0.1164     H
H       0.1369   0.9825   0.6164     H
N       0.1449   0.2964    0.364     N
N       0.1449   0.7036    0.864     N
C       0.1483   0.3543    0.529     C
C       0.1483   0.6457    0.029     C
H       0.1553   0.1738   0.7498     H
H       0.1553   0.8262   0.2498     H
H       0.1582   0.3366   0.6915     H
H       0.1582   0.6634   0.1915     H
N       0.1632   0.1932    0.895     N
N       0.1632   0.8068    0.395     N
C       0.1706   0.1399    0.075     C
C       0.1706   0.8601    0.575     C
H       0.1809   0.1591   0.2358     H
H       0.1809   0.8409   0.7358     H
H       0.1883   0.3841   0.5423     H
H       0.1883   0.6159   0.0423     H
H       0.2084   0.1075   0.0874     H
H       0.2084   0.8925   0.5874     H
Ag        0.25     0.25      0.0    Ag
Ag        0.25     0.25      0.5    Ag
Ag        0.25     0.75      0.0    Ag
Ag        0.25     0.75      0.5    Ag
H       0.2916   0.3925   0.9126     H
H       0.2916   0.6075   0.4126     H
H       0.3117   0.1159   0.4577     H
H       0.3117   0.8841   0.9577     H
H       0.3191   0.3409   0.7642     H
H       0.3191   0.6591   0.2642     H
C       0.3294   0.3601    0.925     C
C       0.3294   0.6399    0.425     C
N       0.3368   0.3068    0.105     N
N       0.3368   0.6932    0.605     N
H       0.3418   0.1634   0.3085     H
H       0.3418   0.8366   0.8085     H
H       0.3447   0.3262   0.2502     H
H       0.3447   0.6738   0.7502     H
C       0.3517   0.1457    0.471     C
C       0.3517   0.8543    0.971     C
N       0.3551   0.2036    0.636     N
N       0.3551   0.7964    0.136     N
H       0.3631   0.4825   0.8836     H
H       0.3631   0.5175   0.3836     H
H       0.3673   0.1884   0.7906     H
H       0.3673   0.8116   0.2906     H
H       0.3756   0.2805   0.1248     H
H       0.3756   0.7195   0.6248     H
H       0.3791   0.0257   0.3508     H
H       0.3791   0.9743   0.8508     H
H       0.3817   0.4399   0.7161     H
H       0.3817   0.5601   0.2161     H
H       0.3887   0.2342   0.6381     H
H       0.3887   0.7658   0.1381     H
N       0.3962   0.4531    0.874     N
N       0.3962   0.5469    0.374     N
C       0.4038   0.3926    0.035     C
C       0.4038   0.6074    0.535     C
H       0.4141   0.0724    0.242     H
H       0.4141   0.9276    0.742     H
H       0.4162   0.4065   0.2033     H
H       0.4162   0.5935   0.7033     H
N       0.4184   0.0524    0.383     N
N       0.4184   0.9476    0.883     N
C       0.4211   0.1046     0.56     C
C       0.4211   0.8954     0.06     C
H       0.4287   0.0831   0.7152     H
H       0.4287   0.9169   0.2152     H
H       0.4407   0.3614   0.0304     H
H       0.4407   0.6386   0.5304     H
H       0.4618   0.1349   0.5875     H
H       0.4618   0.8651   0.0875     H
Ag         0.5      0.0      0.0    Ag
Ag         0.5      0.0      0.5    Ag
Ag         0.5      0.5      0.0    Ag
Ag         0.5      0.5      0.5    Ag
H       0.5382   0.1349   0.9125     H
H       0.5382   0.8651   0.4125     H
H       0.5593   0.3614   0.4696     H
H       0.5593   0.6386   0.9696     H
H       0.5713   0.0831   0.7848     H
H       0.5713   0.9169   0.2848     H
C       0.5789   0.1046     0.94     C
C       0.5789   0.8954     0.44     C
N       0.5816   0.0524    0.117     N
N       0.5816   0.9476    0.617     N
H       0.5838   0.4065   0.2967     H
H       0.5838   0.5935   0.7967     H
H       0.5859   0.0724    0.258     H
H       0.5859   0.9276    0.758     H
C       0.5962   0.3926    0.465     C
C       0.5962   0.6074    0.965     C
N       0.6038   0.4531    0.626     N
N       0.6038   0.5469    0.126     N
H       0.6113   0.2342   0.8619     H
H       0.6113   0.7658   0.3619     H
H       0.6183   0.4399   0.7839     H
H       0.6183   0.5601   0.2839     H
H       0.6209   0.0257   0.1492     H
H       0.6209   0.9743   0.6492     H
H       0.6244   0.2805   0.3752     H
H       0.6244   0.7195   0.8752     H
H       0.6327   0.1884   0.7094     H
H       0.6327   0.8116   0.2094     H
H       0.6369   0.4825   0.6164     H
H       0.6369   0.5175   0.1164     H
N       0.6449   0.2036    0.864     N
N       0.6449   0.7964    0.364     N
C       0.6483   0.1457    0.029     C
C       0.6483   0.8543    0.529     C
H       0.6553   0.3262   0.2498     H
H       0.6553   0.6738   0.7498     H
H       0.6582   0.1634   0.1915     H
H       0.6582   0.8366   0.6915     H
N       0.6632   0.3068    0.395     N
N       0.6632   0.6932    0.895     N
C       0.6706   0.3601    0.575     C
C       0.6706   0.6399    0.075     C
H       0.6809   0.3409   0.7358     H
H       0.6809   0.6591   0.2358     H
H       0.6883   0.1159   0.0423     H
H       0.6883   0.8841   0.5423     H
H       0.7084   0.3925   0.5874     H
H       0.7084   0.6075   0.0874     H
Ag        0.75     0.25      0.0    Ag
Ag        0.75     0.25      0.5    Ag
Ag        0.75     0.75      0.0    Ag
Ag        0.75     0.75      0.5    Ag
H       0.7916   0.1075   0.4126     H
H       0.7916   0.8925   0.9126     H
H       0.8117   0.3841   0.9577     H
H       0.8117   0.6159   0.4577     H
H       0.8191   0.1591   0.2642     H
H       0.8191   0.8409   0.7642     H
C       0.8294   0.1399    0.425     C
C       0.8294   0.8601    0.925     C
N       0.8368   0.1932    0.605     N
N       0.8368   0.8068    0.105     N
H       0.8418   0.3366   0.8085     H
H       0.8418   0.6634   0.3085     H
H       0.8447   0.1738   0.7502     H
H       0.8447   0.8262   0.2502     H
C       0.8517   0.3543    0.971     C
C       0.8517   0.6457    0.471     C
N       0.8551   0.2964    0.136     N
N       0.8551   0.7036    0.636     N
H       0.8631   0.0175   0.3836     H
H       0.8631   0.9825   0.8836     H
H       0.8673   0.3116   0.2906     H
H       0.8673   0.6884   0.7906     H
H       0.8756   0.2195   0.6248     H
H       0.8756   0.7805   0.1248     H
H       0.8791   0.4743   0.8508     H
H       0.8791   0.5257   0.3508     H
H       0.8817   0.0601   0.2161     H
H       0.8817   0.9399   0.7161     H
H       0.8887   0.2658   0.1381     H
H       0.8887   0.7342   0.6381     H
N       0.8962   0.0469    0.374     N
N       0.8962   0.9531    0.874     N
C       0.9038   0.1074    0.535     C
C       0.9038   0.8926    0.035     C
H       0.9141   0.4276    0.742     H
H       0.9141   0.5724    0.242     H
H       0.9162   0.0935   0.7033     H
H       0.9162   0.9065   0.2033     H
N       0.9184   0.4476    0.883     N
N       0.9184   0.5524    0.383     N
C       0.9211   0.3954     0.06     C
C       0.9211   0.6046     0.56     C
H       0.9287   0.4169   0.2152     H
H       0.9287   0.5831   0.7152     H
H       0.9407   0.1386   0.5304     H
H       0.9407   0.8614   0.0304     H
H       0.9618   0.3651   0.0875     H
H       0.9618   0.6349   0.5875     H
