data_I
_chemical_name_common  '/home/zhangsd/repos/MofS-CGCNN/ML/data/SSD/clean_cifs/MAGVOG09_clean'
_cell_length_a 20.86200
_cell_length_b 19.68200
_cell_length_c  6.08900
_cell_angle_alpha 90.00000
_cell_angle_beta  114.27100
_cell_angle_gamma 90.00000
_space_group_name_H-M_alt      'P 1'


loop_
_space_group_symop_operation_xyz
  'x, y, z' 

loop_
_atom_site_label
_atom_site_fract_x
_atom_site_fract_y
_atom_site_fract_z
_atom_site_type_symbol
Ag         0.0      0.0      0.0    Ag
Ag         0.0      0.0      0.5    Ag
Ag         0.0      0.5      0.0    Ag
Ag         0.0      0.5      0.5    Ag
H        0.047   0.1414   0.9124     H
H        0.047   0.8586   0.4124     H
H       0.0621   0.3678   0.4849     H
H       0.0621   0.6322   0.9849     H
H       0.0765   0.0879   0.7837     H
H       0.0765   0.9121   0.2837     H
H       0.0807   0.4144   0.3103     H
H       0.0807   0.5856   0.8103     H
C       0.0847   0.1093    0.936     C
C       0.0847   0.8907    0.436     C
N       0.0896   0.0578    0.121     N
N       0.0896   0.9422    0.621     N
H       0.0952   0.0786   0.2593     H
H       0.0952   0.9214   0.7593     H
C       0.0982   0.3968    0.473     C
C       0.0982   0.6032    0.973     C
H       0.1115   0.2263   0.8586     H
H       0.1115   0.7737   0.3586     H
N       0.1116    0.453    0.641     N
N       0.1116    0.547    0.141     N
H       0.1167   0.2702    0.355     H
H       0.1167   0.7298    0.855     H
H       0.1263   0.4385    0.794     H
H       0.1263   0.5615    0.294     H
H       0.1272   0.0309   0.1511     H
H       0.1272   0.9691   0.6511     H
H       0.1345   0.1798   0.7177     H
H       0.1345   0.8202   0.2177     H
H       0.1399   0.3125   0.2024     H
H       0.1399   0.6875   0.7024     H
H       0.1432   0.4824   0.6296     H
H       0.1432   0.5176   0.1296     H
N       0.1457   0.1974    0.865     N
N       0.1457   0.8026    0.365     N
N       0.1509   0.2979    0.354     N
N       0.1509   0.7021    0.854     N
C       0.1553    0.144    0.041     C
C       0.1553    0.856    0.541     C
C       0.1636   0.3556    0.525     C
C       0.1636   0.6444    0.025     C
H       0.1653   0.1627   0.1993     H
H       0.1653   0.8373   0.6993     H
H       0.1809    0.338   0.6877     H
H       0.1809    0.662   0.1877     H
H       0.1927   0.1132   0.0519     H
H       0.1927   0.8868   0.5519     H
H       0.1997   0.3848   0.5145     H
H       0.1997   0.6152   0.0145     H
Ag        0.25     0.25      0.0    Ag
Ag        0.25     0.25      0.5    Ag
Ag        0.25     0.75      0.0    Ag
Ag        0.25     0.75      0.5    Ag
H       0.3003   0.1152   0.4855     H
H       0.3003   0.8848   0.9855     H
H       0.3073   0.3868   0.9481     H
H       0.3073   0.6132   0.4481     H
H       0.3191    0.162   0.3123     H
H       0.3191    0.838   0.8123     H
H       0.3347   0.3373   0.8007     H
H       0.3347   0.6627   0.3007     H
C       0.3364   0.1444    0.475     C
C       0.3364   0.8556    0.975     C
C       0.3447    0.356    0.959     C
C       0.3447    0.644    0.459     C
N       0.3491   0.2021    0.646     N
N       0.3491   0.7979    0.146     N
N       0.3543   0.3026    0.135     N
N       0.3543   0.6974    0.635     N
H       0.3568   0.0176   0.3704     H
H       0.3568   0.9824   0.8704     H
H       0.3601   0.1875   0.7976     H
H       0.3601   0.8125   0.2976     H
H       0.3655   0.3202   0.2823     H
H       0.3655   0.6798   0.7823     H
H       0.3728   0.4691   0.8489     H
H       0.3728   0.5309   0.3489     H
H       0.3737   0.0615    0.206     H
H       0.3737   0.9385    0.706     H
H       0.3833   0.2298    0.645     H
H       0.3833   0.7702    0.145     H
N       0.3884    0.047    0.359     N
N       0.3884    0.953    0.859     N
H       0.3885   0.2737   0.1414     H
H       0.3885   0.7263   0.6414     H
C       0.4018   0.1032    0.527     C
C       0.4018   0.8968    0.027     C
H       0.4048   0.4214   0.7407     H
H       0.4048   0.5786   0.2407     H
N       0.4104   0.4422    0.879     N
N       0.4104   0.5578    0.379     N
C       0.4153   0.3907    0.064     C
C       0.4153   0.6093    0.564     C
H       0.4193   0.0856   0.6897     H
H       0.4193   0.9144   0.1897     H
H       0.4235   0.4121   0.2163     H
H       0.4235   0.5879   0.7163     H
H       0.4379   0.1322   0.5151     H
H       0.4379   0.8678   0.0151     H
H        0.453   0.3586   0.0876     H
H        0.453   0.6414   0.5876     H
Ag         0.5      0.0      0.0    Ag
Ag         0.5      0.0      0.5    Ag
Ag         0.5      0.5      0.0    Ag
Ag         0.5      0.5      0.5    Ag
H        0.547   0.3586   0.4124     H
H        0.547   0.6414   0.9124     H
H       0.5621   0.1322   0.9849     H
H       0.5621   0.8678   0.4849     H
H       0.5765   0.4121   0.2837     H
H       0.5765   0.5879   0.7837     H
H       0.5807   0.0856   0.8103     H
H       0.5807   0.9144   0.3103     H
C       0.5847   0.3907    0.436     C
C       0.5847   0.6093    0.936     C
N       0.5896   0.4422    0.621     N
N       0.5896   0.5578    0.121     N
H       0.5952   0.4214   0.7593     H
H       0.5952   0.5786   0.2593     H
C       0.5982   0.1032    0.973     C
C       0.5982   0.8968    0.473     C
H       0.6115   0.2737   0.3586     H
H       0.6115   0.7263   0.8586     H
N       0.6116    0.047    0.141     N
N       0.6116    0.953    0.641     N
H       0.6167   0.2298    0.855     H
H       0.6167   0.7702    0.355     H
H       0.6263   0.0615    0.294     H
H       0.6263   0.9385    0.794     H
H       0.6272   0.4691   0.6511     H
H       0.6272   0.5309   0.1511     H
H       0.6345   0.3202   0.2177     H
H       0.6345   0.6798   0.7177     H
H       0.6399   0.1875   0.7024     H
H       0.6399   0.8125   0.2024     H
H       0.6432   0.0176   0.1296     H
H       0.6432   0.9824   0.6296     H
N       0.6457   0.3026    0.365     N
N       0.6457   0.6974    0.865     N
N       0.6509   0.2021    0.854     N
N       0.6509   0.7979    0.354     N
C       0.6553    0.356    0.541     C
C       0.6553    0.644    0.041     C
C       0.6636   0.1444    0.025     C
C       0.6636   0.8556    0.525     C
H       0.6653   0.3373   0.6993     H
H       0.6653   0.6627   0.1993     H
H       0.6809    0.162   0.1877     H
H       0.6809    0.838   0.6877     H
H       0.6927   0.3868   0.5519     H
H       0.6927   0.6132   0.0519     H
H       0.6997   0.1152   0.0145     H
H       0.6997   0.8848   0.5145     H
Ag        0.75     0.25      0.0    Ag
Ag        0.75     0.25      0.5    Ag
Ag        0.75     0.75      0.0    Ag
Ag        0.75     0.75      0.5    Ag
H       0.8003   0.3848   0.9855     H
H       0.8003   0.6152   0.4855     H
H       0.8073   0.1132   0.4481     H
H       0.8073   0.8868   0.9481     H
H       0.8191    0.338   0.8123     H
H       0.8191    0.662   0.3123     H
H       0.8347   0.1627   0.3007     H
H       0.8347   0.8373   0.8007     H
C       0.8364   0.3556    0.975     C
C       0.8364   0.6444    0.475     C
C       0.8447    0.144    0.459     C
C       0.8447    0.856    0.959     C
N       0.8491   0.2979    0.146     N
N       0.8491   0.7021    0.646     N
N       0.8543   0.1974    0.635     N
N       0.8543   0.8026    0.135     N
H       0.8568   0.4824   0.8704     H
H       0.8568   0.5176   0.3704     H
H       0.8601   0.3125   0.2976     H
H       0.8601   0.6875   0.7976     H
H       0.8655   0.1798   0.7823     H
H       0.8655   0.8202   0.2823     H
H       0.8728   0.0309   0.3489     H
H       0.8728   0.9691   0.8489     H
H       0.8737   0.4385    0.706     H
H       0.8737   0.5615    0.206     H
H       0.8833   0.2702    0.145     H
H       0.8833   0.7298    0.645     H
N       0.8884    0.453    0.859     N
N       0.8884    0.547    0.359     N
H       0.8885   0.2263   0.6414     H
H       0.8885   0.7737   0.1414     H
C       0.9018   0.3968    0.027     C
C       0.9018   0.6032    0.527     C
H       0.9048   0.0786   0.2407     H
H       0.9048   0.9214   0.7407     H
N       0.9104   0.0578    0.379     N
N       0.9104   0.9422    0.879     N
C       0.9153   0.1093    0.564     C
C       0.9153   0.8907    0.064     C
H       0.9193   0.4144   0.1897     H
H       0.9193   0.5856   0.6897     H
H       0.9235   0.0879   0.7163     H
H       0.9235   0.9121   0.2163     H
H       0.9379   0.3678   0.0151     H
H       0.9379   0.6322   0.5151     H
H        0.953   0.1414   0.5876     H
H        0.953   0.8586   0.0876     H
