data_I
_chemical_name_common  '/home/zhangsd/repos/MofS-CGCNN/ML/data/SSD/clean_cifs/MAGVOG17_clean'
_cell_length_a 10.44880
_cell_length_b 10.50410
_cell_length_c  6.30650
_cell_angle_alpha 90.00000
_cell_angle_beta  115.27200
_cell_angle_gamma 90.00000
_space_group_name_H-M_alt      'P 1'


loop_
_space_group_symop_operation_xyz
  'x, y, z' 

loop_
_atom_site_label
_atom_site_fract_x
_atom_site_fract_y
_atom_site_fract_z
_atom_site_type_symbol
Ag         0.0      0.5      0.0    Ag
Ag         0.0      0.5      0.5    Ag
H       0.1028   0.2355   0.4192     H
H       0.1028   0.7645   0.9192     H
H       0.1733   0.3298   0.3081     H
H       0.1733   0.6702   0.8081     H
C       0.1841   0.2901   0.4537     C
C       0.1841   0.7099   0.9537     C
N       0.1862   0.3892   0.6184     N
N       0.1862   0.6108   0.1184     N
H       0.1998   0.3522   0.7551     H
H       0.1998   0.6478   0.2551     H
H       0.2397   0.0589   0.3536     H
H       0.2397   0.9411   0.8536     H
H       0.2603   0.4411   0.6464     H
H       0.2603   0.5589   0.1464     H
H       0.3002   0.1478   0.2449     H
H       0.3002   0.8522   0.7449     H
N       0.3138   0.1108   0.3816     N
N       0.3138   0.8892   0.8816     N
C       0.3159   0.2099   0.5463     C
C       0.3159   0.7901   0.0463     C
H       0.3267   0.1702   0.6919     H
H       0.3267   0.8298   0.1919     H
H       0.3972   0.2645   0.5808     H
H       0.3972   0.7355   0.0808     H
Ag         0.5      0.0      0.0    Ag
Ag         0.5      0.0      0.5    Ag
H       0.6028   0.2645   0.9192     H
H       0.6028   0.7355   0.4192     H
H       0.6733   0.1702   0.8081     H
H       0.6733   0.8298   0.3081     H
C       0.6841   0.2099   0.9537     C
C       0.6841   0.7901   0.4537     C
N       0.6862   0.1108   0.1184     N
N       0.6862   0.8892   0.6184     N
H       0.6998   0.1478   0.2551     H
H       0.6998   0.8522   0.7551     H
H       0.7397   0.4411   0.8536     H
H       0.7397   0.5589   0.3536     H
H       0.7603   0.0589   0.1464     H
H       0.7603   0.9411   0.6464     H
H       0.8002   0.3522   0.7449     H
H       0.8002   0.6478   0.2449     H
N       0.8138   0.3892   0.8816     N
N       0.8138   0.6108   0.3816     N
C       0.8159   0.2901   0.0463     C
C       0.8159   0.7099   0.5463     C
H       0.8267   0.3298   0.1919     H
H       0.8267   0.6702   0.6919     H
H       0.8972   0.2355   0.0808     H
H       0.8972   0.7645   0.5808     H
