data_I
_chemical_name_common  '/home/zhangsd/repos/MofS-CGCNN/ML/data/SSD/clean_cifs/MAGVOG21_clean'
_cell_length_a 10.50800
_cell_length_b 10.46400
_cell_length_c  6.33600
_cell_angle_alpha 90.00000
_cell_angle_beta  115.49000
_cell_angle_gamma 90.00000
_space_group_name_H-M_alt      'P 1'


loop_
_space_group_symop_operation_xyz
  'x, y, z' 

loop_
_atom_site_label
_atom_site_fract_x
_atom_site_fract_y
_atom_site_fract_z
_atom_site_type_symbol
Ag         0.0      0.5      0.0    Ag
Ag         0.0      0.5      0.5    Ag
H       0.1036   0.2354   0.4161     H
H       0.1036   0.7646   0.9161     H
H       0.1754   0.3312   0.3104     H
H       0.1754   0.6688   0.8104     H
C       0.1849   0.2903   0.4539     C
C       0.1849   0.7097   0.9539     C
N        0.185   0.3884   0.6175     N
N        0.185   0.6116   0.1175     N
H       0.1979   0.3504   0.7526     H
H       0.1979   0.6496   0.2526     H
H       0.2411   0.0593   0.3519     H
H       0.2411   0.9407   0.8519     H
H       0.2589   0.4407   0.6481     H
H       0.2589   0.5593   0.1481     H
H       0.3021   0.1496   0.2474     H
H       0.3021   0.8504   0.7474     H
N        0.315   0.1116   0.3825     N
N        0.315   0.8884   0.8825     N
C       0.3151   0.2097   0.5461     C
C       0.3151   0.7903   0.0461     C
H       0.3246   0.1688   0.6896     H
H       0.3246   0.8312   0.1896     H
H       0.3964   0.2646   0.5839     H
H       0.3964   0.7354   0.0839     H
Ag         0.5      0.0      0.0    Ag
Ag         0.5      0.0      0.5    Ag
H       0.6036   0.2646   0.9161     H
H       0.6036   0.7354   0.4161     H
H       0.6754   0.1688   0.8104     H
H       0.6754   0.8312   0.3104     H
C       0.6849   0.2097   0.9539     C
C       0.6849   0.7903   0.4539     C
N        0.685   0.1116   0.1175     N
N        0.685   0.8884   0.6175     N
H       0.6979   0.1496   0.2526     H
H       0.6979   0.8504   0.7526     H
H       0.7411   0.4407   0.8519     H
H       0.7411   0.5593   0.3519     H
H       0.7589   0.0593   0.1481     H
H       0.7589   0.9407   0.6481     H
H       0.8021   0.3504   0.7474     H
H       0.8021   0.6496   0.2474     H
N        0.815   0.3884   0.8825     N
N        0.815   0.6116   0.3825     N
C       0.8151   0.2903   0.0461     C
C       0.8151   0.7097   0.5461     C
H       0.8246   0.3312   0.1896     H
H       0.8246   0.6688   0.6896     H
H       0.8964   0.2354   0.0839     H
H       0.8964   0.7646   0.5839     H
