data_I
_chemical_name_common  '/home/zhangsd/repos/MofS-CGCNN/ML/data/SSD/clean_cifs/MATVIN_clean'
_cell_length_a  8.87370
_cell_length_b  8.87370
_cell_length_c 14.04040
_cell_angle_alpha 78.38820
_cell_angle_beta  78.38820
_cell_angle_gamma 81.49050
_space_group_name_H-M_alt      'P 1'


loop_
_space_group_symop_operation_xyz
  'x, y, z' 

loop_
_atom_site_label
_atom_site_fract_x
_atom_site_fract_y
_atom_site_fract_z
_atom_site_type_symbol
O         0.01    0.253   0.4116     O
O       0.0354   0.2782   0.2474     O
C       0.0406   0.7398   0.6663     C
H       0.0745   0.4133   0.5754     H
H         0.08   0.4256   0.7383     H
H       0.1009   0.4319   0.8774     H
H       0.1172    0.432   0.0389     H
C       0.1467   0.3437   0.6089     C
C       0.1508    0.353   0.7057     C
C       0.1757   0.3605   0.9077     C
C       0.1872   0.3588   0.0063     C
C       0.2094   0.7534   0.6547     C
H       0.2214   0.7344   0.7932     H
O       0.2279   0.4721   0.3678     O
H       0.2319   0.7317   0.4102     H
Zn     0.23846  0.23846  0.41736    Zn
N       0.2406   0.2406   0.5612     N
C       0.2438   0.5504   0.2836     C
C       0.2466   0.7906   0.3453     C
O        0.253     0.01   0.4116     O
C       0.2536   0.7194   0.2717     C
O       0.2557   0.4981   0.2042     O
C        0.257    0.257    0.754     C
C       0.2602   0.9594   0.3337     C
H       0.2656   0.7786   0.2068     H
C       0.2657   0.2657   0.8589     C
H       0.2683   0.7681   0.5898     H
Zn     0.26892  0.26892  0.20075    Zn
N       0.2755   0.2755   0.0546     N
O       0.2782   0.0354   0.2474     O
C       0.2806   0.7464   0.7283     C
C       0.3437   0.1467   0.6089     C
C        0.353   0.1508   0.7057     C
C       0.3588   0.1872   0.0063     C
C       0.3605   0.1757   0.9077     C
H       0.4133   0.0745   0.5754     H
H       0.4256     0.08   0.7383     H
H       0.4319   0.1009   0.8774     H
H        0.432   0.1172   0.0389     H
C       0.4496   0.7562   0.7164     C
O       0.4721   0.2279   0.3678     O
O       0.4981   0.2557   0.2042     O
O       0.5019   0.7443   0.7958     O
O       0.5279   0.7721   0.6322     O
C       0.5504   0.2438   0.2836     C
H        0.568   0.8828   0.9611     H
H       0.5681   0.8991   0.1226     H
H       0.5744     0.92   0.2617     H
H       0.5867   0.9255   0.4246     H
C       0.6395   0.8243   0.0923     C
C       0.6412   0.8128   0.9937     C
C        0.647   0.8492   0.2943     C
C       0.6563   0.8533   0.3911     C
C       0.7194   0.2536   0.2717     C
O       0.7218   0.9646   0.7526     O
N       0.7245   0.7245   0.9454     N
Zn     0.73108  0.73108  0.79925    Zn
H       0.7317   0.2319   0.4102     H
C       0.7343   0.7343   0.1411     C
H       0.7344   0.2214   0.7932     H
C       0.7398   0.0406   0.6663     C
C        0.743    0.743    0.246     C
O       0.7443   0.5019   0.7958     O
C       0.7464   0.2806   0.7283     C
O        0.747     0.99   0.5884     O
C       0.7534   0.2094   0.6547     C
C       0.7562   0.4496   0.7164     C
N       0.7594   0.7594   0.4388     N
Zn     0.76154  0.76154  0.58264    Zn
H       0.7681   0.2683   0.5898     H
O       0.7721   0.5279   0.6322     O
H       0.7786   0.2656   0.2068     H
C       0.7906   0.2466   0.3453     C
C       0.8128   0.6412   0.9937     C
C       0.8243   0.6395   0.0923     C
C       0.8492    0.647   0.2943     C
C       0.8533   0.6563   0.3911     C
H       0.8828    0.568   0.9611     H
H       0.8991   0.5681   0.1226     H
H         0.92   0.5744   0.2617     H
H       0.9255   0.5867   0.4246     H
C       0.9594   0.2602   0.3337     C
O       0.9646   0.7218   0.7526     O
O         0.99    0.747   0.5884     O
