data_I
_chemical_name_common  '/home/zhangsd/repos/MofS-CGCNN/ML/data/SSD/clean_cifs/MAYJOM_clean'
_cell_length_a 18.22800
_cell_length_b 11.97010
_cell_length_c 34.06200
_cell_angle_alpha 90.00000
_cell_angle_beta  122.35500
_cell_angle_gamma 90.00000
_space_group_name_H-M_alt      'P 1'


loop_
_space_group_symop_operation_xyz
  'x, y, z' 

loop_
_atom_site_label
_atom_site_fract_x
_atom_site_fract_y
_atom_site_fract_z
_atom_site_type_symbol
In         0.0      0.0      0.0    In
In         0.0      0.5      0.5    In
O       0.0086    0.088  0.10272     O
O       0.0086    0.412  0.60272     O
C       0.0123   0.7163  0.68736     C
C       0.0123   0.7837  0.18736     C
C       0.0218    0.745  0.72909     C
C       0.0218    0.755  0.22909     C
H       0.0377   0.1734   0.2427     H
H       0.0377   0.3266   0.7427     H
C       0.0448   0.1959  0.27064     C
C       0.0448   0.3041  0.77064     C
C       0.0573   0.6128  0.43666     C
C       0.0573   0.8872  0.93666     C
C       0.0651   0.2422  0.85435     C
C       0.0651   0.2578  0.35435     C
O       0.0678   0.5934   0.4754     O
O       0.0678   0.9066   0.9754     O
O       0.0688   0.5901  0.56168     O
O       0.0688   0.9099  0.06168     O
O       0.0716    0.629  0.64864     O
O       0.0716    0.871  0.14864     O
H        0.072   0.2219   0.8825     H
H        0.072   0.2781   0.3825     H
H       0.0721   0.7254    0.757     H
H       0.0721   0.7746    0.257     H
H        0.077   0.6592     0.56     H
H        0.077   0.8408     0.06     H
H       0.0794   0.6646   0.3683     H
H       0.0794   0.8354   0.8683     H
C       0.0837   0.6524   0.6875     C
C       0.0837   0.8476   0.1875     C
O       0.1006   0.1229   0.0244     O
O       0.1006   0.3771   0.5244     O
C       0.1201   0.1718  0.31184     C
C       0.1201   0.3282  0.81184     C
In     0.12494  0.50553  0.62466    In
In     0.12494  0.99447  0.12466    In
C       0.1264   0.6909   0.3962     C
C       0.1264   0.8091   0.8962     C
C       0.1297   0.6725  0.43667     C
C       0.1297   0.8275  0.93667     C
C       0.1299   0.2037  0.35405     C
C       0.1299   0.2963  0.85405     C
O       0.1485   0.6287  0.72615     O
O       0.1485   0.8713  0.22615     O
C       0.1668   0.1463  0.06343     C
C       0.1668   0.3537  0.56343     C
H       0.1693   0.2449   0.9941     H
H       0.1693   0.2551   0.4941     H
O       0.1792   0.1201  0.10227     O
O       0.1792   0.3799  0.60227     O
O       0.1799   0.0789   0.1877     O
O       0.1799   0.4211   0.6877     O
O       0.1807   0.0879   0.2732     O
O       0.1807   0.4121   0.7732     O
H       0.1812   0.1875    0.382     H
H       0.1812   0.3125    0.882     H
H       0.1901    0.737   0.8686     H
H       0.1901    0.763   0.3686     H
C       0.1926   0.1111  0.31221     C
C       0.1926   0.3889  0.81221     C
C       0.1933   0.7491  0.39637     C
C       0.1933   0.7509  0.89637     C
H        0.194    0.142      0.2     H
H        0.194    0.358      0.7     H
C       0.2015   0.7108  0.47842     C
C       0.2015   0.7892  0.97842     C
H       0.2039   0.6995   0.5061     H
H       0.2039   0.8005   0.0061     H
C       0.2228   0.2457   0.5216     C
C       0.2228   0.2543   0.0216     C
C       0.2361   0.2132  0.06309     C
C       0.2361   0.2868  0.56309     C
O       0.2436   0.5953   0.6485     O
O       0.2436   0.9047   0.1485     O
In     0.25082  0.50719  0.75032    In
In     0.25082  0.99281  0.25032    In
O       0.2584   0.0898  0.35054     O
O       0.2584   0.4102  0.85054     O
C       0.2638   0.7144  0.93787     C
C       0.2638   0.7856  0.43787     C
C       0.2674   0.7358  0.97901     C
C       0.2674   0.7642  0.47901     C
H       0.2788   0.1664   0.4931     H
H       0.2788   0.3336   0.9931     H
C       0.2878   0.1919  0.52116     C
C       0.2878   0.3081  0.02116     C
C       0.3087   0.6181    0.687     C
C       0.3087   0.8819    0.187     C
H        0.312    0.661    0.817     H
H        0.312    0.839    0.317     H
C       0.3143   0.2298  0.10421     C
C       0.3143   0.2702  0.60421     C
H       0.3156   0.7131   0.0072     H
H       0.3156   0.7869   0.5072     H
O        0.319   0.5994  0.72583     O
O        0.319   0.9006  0.22583     O
O       0.3204   0.5941  0.81289     O
O       0.3204   0.9059  0.31289     O
O       0.3221   0.6263  0.89906     O
O       0.3221   0.8737  0.39906     O
H       0.3231   0.2032   0.1321     H
H       0.3231   0.2968   0.6321     H
H       0.3284   0.6755   0.6177     H
H       0.3284   0.8245   0.1177     H
C       0.3336   0.6494  0.93786     C
C       0.3336   0.8506  0.43786     C
O       0.3505   0.1174  0.27319     O
O       0.3505   0.3826  0.77319     O
C       0.3684   0.1741  0.56245     C
C       0.3684   0.3259  0.06245     C
In     0.37528   0.5047  0.87486    In
In     0.37528   0.9953  0.37486    In
C        0.377   0.6982  0.64571     C
C        0.377   0.8018  0.14571     C
C       0.3808   0.2124   0.6034     C
C       0.3808   0.2876   0.1034     C
C       0.3828   0.6759  0.68777     C
C       0.3828   0.8241  0.18777     C
O       0.4003   0.6253  0.97683     O
O       0.4003   0.8747  0.47683     O
H        0.411     0.15    0.436     H
H        0.411     0.35    0.936     H
C       0.4145   0.1443  0.31224     C
C       0.4145   0.3557  0.81224     C
O       0.4269   0.1186  0.35076     O
O       0.4269   0.3814  0.85076     O
O       0.4274   0.0902  0.52293     O
O       0.4274   0.4098  0.02293     O
O       0.4296   0.0839  0.43675     O
O       0.4296   0.4161  0.93675     O
H       0.4302    0.209   0.2431     H
H       0.4302    0.291   0.7431     H
H       0.4336      0.2    0.631     H
H       0.4336      0.3    0.131     H
H       0.4393   0.7319   0.1184     H
H       0.4393   0.7681   0.6184     H
C         0.44    0.116   0.5615     C
C         0.44    0.384   0.0615     C
C       0.4431   0.7467  0.14626     C
C       0.4431   0.7533  0.64626     C
C       0.4552   0.7073   0.7294     C
C       0.4552   0.7927   0.2294     C
H       0.4602   0.6899   0.7574     H
H       0.4602   0.8101   0.2574     H
C       0.4783   0.2337  0.27091     C
C       0.4783   0.2663  0.77091     C
C       0.4839   0.2124  0.31193     C
C       0.4839   0.2876  0.81193     C
O       0.4918   0.5979  0.89964     O
O       0.4918   0.9021  0.39964     O
In         0.5      0.0      0.5    In
In         0.5      0.5      0.0    In
O       0.5082   0.0979  0.60036     O
O       0.5082   0.4021  0.10036     O
C       0.5161   0.7124  0.18807     C
C       0.5161   0.7876  0.68807     C
C       0.5217   0.7337  0.22909     C
C       0.5217   0.7663  0.72909     C
H       0.5398   0.1899   0.7426     H
H       0.5398   0.3101   0.2426     H
C       0.5448   0.2073   0.7706     C
C       0.5448   0.2927   0.2706     C
C       0.5569   0.2467  0.35374     C
C       0.5569   0.2533  0.85374     C
C         0.56    0.616   0.9385     C
C         0.56    0.884   0.4385     C
H       0.5607   0.2319   0.3816     H
H       0.5607   0.2681   0.8816     H
H       0.5664      0.7    0.869     H
H       0.5664      0.8    0.369     H
H       0.5698    0.709   0.2569     H
H       0.5698    0.791   0.7569     H
O       0.5704   0.5839  0.06325     O
O       0.5704   0.9161  0.56325     O
O       0.5726   0.5902  0.97707     O
O       0.5726   0.9098  0.47707     O
O       0.5731   0.6186  0.14924     O
O       0.5731   0.8814  0.64924     O
C       0.5855   0.6443  0.18776     C
C       0.5855   0.8557  0.68776     C
H        0.589     0.65    0.064     H
H        0.589     0.85    0.564     H
O       0.5997   0.1253  0.52317     O
O       0.5997   0.3747  0.02317     O
C       0.6172   0.1759  0.81223     C
C       0.6172   0.3241  0.31223     C
C       0.6192   0.7124   0.8966     C
C       0.6192   0.7876   0.3966     C
C        0.623   0.1982  0.85429     C
C        0.623   0.3018  0.35429     C
In     0.62472   0.0047  0.62514    In
In     0.62472   0.4953  0.12514    In
C       0.6316   0.6741  0.93755     C
C       0.6316   0.8259  0.43755     C
O       0.6495   0.6174  0.22681     O
O       0.6495   0.8826  0.72681     O
C       0.6664   0.1494  0.56214     C
C       0.6664   0.3506  0.06214     C
H       0.6716   0.1755   0.8823     H
H       0.6716   0.3245   0.3823     H
H       0.6769   0.7032   0.3679     H
H       0.6769   0.7968   0.8679     H
O       0.6779   0.1263  0.60094     O
O       0.6779   0.3737  0.10094     O
O       0.6796   0.0941  0.68711     O
O       0.6796   0.4059  0.18711     O
O        0.681   0.0994  0.77417     O
O        0.681   0.4006  0.27417     O
H       0.6844   0.2131   0.4928     H
H       0.6844   0.2869   0.9928     H
C       0.6857   0.7298  0.39579     C
C       0.6857   0.7702  0.89579     C
H        0.688    0.161    0.683     H
H        0.688    0.339    0.183     H
C       0.6913   0.1181    0.813     C
C       0.6913   0.3819    0.313     C
C       0.7122   0.6919  0.97884     C
C       0.7122   0.8081  0.47884     C
H       0.7212   0.6664   0.0069     H
H       0.7212   0.8336   0.5069     H
C       0.7326   0.2358  0.52099     C
C       0.7326   0.2642  0.02099     C
C       0.7362   0.2144  0.56213     C
C       0.7362   0.2856  0.06213     C
O       0.7416   0.5898  0.14946     O
O       0.7416   0.9102  0.64946     O
In     0.74918  0.00719  0.74968    In
In     0.74918  0.49281  0.24968    In
O       0.7564   0.0953   0.8515     O
O       0.7564   0.4047   0.3515     O
C       0.7639   0.7132  0.43691     C
C       0.7639   0.7868  0.93691     C
C       0.7772   0.7457   0.9784     C
C       0.7772   0.7543   0.4784     C
H       0.7961   0.1995   0.9939     H
H       0.7961   0.3005   0.4939     H
C       0.7985   0.2108  0.02158     C
C       0.7985   0.2892  0.52158     C
H        0.806    0.642      0.3     H
H        0.806    0.858      0.8     H
C       0.8067   0.2491  0.10363     C
C       0.8067   0.2509  0.60363     C
C       0.8074   0.6111  0.18779     C
C       0.8074   0.8889  0.68779     C
H       0.8099    0.237   0.6314     H
H       0.8099    0.263   0.1314     H
H       0.8188   0.6875    0.118     H
H       0.8188   0.8125    0.618     H
O       0.8193   0.5879   0.2268     O
O       0.8193   0.9121   0.7268     O
O       0.8201   0.5789   0.3123     O
O       0.8201   0.9211   0.8123     O
O       0.8208   0.6201  0.39773     O
O       0.8208   0.8799  0.89773     O
H       0.8307   0.7449   0.5059     H
H       0.8307   0.7551   0.0059     H
C       0.8332   0.6463  0.43657     C
C       0.8332   0.8537  0.93657     C
O       0.8515   0.1287  0.77385     O
O       0.8515   0.3713  0.27385     O
C       0.8701   0.7037  0.14595     C
C       0.8701   0.7963  0.64595     C
C       0.8703   0.1725  0.06333     C
C       0.8703   0.3275  0.56333     C
C       0.8736   0.1909   0.1038     C
C       0.8736   0.3091   0.6038     C
In     0.87506  0.00553  0.87534    In
In     0.87506  0.49447  0.37534    In
C       0.8799   0.6718  0.18816     C
C       0.8799   0.8282  0.68816     C
O       0.8994   0.6229   0.4756     O
O       0.8994   0.8771   0.9756     O
C       0.9163   0.1524   0.8125     C
C       0.9163   0.3476   0.3125     C
H       0.9206   0.1646   0.1317     H
H       0.9206   0.3354   0.6317     H
H        0.923   0.1592     0.94     H
H        0.923   0.3408     0.44     H
H       0.9279   0.2254    0.743     H
H       0.9279   0.2746    0.243     H
H        0.928   0.7219   0.6175     H
H        0.928   0.7781   0.1175     H
O       0.9284    0.129  0.85136     O
O       0.9284    0.371  0.35136     O
O       0.9312   0.0901  0.93832     O
O       0.9312   0.4099  0.43832     O
O       0.9322   0.0934   0.0246     O
O       0.9322   0.4066   0.5246     O
C       0.9349   0.7422  0.64565     C
C       0.9349   0.7578  0.14565     C
C       0.9427   0.1128  0.06334     C
C       0.9427   0.3872  0.56334     C
C       0.9552   0.6959  0.22936     C
C       0.9552   0.8041  0.72936     C
H       0.9623   0.6734   0.2573     H
H       0.9623   0.8266   0.7573     H
C       0.9782    0.245  0.77091     C
C       0.9782    0.255  0.27091     C
C       0.9877   0.2163  0.81264     C
C       0.9877   0.2837  0.31264     C
O       0.9914    0.588  0.39728     O
O       0.9914    0.912  0.89728     O
