data_I
_chemical_name_common  '/home/zhangsd/repos/MofS-CGCNN/ML/data/SSD/clean_cifs/MAYPIM_clean'
_cell_length_a  6.87270
_cell_length_b 11.46200
_cell_length_c 24.98600
_cell_angle_alpha 98.79000
_cell_angle_beta  90.00000
_cell_angle_gamma 90.00000
_space_group_name_H-M_alt      'P 1'


loop_
_space_group_symop_operation_xyz
  'x, y, z' 

loop_
_atom_site_label
_atom_site_fract_x
_atom_site_fract_y
_atom_site_fract_z
_atom_site_type_symbol
S       0.0008  0.18178  0.42471     S
S       0.0008  0.81822  0.07529     S
H       0.0101   0.4539    0.771     H
H       0.0101   0.5461    0.729     H
O       0.0346   0.0597   0.4008     O
O       0.0346   0.9403   0.0992     O
C       0.0464   0.3345   0.1189     C
C       0.0464   0.6655   0.3811     C
H       0.0569   0.2553   0.7352     H
H       0.0569   0.7447   0.7648     H
C       0.0622    0.333   0.1746     C
C       0.0622    0.667   0.3254     C
C       0.0653   0.2586   0.6975     C
C       0.0653   0.7414   0.8025     C
H       0.0661   0.4165   0.9105     H
H       0.0661   0.5835   0.5895     H
C       0.0747      0.5     0.25     C
C       0.0948   0.2679   0.5878     C
C       0.0948   0.7321   0.9122     C
H        0.106    0.272   0.5503     H
H        0.106    0.728   0.9497     H
O        0.123   0.1901   0.9728     O
O        0.123   0.8099   0.5272     O
H       0.1335   0.3818    0.102     H
H       0.1335   0.6182    0.398     H
Ag     0.13626  0.08226   0.0482    Ag
Ag     0.13626  0.91774   0.4518    Ag
C       0.1439   0.2484   0.8793     C
C       0.1439   0.7516   0.6207     C
C         0.15   0.3706   0.8854     C
C         0.15   0.6294   0.6146     C
O       0.1747   0.2517   0.4344     O
O       0.1747   0.7483   0.0656     O
C       0.1995   0.4149   0.2108     C
C       0.1995   0.5851   0.2892     C
C       0.2027   0.1898   0.6669     C
C       0.2027   0.8102   0.8331     C
C       0.2189   0.1954   0.6119     C
C       0.2189   0.8046   0.8881     C
H       0.2439   0.4641   0.3428     H
H       0.2439   0.5359   0.1572     H
H       0.2497   0.2951   0.2648     H
H       0.2497   0.7049   0.2352     H
H       0.2583   0.0983   0.8364     H
H       0.2583   0.9017   0.6636     H
C       0.2641    0.182   0.8414     C
C       0.2641    0.818   0.6586     C
C       0.2789   0.4253   0.8547     C
C       0.2789   0.5747   0.6453     C
H       0.2832   0.4909   0.6406     H
H       0.2832   0.5091   0.8594     H
H       0.2854   0.1392   0.6834     H
H       0.2854   0.8608   0.8166     H
O        0.305   0.0757  0.51933     O
O        0.305   0.9243  0.98067     O
C       0.3278   0.4891   0.1782     C
C       0.3278   0.5109   0.3218     C
H       0.3301   0.4464   0.7254     H
H       0.3301   0.5536   0.7746     H
C       0.3315   0.3435   0.2441     C
C       0.3315   0.6565   0.2559     C
C       0.3916   0.2378    0.811     C
C       0.3916   0.7622    0.689     C
S       0.3965  0.11293  0.57116     S
S       0.3965  0.88707  0.92884     S
C       0.4033   0.3605   0.8167     C
C       0.4033   0.6395   0.6833     C
H        0.409   0.4361   0.1523     H
H        0.409   0.5639   0.3477     H
H       0.4149   0.2895   0.2193     H
C       0.4149      0.5     0.75     C
H       0.4149   0.7105   0.2807     H
O       0.4412   0.1922   0.0671     O
O       0.4412   0.8078   0.4329     O
O       0.4527    0.015  0.59896     O
O       0.4527    0.985  0.90104     O
C       0.4606   0.4267   0.2835     C
C       0.4606   0.5733   0.2165     C
H       0.4736   0.1915   0.7855     H
H       0.4736   0.8085   0.7145     H
Ag     0.49527  0.17719  0.44867    Ag
Ag     0.49527  0.82281  0.05133    Ag
Ag     0.50473  0.17719  0.94867    Ag
Ag     0.50473  0.82281  0.55133    Ag
H       0.5264   0.1915   0.2855     H
H       0.5264   0.8085   0.2145     H
C       0.5394   0.4267   0.7835     C
C       0.5394   0.5733   0.7165     C
O       0.5473    0.015  0.09896     O
O       0.5473    0.985  0.40104     O
O       0.5588   0.1922   0.5671     O
O       0.5588   0.8078   0.9329     O
H       0.5851   0.2895   0.7193     H
C       0.5851      0.5     0.25     C
H       0.5851   0.7105   0.7807     H
H        0.591   0.4361   0.6523     H
H        0.591   0.5639   0.8477     H
C       0.5967   0.3605   0.3167     C
C       0.5967   0.6395   0.1833     C
S       0.6035  0.11293  0.07116     S
S       0.6035  0.88707  0.42884     S
C       0.6084   0.2378    0.311     C
C       0.6084   0.7622    0.189     C
C       0.6685   0.3435   0.7441     C
C       0.6685   0.6565   0.7559     C
H       0.6699   0.4464   0.2254     H
H       0.6699   0.5536   0.2746     H
C       0.6722   0.4891   0.6782     C
C       0.6722   0.5109   0.8218     C
O        0.695   0.0757  0.01933     O
O        0.695   0.9243  0.48067     O
H       0.7146   0.1392   0.1834     H
H       0.7146   0.8608   0.3166     H
H       0.7168   0.4909   0.1406     H
H       0.7168   0.5091   0.3594     H
C       0.7211   0.4253   0.3547     C
C       0.7211   0.5747   0.1453     C
C       0.7359    0.182   0.3414     C
C       0.7359    0.818   0.1586     C
H       0.7417   0.0983   0.3364     H
H       0.7417   0.9017   0.1636     H
H       0.7503   0.2951   0.7648     H
H       0.7503   0.7049   0.7352     H
H       0.7561   0.4641   0.8428     H
H       0.7561   0.5359   0.6572     H
C       0.7811   0.1954   0.1119     C
C       0.7811   0.8046   0.3881     C
C       0.7973   0.1898   0.1669     C
C       0.7973   0.8102   0.3331     C
C       0.8005   0.4149   0.7108     C
C       0.8005   0.5851   0.7892     C
O       0.8253   0.2517   0.9344     O
O       0.8253   0.7483   0.5656     O
C         0.85   0.3706   0.3854     C
C         0.85   0.6294   0.1146     C
C       0.8561   0.2484   0.3793     C
C       0.8561   0.7516   0.1207     C
Ag     0.86374  0.08226   0.5482    Ag
Ag     0.86374  0.91774   0.9518    Ag
H       0.8665   0.3818    0.602     H
H       0.8665   0.6182    0.898     H
O        0.877   0.1901   0.4728     O
O        0.877   0.8099   0.0272     O
H        0.894    0.272   0.0503     H
H        0.894    0.728   0.4497     H
C       0.9052   0.2679   0.0878     C
C       0.9052   0.7321   0.4122     C
C       0.9253      0.5     0.75     C
H       0.9339   0.4165   0.4105     H
H       0.9339   0.5835   0.0895     H
C       0.9347   0.2586   0.1975     C
C       0.9347   0.7414   0.3025     C
C       0.9378    0.333   0.6746     C
C       0.9378    0.667   0.8254     C
H       0.9431   0.2553   0.2352     H
H       0.9431   0.7447   0.2648     H
C       0.9536   0.3345   0.6189     C
C       0.9536   0.6655   0.8811     C
O       0.9654   0.0597   0.9008     O
O       0.9654   0.9403   0.5992     O
H       0.9899   0.4539    0.271     H
H       0.9899   0.5461    0.229     H
S       0.9992  0.18178  0.92471     S
S       0.9992  0.81822  0.57529     S
