data_I
_chemical_name_common  '/home/zhangsd/repos/MofS-CGCNN/ML/data/SSD/clean_cifs/MECWIB_clean'
_cell_length_a 22.97650
_cell_length_b 22.97650
_cell_length_c 22.97650
_cell_angle_alpha 109.47100
_cell_angle_beta  109.47100
_cell_angle_gamma 109.47100
_space_group_name_H-M_alt      'P 1'


loop_
_space_group_symop_operation_xyz
  'x, y, z' 

loop_
_atom_site_label
_atom_site_fract_x
_atom_site_fract_y
_atom_site_fract_z
_atom_site_type_symbol
H        0.008    0.202   0.2442     H
H        0.008    0.806   0.2638     H
N      0.00811  0.06846  0.30903     N
N      0.00811  0.93965  0.19908     N
H       0.0092   0.2984    0.095     H
H       0.0092   0.7108   0.4142     H
H       0.0215   0.3428   0.3979     H
H       0.0215   0.6787   0.1236     H
C      0.02227  0.12063  0.36944     C
C      0.02227  0.90164  0.15283     C
H       0.0231   0.1052   0.2035     H
H       0.0231   0.9179   0.3196     H
H       0.0308   0.2457   0.3379     H
H       0.0308   0.7851   0.1929     H
N      0.03243  0.16543  0.89388     N
N      0.03243    0.867  0.63855     N
Zn     0.03632     0.25  0.96368    Zn
Zn     0.03632  0.78632  0.57264    Zn
H       0.0422    0.298    0.306     H
H       0.0422   0.7442   0.2362     H
C      0.04576  0.28649  0.10609     C
C      0.04576  0.75927  0.43967     C
C       0.0547    0.207   0.2691     C
C       0.0547   0.8477   0.2856     C
H       0.0551   0.1572   0.1787     H
H       0.0551   0.8979   0.3764     H
H       0.0595    0.201   0.3105     H
H       0.0595   0.8585    0.249     H
C      0.06033  0.10609   0.8196     C
C      0.06033  0.95424  0.74073     C
N      0.06035  0.30092  0.49189     N
N      0.06035  0.75943  0.06846     N
C      0.06149  0.15169  0.22008     C
C      0.06149   0.9098  0.34141     C
C       0.0621    0.293   0.3477     C
C       0.0621   0.7691   0.2144     C
C      0.06839  0.34831   0.4098     C
C      0.06839  0.72008  0.15859     C
N      0.06846  0.25943  0.06035     N
N      0.06846  0.80903  0.50811     N
Zn     0.07264  0.03632  0.28632    Zn
H       0.0793   0.3101   0.2104     H
H       0.0793   0.7692   0.3689     H
H       0.0821   0.1804   0.4769     H
H       0.0821   0.9017   0.1052     H
C      0.08457  0.29324  0.16969     C
C      0.08457  0.79133  0.41488     C
C      0.08512  0.16969  0.87645     C
C      0.08512  0.91543  0.70867     C
H       0.0858    0.095   0.7966     H
H       0.0858   0.9908   0.7892     H
C       0.0902  0.15859  0.43851     C
C       0.0902  0.93161  0.15169     C
H       0.0922   0.2543   0.2851     H
H       0.0922   0.8379   0.3071     H
H        0.095   0.2966   0.5858     H
H        0.095   0.7984   0.0092     H
H       0.0983   0.3948   0.4179     H
H       0.0983   0.7035   0.1804     H
C      0.09836  0.34717  0.47773     C
C      0.09836  0.75119  0.12063     C
H       0.0997   0.2896   0.8689     H
H       0.0997   0.8101   0.7308     H
H       0.1021   0.1236   0.4449     H
H       0.1021   0.9785   0.1572     H
H       0.1052   0.4017   0.0821     H
H       0.1052   0.7035   0.5231     H
C      0.10609   0.3196  0.56033     C
C      0.10609  0.78649  0.04576     C
N      0.10612  0.33457  0.96757     N
N      0.10612  0.77155  0.63855     N
H       0.1095    0.299   0.3585     H
H       0.1095   0.8105    0.251     H
C      0.12063  0.25119  0.09836     C
C      0.12063  0.86944  0.52227     C
C      0.12355  0.33031  0.91488     C
C      0.12355  0.79324  0.70867     C
H       0.1236   0.1787   0.0215     H
H       0.1236   0.9449   0.6021     H
C      0.13056  0.15283  0.25119     C
C      0.13056  0.97773  0.37937     C
H       0.1311   0.2104   0.9003     H
H       0.1311   0.9207   0.7308     H
N        0.133  0.27155  0.16543     N
N        0.133  0.86145  0.46757     N
N      0.13855  0.03243    0.367     N
N      0.13855  0.10612  0.27155     N
H       0.1415    0.251   0.4405     H
H       0.1415   0.8905    0.201     H
C      0.15169  0.43161   0.0902     C
C      0.15169  0.72008  0.56149     C
C       0.1523   0.2144   0.4453     C
C       0.1523   0.9379    0.207     C
C      0.15283  0.40164  0.02227     C
C      0.15283  0.75119  0.63056     C
H       0.1572   0.4785   0.1021     H
H       0.1572   0.6787   0.5551     H
C      0.15859  0.22008  0.06839     C
C      0.15859  0.93851   0.5902     C
H       0.1621   0.1929   0.4078     H
H       0.1621   0.9692   0.2543     H
N      0.16543  0.39388  0.53243     N
N      0.16543  0.77155    0.133     N
C      0.16969  0.37645  0.58512     C
C      0.16969  0.79324  0.08457     C
H       0.1787   0.5215   0.6236     H
H       0.1787   0.6572   0.0551     H
H       0.1804   0.2035   0.0983     H
C       0.1804  0.39391  0.93967     C
C       0.1804  0.78649  0.74073     C
H       0.1804   0.9769   0.5821     H
H       0.1895    0.249   0.3905     H
H       0.1895   0.9405    0.299     H
H       0.1899   0.4207   0.2896     H
H       0.1899   0.7692   0.4003     H
N      0.19097  0.19908  0.25943     N
N      0.19097  0.99189  0.43154     N
H       0.1929   0.2851   0.0308     H
H       0.1929   0.9078   0.6621     H
H        0.194   0.2362    0.492     H
H        0.194   0.9578    0.202     H
N      0.19908  0.43965  0.00811     N
N      0.19908  0.75943  0.69097     N
H        0.201   0.3905   0.1415     H
H        0.201   0.8105   0.5595     H
H       0.2016   0.4908    0.405     H
H       0.2016   0.7108   0.2966     H
H        0.202   0.4578    0.194     H
H        0.202   0.7442    0.508     H
H       0.2034    0.405   0.9142     H
H       0.2034   0.7984   0.7892     H
H       0.2035   0.5983   0.6804     H
H       0.2035   0.6052   0.0231     H
C      0.20676  0.41543  0.33031     C
C      0.20676  0.79133  0.37645     C
C        0.207   0.4379   0.1523     C
C        0.207   0.7691   0.5547     C
C      0.20867  0.08512  0.41543     C
C      0.20867  0.12355  0.29324     C
H       0.2104   0.4003   0.6311     H
H       0.2104   0.8101   0.0793     H
H       0.2108   0.5092   0.9142     H
H       0.2108   0.7016   0.7966     H
C      0.21351  0.45424  0.39391     C
C      0.21351  0.75927   0.3196     C
Zn     0.21368  0.28632     0.25    Zn
Zn     0.21368  0.92736  0.46368    Zn
C       0.2144   0.2691   0.0621     C
C       0.2144   0.9453   0.6523     C
H       0.2149   0.3071   0.4692     H
H       0.2149   0.9078   0.2457     H
C      0.22008  0.56839  0.65859     C
C      0.22008  0.65169  0.06149     C
N      0.22845    0.367  0.33457     N
N      0.22845  0.86145  0.39388     N
H       0.2308   0.0997   0.3101     H
H       0.2308   0.1311   0.4207     H
C       0.2309   0.2856   0.4379     C
C       0.2309   0.9453    0.293     C
H       0.2362   0.2442   0.0422     H
H       0.2362    0.992    0.694     H
N      0.24057  0.43154  0.43965     N
N      0.24057  0.80903  0.30092     N
C      0.24073  0.06033  0.45424     C
C      0.24073   0.1804  0.28649     C
H       0.2442   0.5422   0.7362     H
H       0.2442    0.702    0.008     H
H       0.2457   0.4078   0.2149     H
H       0.2457   0.8379   0.5308     H
C      0.24881  0.37937  0.40164     C
C      0.24881  0.86944  0.34717     C
H        0.249   0.3585   0.0595     H
H        0.249   0.8905   0.6895     H
Zn        0.25  0.46368  0.53632    Zn
Zn        0.25  0.78632  0.21368    Zn
H        0.251   0.3105   0.1095     H
H        0.251   0.9405   0.6415     H
C      0.25119  0.59836  0.62063     C
C      0.25119  0.65283  0.13056     C
H       0.2543   0.4692   0.1621     H
H       0.2543   0.7851   0.5922     H
H       0.2558   0.2638   0.4578     H
H       0.2558    0.992    0.298     H
C      0.25927  0.54576  0.93967     C
C      0.25927  0.71351   0.8196     C
N      0.25943  0.56035  0.56846     N
N      0.25943  0.69908  0.19097     N
H       0.2638    0.306    0.008     H
H       0.2638   0.9578   0.7558     H
C       0.2691   0.5621   0.7144     C
C       0.2691    0.707   0.0547     C
H       0.2692   0.5793   0.8689     H
H       0.2692   0.6899   0.9003     H
N      0.27155  0.60612  0.13855     N
N      0.27155  0.66543    0.633     N
C      0.27992  0.34141  0.43161     C
C      0.27992  0.93851  0.34831     C
H       0.2851   0.5308   0.6929     H
H       0.2851   0.7543   0.0922     H
C       0.2856   0.3477   0.0547     C
C       0.2856   0.9379   0.7309     C
Zn     0.28632  0.53632  0.07264    Zn
Zn     0.28632     0.75  0.71368    Zn
C      0.28649  0.60609  0.54576     C
C      0.28649   0.6804  0.24073     C
H       0.2892   0.0858   0.4908     H
H       0.2892   0.2034   0.2984     H
H       0.2896   0.3689   0.5997     H
H       0.2896   0.9207   0.1899     H
C      0.29133  0.58457  0.91488     C
C      0.29133  0.70676  0.87645     C
C        0.293   0.4453   0.2309     C
C        0.293   0.8477   0.5621     C
C      0.29324  0.62355  0.20867     C
C      0.29324  0.66969  0.58457     C
H       0.2965   0.3196   0.4017     H
H       0.2965   0.9769   0.3948     H
H       0.2966   0.0858    0.595     H
H       0.2966   0.2108   0.2016     H
H        0.298    0.492   0.2558     H
H        0.298    0.806   0.5422     H
H       0.2984    0.595   0.5092     H
H       0.2984   0.7034   0.2892     H
H        0.299   0.4405   0.1895     H
H        0.299   0.8585   0.6095     H
N      0.30092  0.30903  0.24057     N
N      0.30092  0.99189  0.56035     N
H        0.306    0.508   0.7638     H
H        0.306    0.798   0.0422     H
H       0.3071   0.3379   0.0922     H
H       0.3071   0.9692   0.7149     H
N      0.30903  0.56846  0.00811     N
N      0.30903  0.74057  0.80092     N
H       0.3101   0.5997   0.2308     H
H       0.3101   0.7104   0.5793     H
H       0.3105   0.6095    0.751     H
H       0.3105    0.701   0.0595     H
C       0.3196  0.06033  0.60609     C
C       0.3196  0.25927  0.21351     C
H       0.3196   0.4179   0.0231     H
H       0.3196   0.9017   0.7965     H
H       0.3213   0.3764   0.4785     H
H       0.3213   0.9449   0.3428     H
C      0.33031  0.41488  0.62355     C
C      0.33031  0.91543  0.20676     C
N      0.33457  0.46757  0.60612     N
N      0.33457    0.867  0.22845     N
H       0.3379   0.5922   0.8071     H
H       0.3379   0.7457   0.0308     H
C      0.34141   0.4098  0.06149     C
C      0.34141  0.93161  0.77992     C
H       0.3428   0.4449   0.3213     H
H       0.3428   0.8979   0.5215     H
C      0.34717  0.36944  0.24881     C
C      0.34717  0.97773  0.59836     C
C       0.3477   0.5547   0.7856     C
C       0.3477    0.793   0.0621     C
C      0.34831  0.43851  0.27992     C
C      0.34831   0.9098  0.56839     C
H       0.3585   0.5595    0.749     H
H       0.3585    0.799   0.1095     H
N      0.36145    0.633  0.96757     N
N      0.36145  0.72845  0.89388     N
N        0.367  0.53243  0.13855     N
N        0.367  0.83457  0.72845     N
H       0.3689   0.0997   0.7896     H
H       0.3689   0.2692   0.0793     H
C      0.36944  0.62063  0.02227     C
C      0.36944  0.74881  0.84717     C
H       0.3764   0.3979   0.0551     H
H       0.3764   0.9785   0.8213     H
C      0.37645  0.08512  0.66969     C
C      0.37645  0.29133  0.20676     C
C      0.37937  0.47773  0.13056     C
C      0.37937  0.90164  0.74881     C
H       0.3905   0.6415    0.701     H
H       0.3905    0.749   0.1895     H
N      0.39388  0.03243  0.66543     N
N      0.39388  0.36145  0.22845     N
C      0.39391  0.43967   0.6804     C
C      0.39391  0.95424  0.21351     C
H       0.3948   0.4769   0.2965     H
H       0.3948   0.9179   0.5983     H
H       0.3979   0.5551   0.8764     H
H       0.3979   0.8428   0.0215     H
H       0.4003   0.1311   0.7104     H
H       0.4003   0.2692   0.1899     H
C      0.40164  0.52227  0.65283     C
C      0.40164  0.87937  0.24881     C
H       0.4017   0.5821   0.6052     H
H       0.4017   0.8196   0.2965     H
H        0.405   0.4142   0.7034     H
H        0.405   0.9908   0.2016     H
H       0.4078   0.6929   0.1621     H
H       0.4078   0.7149   0.7457     H
C       0.4098  0.56149  0.84141     C
C       0.4098  0.84831  0.06839     C
H       0.4142   0.2034    0.905     H
H       0.4142   0.2108   0.0092     H
C      0.41488  0.12355  0.83031     C
C      0.41488  0.29133  0.08457     C
C      0.41543  0.58512  0.20867     C
C      0.41543  0.83031  0.70676     C
H       0.4179   0.5231   0.8196     H
H       0.4179   0.8948   0.0983     H
H       0.4207   0.6311   0.2308     H
H       0.4207   0.7896   0.6899     H
Zn     0.42736  0.71368  0.96368    Zn
N      0.43154  0.49189  0.19097     N
N      0.43154  0.93965  0.74057     N
C      0.43161   0.5902  0.65169     C
C      0.43161  0.84141  0.27992     C
C       0.4379   0.6523    0.707     C
C       0.4379   0.7856   0.2309     C
C      0.43851  0.65859   0.0902     C
C      0.43851  0.77992  0.84831     C
N      0.43965  0.50811  0.69908     N
N      0.43965  0.93154  0.24057     N
C      0.43967   0.1804  0.89391     C
C      0.43967  0.25927  0.04576     C
H       0.4405   0.6895    0.799     H
H       0.4405    0.751   0.1415     H
H       0.4449   0.6236   0.1021     H
H       0.4449   0.8213   0.8428     H
C       0.4453   0.7144   0.1523     C
C       0.4453   0.7309    0.793     C
C      0.45424  0.56033  0.24073     C
C      0.45424  0.89391  0.71351     C
H       0.4578    0.694    0.702     H
H       0.4578   0.7638   0.2558     H
Zn     0.46368  0.03632     0.75    Zn
Zn     0.46368  0.42736  0.21368    Zn
N      0.46757  0.10612  0.83457     N
N      0.46757  0.36145    0.133     N
H       0.4692   0.6621   0.7543     H
H       0.4692   0.8071   0.2149     H
H       0.4769   0.6804   0.0821     H
H       0.4769   0.7965   0.8948     H
C      0.47773  0.63056  0.87937     C
C      0.47773  0.84717  0.09836     C
H       0.4785   0.6021   0.6572     H
H       0.4785   0.8764   0.3213     H
H       0.4908   0.5858   0.2892     H
H       0.4908    0.905   0.7016     H
N      0.49189  0.69097  0.93154     N
N      0.49189  0.80092  0.06035     N
H        0.492   0.7362    0.194     H
H        0.492   0.7558    0.798     H
H        0.508   0.2442    0.202     H
H        0.508   0.2638    0.806     H
N      0.50811  0.19908  0.93965     N
N      0.50811  0.30903  0.06846     N
H       0.5092    0.095   0.2984     H
H       0.5092   0.4142   0.7108     H
H       0.5215   0.1236   0.6787     H
H       0.5215   0.3979   0.3428     H
C      0.52227  0.15283  0.90164     C
C      0.52227  0.36944  0.12063     C
H       0.5231   0.2035   0.1052     H
H       0.5231   0.3196   0.9179     H
H       0.5308   0.1929   0.7851     H
H       0.5308   0.3379   0.2457     H
N      0.53243  0.63855    0.867     N
N      0.53243  0.89388  0.16543     N
Zn     0.53632  0.57264  0.78632    Zn
Zn     0.53632  0.96368     0.25    Zn
H       0.5422   0.2362   0.7442     H
H       0.5422    0.306    0.298     H
C      0.54576  0.10609  0.28649     C
C      0.54576  0.43967  0.75927     C
C       0.5547   0.2691    0.207     C
C       0.5547   0.2856   0.8477     C
H       0.5551   0.1787   0.1572     H
H       0.5551   0.3764   0.8979     H
H       0.5595    0.249   0.8585     H
H       0.5595   0.3105    0.201     H
C      0.56033  0.74073  0.95424     C
C      0.56033   0.8196  0.10609     C
N      0.56035  0.06846  0.75943     N
N      0.56035  0.49189  0.30092     N
C      0.56149  0.22008  0.15169     C
C      0.56149  0.34141   0.9098     C
C       0.5621   0.2144   0.7691     C
C       0.5621   0.3477    0.293     C
C      0.56839  0.15859  0.72008     C
C      0.56839   0.4098  0.34831     C
N      0.56846  0.06035  0.25943     N
N      0.56846  0.50811  0.80903     N
Zn     0.57264  0.28632  0.03632    Zn
H       0.5793   0.2104   0.3101     H
H       0.5793   0.3689   0.7692     H
H       0.5821   0.1052   0.9017     H
H       0.5821   0.4769   0.1804     H
C      0.58457  0.16969  0.29324     C
C      0.58457  0.41488  0.79133     C
C      0.58512  0.70867  0.91543     C
C      0.58512  0.87645  0.16969     C
H       0.5858   0.7892   0.9908     H
H       0.5858   0.7966    0.095     H
C       0.5902  0.15169  0.93161     C
C       0.5902  0.43851  0.15859     C
H       0.5922   0.2851   0.2543     H
H       0.5922   0.3071   0.8379     H
H        0.595   0.0092   0.7984     H
H        0.595   0.5858   0.2966     H
H       0.5983   0.1804   0.7035     H
H       0.5983   0.4179   0.3948     H
C      0.59836  0.12063  0.75119     C
C      0.59836  0.47773  0.34717     C
H       0.5997   0.7308   0.8101     H
H       0.5997   0.8689   0.2896     H
H       0.6021   0.1572   0.9785     H
H       0.6021   0.4449   0.1236     H
H       0.6052   0.0821   0.4017     H
H       0.6052   0.5231   0.7035     H
C      0.60609  0.04576  0.78649     C
C      0.60609  0.56033   0.3196     C
N      0.60612  0.63855  0.77155     N
N      0.60612  0.96757  0.33457     N
H       0.6095    0.251   0.8105     H
H       0.6095   0.3585    0.299     H
C      0.62063  0.09836  0.25119     C
C      0.62063  0.52227  0.86944     C
C      0.62355  0.70867  0.79324     C
C      0.62355  0.91488  0.33031     C
H       0.6236   0.0215   0.1787     H
H       0.6236   0.6021   0.9449     H
C      0.63056  0.25119  0.15283     C
C      0.63056  0.37937  0.97773     C
H       0.6311   0.7308   0.9207     H
H       0.6311   0.9003   0.2104     H
N        0.633  0.16543  0.27155     N
N        0.633  0.46757  0.86145     N
N      0.63855  0.27155  0.10612     N
N      0.63855    0.367  0.03243     N
H       0.6415    0.201   0.8905     H
H       0.6415   0.4405    0.251     H
C      0.65169   0.0902  0.43161     C
C      0.65169  0.56149  0.72008     C
C       0.6523    0.207   0.9379     C
C       0.6523   0.4453   0.2144     C
C      0.65283  0.02227  0.40164     C
C      0.65283  0.63056  0.75119     C
H       0.6572   0.1021   0.4785     H
H       0.6572   0.5551   0.6787     H
C      0.65859  0.06839  0.22008     C
C      0.65859   0.5902  0.93851     C
H       0.6621   0.2543   0.9692     H
H       0.6621   0.4078   0.1929     H
N      0.66543    0.133  0.77155     N
N      0.66543  0.53243  0.39388     N
C      0.66969  0.08457  0.79324     C
C      0.66969  0.58512  0.37645     C
H       0.6787   0.0551   0.6572     H
H       0.6787   0.6236   0.5215     H
H       0.6804   0.0983   0.2035     H
H       0.6804   0.5821   0.9769     H
C       0.6804  0.74073  0.78649     C
C       0.6804  0.93967  0.39391     C
H       0.6895    0.299   0.9405     H
H       0.6895   0.3905    0.249     H
H       0.6899   0.2896   0.4207     H
H       0.6899   0.4003   0.7692     H
N      0.69097  0.25943  0.19908     N
N      0.69097  0.43154  0.99189     N
H       0.6929   0.0308   0.2851     H
H       0.6929   0.6621   0.9078     H
H        0.694    0.202   0.9578     H
H        0.694    0.492   0.2362     H
N      0.69908  0.00811  0.43965     N
N      0.69908  0.69097  0.75943     N
H        0.701   0.1415   0.3905     H
H        0.701   0.5595   0.8105     H
H       0.7016   0.2966   0.7108     H
H       0.7016    0.405   0.4908     H
H        0.702    0.194   0.4578     H
H        0.702    0.508   0.7442     H
H       0.7034   0.7892   0.7984     H
H       0.7034   0.9142    0.405     H
H       0.7035   0.0231   0.6052     H
H       0.7035   0.6804   0.5983     H
C      0.70676  0.33031  0.41543     C
C      0.70676  0.37645  0.79133     C
C        0.707   0.1523   0.4379     C
C        0.707   0.5547   0.7691     C
C      0.70867  0.29324  0.12355     C
C      0.70867  0.41543  0.08512     C
H       0.7104   0.0793   0.8101     H
H       0.7104   0.6311   0.4003     H
H       0.7108   0.7966   0.7016     H
H       0.7108   0.9142   0.5092     H
C      0.71351   0.3196  0.75927     C
C      0.71351  0.39391  0.45424     C
Zn     0.71368     0.25  0.28632    Zn
Zn     0.71368  0.46368  0.92736    Zn
C       0.7144   0.0621   0.2691     C
C       0.7144   0.6523   0.9453     C
H       0.7149   0.2457   0.9078     H
H       0.7149   0.4692   0.3071     H
C      0.72008  0.06149  0.65169     C
C      0.72008  0.65859  0.56839     C
N      0.72845  0.33457    0.367     N
N      0.72845  0.39388  0.86145     N
H       0.7308   0.3101   0.0997     H
H       0.7308   0.4207   0.1311     H
C       0.7309    0.293   0.9453     C
C       0.7309   0.4379   0.2856     C
H       0.7362   0.0422   0.2442     H
H       0.7362    0.694    0.992     H
N      0.74057  0.30092  0.80903     N
N      0.74057  0.43965  0.43154     N
C      0.74073  0.28649   0.1804     C
C      0.74073  0.45424  0.06033     C
H       0.7442    0.008    0.702     H
H       0.7442   0.7362   0.5422     H
H       0.7457   0.2149   0.4078     H
H       0.7457   0.5308   0.8379     H
C      0.74881  0.34717  0.86944     C
C      0.74881  0.40164  0.37937     C
H        0.749   0.0595   0.3585     H
H        0.749   0.6895   0.8905     H
Zn        0.75  0.21368  0.78632    Zn
Zn        0.75  0.53632  0.46368    Zn
H        0.751   0.1095   0.3105     H
H        0.751   0.6415   0.9405     H
C      0.75119  0.13056  0.65283     C
C      0.75119  0.62063  0.59836     C
H       0.7543   0.1621   0.4692     H
H       0.7543   0.5922   0.7851     H
H       0.7558    0.298    0.992     H
H       0.7558   0.4578   0.2638     H
C      0.75927   0.8196  0.71351     C
C      0.75927  0.93967  0.54576     C
N      0.75943  0.19097  0.69908     N
N      0.75943  0.56846  0.56035     N
H       0.7638    0.008    0.306     H
H       0.7638   0.7558   0.9578     H
C       0.7691   0.0547    0.707     C
C       0.7691   0.7144   0.5621     C
H       0.7692   0.8689   0.5793     H
H       0.7692   0.9003   0.6899     H
N      0.77155  0.13855  0.60612     N
N      0.77155    0.633  0.66543     N
C      0.77992  0.34831  0.93851     C
C      0.77992  0.43161  0.34141     C
H       0.7851   0.0922   0.7543     H
H       0.7851   0.6929   0.5308     H
C       0.7856   0.0547   0.3477     C
C       0.7856   0.7309   0.9379     C
Zn     0.78632  0.07264  0.53632    Zn
Zn     0.78632  0.71368     0.75    Zn
C      0.78649  0.24073   0.6804     C
C      0.78649  0.54576  0.60609     C
H       0.7892   0.2984   0.2034     H
H       0.7892   0.4908   0.0858     H
H       0.7896   0.1899   0.9207     H
H       0.7896   0.5997   0.3689     H
C      0.79133  0.87645  0.70676     C
C      0.79133  0.91488  0.58457     C
C        0.793   0.2309   0.4453     C
C        0.793   0.5621   0.8477     C
C      0.79324  0.20867  0.62355     C
C      0.79324  0.58457  0.66969     C
H       0.7965   0.3948   0.9769     H
H       0.7965   0.4017   0.3196     H
H       0.7966   0.2016   0.2108     H
H       0.7966    0.595   0.0858     H
H        0.798   0.2558    0.492     H
H        0.798   0.5422    0.806     H
H       0.7984   0.2892   0.7034     H
H       0.7984   0.5092    0.595     H
H        0.799   0.1895   0.4405     H
H        0.799   0.6095   0.8585     H
N      0.80092  0.24057  0.30903     N
N      0.80092  0.56035  0.99189     N
H        0.806   0.0422    0.798     H
H        0.806   0.7638    0.508     H
H       0.8071   0.0922   0.3379     H
H       0.8071   0.7149   0.9692     H
N      0.80903  0.00811  0.56846     N
N      0.80903  0.80092  0.74057     N
H       0.8101   0.2308   0.5997     H
H       0.8101   0.5793   0.7104     H
H       0.8105   0.0595    0.701     H
H       0.8105    0.751   0.6095     H
H       0.8196   0.0231   0.4179     H
C       0.8196  0.21351  0.25927     C
C       0.8196  0.60609  0.06033     C
H       0.8196   0.7965   0.9017     H
H       0.8213   0.3428   0.9449     H
H       0.8213   0.4785   0.3764     H
C      0.83031  0.20676  0.91543     C
C      0.83031  0.62355  0.41488     C
N      0.83457  0.22845    0.867     N
N      0.83457  0.60612  0.46757     N
H       0.8379   0.0308   0.7457     H
H       0.8379   0.8071   0.5922     H
C      0.84141  0.06149   0.4098     C
C      0.84141  0.77992  0.93161     C
H       0.8428   0.3213   0.4449     H
H       0.8428   0.5215   0.8979     H
C      0.84717  0.24881  0.36944     C
C      0.84717  0.59836  0.97773     C
C       0.8477   0.0621    0.793     C
C       0.8477   0.7856   0.5547     C
C      0.84831  0.27992  0.43851     C
C      0.84831  0.56839   0.9098     C
H       0.8585   0.1095    0.799     H
H       0.8585    0.749   0.5595     H
N      0.86145  0.89388  0.72845     N
N      0.86145  0.96757    0.633     N
N        0.867  0.13855  0.53243     N
N        0.867  0.72845  0.83457     N
H       0.8689   0.0793   0.2692     H
H       0.8689   0.7896   0.0997     H
C      0.86944  0.02227  0.62063     C
C      0.86944  0.84717  0.74881     C
H       0.8764   0.0551   0.3979     H
H       0.8764   0.8213   0.9785     H
C      0.87645  0.20676  0.29133     C
C      0.87645  0.66969  0.08512     C
C      0.87937  0.13056  0.47773     C
C      0.87937  0.74881  0.90164     C
H       0.8905   0.1895    0.749     H
H       0.8905    0.701   0.6415     H
N      0.89388  0.22845  0.36145     N
N      0.89388  0.66543  0.03243     N
C      0.89391  0.21351  0.95424     C
C      0.89391   0.6804  0.43967     C
H       0.8948   0.2965   0.4769     H
H       0.8948   0.5983   0.9179     H
H       0.8979   0.0215   0.8428     H
H       0.8979   0.8764   0.5551     H
H       0.9003   0.1899   0.2692     H
H       0.9003   0.7104   0.1311     H
C      0.90164  0.24881  0.87937     C
C      0.90164  0.65283  0.52227     C
H       0.9017   0.2965   0.8196     H
H       0.9017   0.6052   0.5821     H
H        0.905   0.2016   0.9908     H
H        0.905   0.7034   0.4142     H
H       0.9078   0.1621   0.6929     H
H       0.9078   0.7457   0.7149     H
C       0.9098  0.06839  0.84831     C
C       0.9098  0.84141  0.56149     C
H       0.9142   0.0092   0.2108     H
H       0.9142    0.905   0.2034     H
C      0.91488  0.08457  0.29133     C
C      0.91488  0.83031  0.12355     C
C      0.91543  0.20867  0.58512     C
C      0.91543  0.70676  0.83031     C
H       0.9179   0.0983   0.8948     H
H       0.9179   0.8196   0.5231     H
H       0.9207   0.2308   0.6311     H
H       0.9207   0.6899   0.7896     H
Zn     0.92736  0.96368  0.71368    Zn
N      0.93154  0.19097  0.49189     N
N      0.93154  0.74057  0.93965     N
C      0.93161  0.27992  0.84141     C
C      0.93161  0.65169   0.5902     C
C       0.9379   0.2309   0.7856     C
C       0.9379    0.707   0.6523     C
C      0.93851   0.0902  0.65859     C
C      0.93851  0.84831  0.77992     C
N      0.93965  0.24057  0.93154     N
N      0.93965  0.69908  0.50811     N
C      0.93967  0.04576  0.25927     C
C      0.93967  0.89391   0.1804     C
H       0.9405   0.1415    0.751     H
H       0.9405    0.799   0.6895     H
H       0.9449   0.1021   0.6236     H
H       0.9449   0.8428   0.8213     H
C       0.9453   0.1523   0.7144     C
C       0.9453    0.793   0.7309     C
C      0.95424  0.24073  0.56033     C
C      0.95424  0.71351  0.89391     C
H       0.9578   0.2558   0.7638     H
H       0.9578    0.702    0.694     H
Zn     0.96368  0.21368  0.42736    Zn
Zn     0.96368     0.75  0.03632    Zn
N      0.96757    0.133  0.36145     N
N      0.96757  0.83457  0.10612     N
H       0.9692   0.2149   0.8071     H
H       0.9692   0.7543   0.6621     H
H       0.9769   0.0821   0.6804     H
H       0.9769   0.8948   0.7965     H
C      0.97773  0.09836  0.84717     C
C      0.97773  0.87937  0.63056     C
H       0.9785   0.3213   0.8764     H
H       0.9785   0.6572   0.6021     H
H       0.9908   0.2892   0.5858     H
H       0.9908   0.7016    0.905     H
N      0.99189  0.06035  0.80092     N
N      0.99189  0.93154  0.69097     N
H        0.992    0.194   0.7362     H
H        0.992    0.798   0.7558     H
