data_I
_chemical_name_common  '/home/zhangsd/repos/MofS-CGCNN/ML/data/SSD/clean_cifs/MECWEX_manual'
_cell_length_a 14.73280
_cell_length_b 14.73280
_cell_length_c 14.73280
_cell_angle_alpha 109.47100
_cell_angle_beta  109.47100
_cell_angle_gamma 109.47100
_space_group_name_H-M_alt      'P 1'


loop_
_space_group_symop_operation_xyz
  'x, y, z' 

loop_
_atom_site_label
_atom_site_fract_x
_atom_site_fract_y
_atom_site_fract_z
_atom_site_type_symbol
C          0.0    0.319   0.5094     C
C          0.0  0.36875  0.61465     C
C          0.0   0.5094    0.319     C
C          0.0  0.61465  0.36875     C
C       0.0556   0.4706   0.7888     C
C       0.0556   0.7888   0.4706     C
H      0.07867  0.31311  0.52703     H
H      0.08562  0.52838  0.32946     H
N      0.09283  0.44173  0.71416     N
N      0.09283  0.71416  0.44173     N
H      0.10298  0.52987  0.88236     H
H      0.10298  0.88236  0.52987     H
H      0.10839  0.65921  0.61212     H
H      0.11764  0.22062  0.64751     H
H      0.11764  0.64751  0.22062     H
H      0.17362  0.64698  0.73629     H
C       0.1904    0.681    0.681     C
C       0.2112   0.2668   0.6818     C
C       0.2112   0.6818   0.2668     C
H      0.22062  0.11764  0.64751     H
H      0.22062  0.64751  0.11764     H
H      0.23802  0.44585  0.91802     H
C       0.2459  0.63125  0.63125     C
H      0.24638  0.77518  0.73297     H
Zn        0.25      0.5     0.75    Zn
Zn        0.25     0.75      0.5    Zn
H      0.26153  0.91065  0.43766     H
C       0.2668   0.2112   0.6818     C
C       0.2668   0.6818   0.2112     C
H      0.26931  0.04467  0.51447     H
N      0.27243  0.55827   0.6511     N
N      0.27243   0.6511  0.55827     N
N      0.28584  0.37867  0.72757     N
N      0.28584  0.72757  0.37867     N
H      0.30134  0.52496  0.07176     H
C       0.3182   0.5294    0.585     C
C       0.3182    0.585   0.5294     C
C        0.319      0.0   0.5094     C
C        0.319   0.5094      0.0     C
N       0.3489  0.62133  0.90717     N
N       0.3489  0.90717  0.62133     N
H      0.35249  0.47013  0.57311     H
H      0.35249  0.57311  0.47013     H
C      0.36875      0.0  0.61465     C
C      0.36875  0.61465      0.0     C
N      0.37867  0.28584  0.72757     N
N      0.37867  0.72757  0.28584     N
H      0.37927  0.47621  0.01022     H
C      0.38535  0.38535   0.7541     C
C      0.38535   0.7541  0.38535     C
H      0.38778  0.04467  0.49488     H
C        0.415   0.7332   0.9444     C
C        0.415   0.9444   0.7332     C
H      0.42689  0.77938  0.89702     H
H      0.42689  0.89702  0.77938     H
H      0.43766  0.91065  0.26153     H
N      0.44173  0.09283  0.71416     N
N      0.44173  0.71416  0.09283     N
H      0.44918  0.34079  0.95291     H
H      0.47013  0.35249  0.57311     H
H      0.47013  0.57311  0.35249     H
C       0.4706   0.0556   0.7888     C
C       0.4706   0.7888   0.0556     C
H       0.4712  0.22482  0.95779     H
H      0.47248  0.78947  0.55308     H
H      0.47743  0.54236  0.76911     H
C       0.4906   0.4906   0.8096     C
C       0.4906   0.8096   0.4906     C
H      0.49488  0.04467  0.38778     H
Zn         0.5     0.25     0.75    Zn
Zn         0.5     0.75     0.25    Zn
C       0.5094      0.0    0.319     C
C       0.5094    0.319      0.0     C
H      0.51447  0.04467  0.26931     H
H      0.51832  0.53901  0.90142     H
H      0.52663  0.35302   0.0893     H
C       0.5294   0.3182    0.585     C
C       0.5294    0.585   0.3182     C
H      0.52987  0.10298  0.88236     H
H      0.52987  0.88236  0.10298     H
H       0.5324  0.90334  0.52549     H
H      0.54811   0.7788  0.47442     H
H      0.55724  0.47162  0.80108     H
N      0.55827  0.27243   0.6511     N
N      0.55827   0.6511  0.27243     N
H      0.57311  0.35249  0.47013     H
H      0.57311  0.47013  0.35249     H
C        0.585   0.3182   0.5294     C
C        0.585   0.5294   0.3182     C
C      0.61465      0.0  0.36875     C
C      0.61465  0.36875      0.0     C
N      0.62133   0.3489  0.90717     N
N      0.62133  0.90717   0.3489     N
H       0.6241  0.62675  0.09645     H
H      0.62905  0.09666  0.62215     H
C      0.63125   0.2459  0.63125     C
C      0.63125  0.63125   0.2459     C
H      0.64751  0.11764  0.22062     H
H      0.64751  0.22062  0.11764     H
N       0.6511  0.27243  0.55827     N
N       0.6511  0.55827  0.27243     N
C        0.681   0.1904    0.681     C
C        0.681    0.681   0.1904     C
C       0.6818   0.2112   0.2668     C
C       0.6818   0.2668   0.2112     C
H      0.68301  0.21053  0.76361     H
H      0.69172  0.76774  0.21801     H
N      0.71416  0.09283  0.44173     N
N      0.71416  0.44173  0.09283     N
N      0.72757  0.28584  0.37867     N
N      0.72757  0.37867  0.28584     N
C       0.7332    0.415   0.9444     C
C       0.7332   0.9444    0.415     C
Zn        0.75     0.25      0.5    Zn
Zn        0.75      0.5     0.25    Zn
C       0.7541  0.38535  0.38535     C
H      0.76556  0.68689  0.21392     H
H      0.76931   0.2212  0.69562     H
H      0.77638  0.47504   0.5468     H
H      0.77938  0.42689  0.89702     H
H      0.77938  0.89702  0.42689     H
C       0.7888   0.0556   0.4706     C
C       0.7888   0.4706   0.0556     C
H      0.79217  0.55415  0.47217     H
C       0.8096   0.4906   0.4906     C
H      0.88236  0.10298  0.52987     H
H      0.88236  0.52987  0.10298     H
H      0.89702  0.42689  0.77938     H
H      0.89702  0.77938  0.42689     H
H      0.90306  0.52379  0.53401     H
N      0.90717   0.3489  0.62133     N
N      0.90717  0.62133   0.3489     N
H      0.92398  0.23226  0.45027     H
H      0.93507  0.45764  0.22676     H
C       0.9444    0.415   0.7332     C
C       0.9444   0.7332    0.415     C
H      0.97931  0.46099   0.3624     H
H      0.99736  0.37325  0.46971     H
