data_I
_chemical_name_common  '/home/zhangsd/repos/MofS-CGCNN/ML/data/SSD/clean_cifs/MEGBAD_clean'
_cell_length_a 18.77720
_cell_length_b 18.77720
_cell_length_c 19.74400
_cell_angle_alpha 112.88100
_cell_angle_beta  112.88100
_cell_angle_gamma 100.50500
_space_group_name_H-M_alt      'P 1'


loop_
_space_group_symop_operation_xyz
  'x, y, z' 

loop_
_atom_site_label
_atom_site_fract_x
_atom_site_fract_y
_atom_site_fract_z
_atom_site_type_symbol
O      0.00326  0.37006  0.90672     O
Mn     0.01281  0.01281  0.69754    Mn
C      0.01347  0.40227  0.61594     C
O      0.01478  0.12106  0.58764     O
H       0.0166   0.2536   0.5902     H
C        0.017   0.3608    0.668     C
C       0.0171   0.2819    0.641     C
C       0.0178   0.2428   0.6888     C
C       0.0184   0.1564   0.6572     C
O       0.0207   0.1273   0.7034     O
C       0.0208   0.2858   0.7634     C
H       0.0211   0.2599   0.7952     H
C       0.0225   0.4115   0.8762     C
C        0.023    0.366   0.7938     C
C      0.02346  0.40306  0.74672     C
H       0.0284   0.4586   0.7682     H
Mn     0.03029  0.58589      0.0    Mn
O      0.03797  0.48817  0.90494     O
O       0.0647   0.0647   0.4474     O
C       0.0658    0.616   0.4484     C
N        0.081    0.581      0.5     N
C       0.0842   0.4564   0.6328     C
Cl     0.08857  0.70677     -0.0    Cl
N       0.0938   0.5016   0.5954     N
O      0.09654  0.46334  0.09328     O
O      0.12106  0.01478  0.58764     O
O       0.1273   0.0207   0.7034     O
O      0.13303  0.58323  0.09506     O
C       0.1421   0.6729    0.468     C
C       0.1463   0.5353   0.1238     C
H       0.1473   0.7033   0.4414     H
C       0.1564   0.0184   0.6572     C
C       0.1676   0.6174   0.5516     C
C       0.1687   0.4761    0.699     C
C       0.1764   0.5486   0.6328     C
H       0.1813   0.4537   0.7346     H
C       0.2049   0.6741    0.532     C
C      0.21367  0.60247  0.61594     C
C       0.2229   0.5303    0.699     C
H       0.2259   0.4647   0.2048     H
C       0.2292   0.5722   0.2062     C
C       0.2428   0.0178   0.6888     C
H       0.2536   0.0166   0.5902     H
C       0.2574   0.5224   0.2366     C
H       0.2599   0.0211   0.7952     H
H       0.2602   0.6904   0.2318     H
H       0.2619   0.7059   0.5586     H
C      0.27674  0.65634  0.25328     C
H       0.2809   0.5533   0.7346     H
C       0.2819   0.0171    0.641     C
C       0.2858   0.0208   0.7634     C
Cl     0.29323  0.91143      0.0    Cl
H       0.2941   0.7381   0.4414     H
H       0.2967   0.8527   0.5586     H
C       0.3072    0.651    0.668     C
H       0.3096   0.7398   0.7682     H
Mn     0.31527  0.31527  0.30246    Mn
O       0.3173   0.4239   0.2966     O
C       0.3259   0.7951    0.468     C
C       0.3271   0.8579    0.532     C
C        0.329    0.554   0.3112     C
H       0.3366   0.5736   0.5902     H
C      0.34366  0.72326  0.74672     C
C        0.349   0.6928    0.332     C
C       0.3591   0.6239    0.641     C
C       0.3608    0.017    0.668     C
C       0.3612   0.4992   0.3428     C
C        0.366    0.023   0.7938     C
O      0.37006  0.00326  0.90672     O
C       0.3761   0.6409    0.359     C
C       0.3826   0.8324   0.4484     C
O       0.3827   0.3827   0.4474     O
C        0.384   0.9342   0.5516     C
C      0.39753  0.78633  0.38406     C
C      0.40227  0.01347  0.61594     C
C      0.40306  0.02346  0.74672     C
C       0.4115   0.0225   0.8762     C
Mn     0.41411  0.96971      0.0    Mn
O      0.41677  0.86697  0.90494     O
N        0.419    0.919      0.5     N
O       0.4239   0.3173   0.2966     O
H       0.4264   0.6634   0.4098     H
O      0.42714  0.53342  0.41236     O
C       0.4278   0.7708   0.7938     C
C        0.446    0.671   0.6888     C
H       0.4467   0.7191   0.2654     H
C       0.4514   0.8236   0.3672     C
H       0.4537   0.1813   0.7346     H
C       0.4564   0.0842   0.6328     C
H       0.4586   0.0284   0.7682     H
O      0.46334  0.09654  0.09328     O
H       0.4647   0.2259   0.2048     H
C       0.4647   0.8537   0.8762     C
O      0.46658  0.57286  0.58764     O
C       0.4697   0.7771    0.301     C
C       0.4761   0.1687    0.699     C
C       0.4776   0.7426   0.7634     C
O      0.48817  0.03797  0.90494     O
N       0.4984   0.9062   0.4046     N
C       0.4992   0.3612   0.3428     C
Ni         0.5     -0.0      0.5    Ni
Mn         0.5      0.5      0.5    Mn
C       0.5008   0.6388   0.6572     C
N       0.5016   0.0938   0.5954     N
O      0.51183  0.96203  0.09506     O
C       0.5224   0.2574   0.2366     C
C       0.5239   0.8313    0.301     C
C       0.5303   0.2229    0.699     C
O      0.53342  0.42714  0.41236     O
C       0.5353   0.1463   0.1238     C
H       0.5353   0.7741   0.7952     H
O      0.53666  0.90346  0.90672     O
H       0.5414   0.9716   0.2318     H
C       0.5436   0.9158   0.3672     C
H       0.5463   0.8187   0.2654     H
C       0.5486   0.1764   0.6328     C
H       0.5533   0.2809   0.7346     H
C        0.554    0.329   0.3112     C
C       0.5722   0.2292   0.2062     C
O      0.57286  0.46658  0.58764     O
H       0.5736   0.3366   0.5902     H
O       0.5761   0.6827   0.7034     O
N        0.581    0.081      0.5     N
O      0.58323  0.13303  0.09506     O
Mn     0.58589  0.03029      0.0    Mn
C       0.5885   0.9775   0.1238     C
C      0.59694  0.97654  0.25328     C
C      0.59773  0.98653  0.38406     C
C      0.60247  0.21367  0.61594     C
C        0.616   0.0658   0.4484     C
O       0.6173   0.6173   0.5526     O
C       0.6174   0.1676   0.5516     C
C       0.6239   0.3591    0.641     C
O      0.62994  0.99674  0.09328     O
C        0.634    0.977   0.2062     C
C       0.6388   0.5008   0.6572     C
C       0.6392    0.983    0.332     C
C       0.6409   0.3761    0.359     C
C        0.651   0.3072    0.668     C
C      0.65634  0.27674  0.25328     C
H       0.6634   0.4264   0.4098     H
C        0.671    0.446   0.6888     C
C       0.6729   0.1421    0.468     C
C       0.6741   0.2049    0.532     C
O       0.6827   0.5761   0.7034     O
Mn     0.68473  0.68473  0.69754    Mn
H       0.6904   0.2602   0.2318     H
C       0.6928    0.349    0.332     C
H       0.7033   0.1473   0.4414     H
H       0.7059   0.2619   0.5586     H
Cl     0.70677  0.08857     -0.0    Cl
C       0.7142   0.9792   0.2366     C
C       0.7181   0.9829    0.359     C
H       0.7191   0.4467   0.2654     H
C      0.72326  0.34366  0.74672     C
H       0.7381   0.2941   0.4414     H
H       0.7398   0.3096   0.7682     H
H       0.7401   0.9789   0.2048     H
C       0.7426   0.4776   0.7634     C
H       0.7464   0.9834   0.4098     H
C       0.7572   0.9822   0.3112     C
C       0.7708   0.4278   0.7938     C
H       0.7741   0.5353   0.7952     H
C       0.7771   0.4697    0.301     C
C      0.78633  0.39753  0.38406     C
C       0.7951   0.3259    0.468     C
H       0.8187   0.5463   0.2654     H
C       0.8236   0.4514   0.3672     C
C       0.8313   0.5239    0.301     C
C       0.8324   0.3826   0.4484     C
C       0.8436   0.9816   0.3428     C
H       0.8527   0.2967   0.5586     H
C       0.8537   0.4647   0.8762     C
C       0.8579   0.3271    0.532     C
O      0.86697  0.41677  0.90494     O
O       0.8727   0.9793   0.2966     O
O      0.87894  0.98522  0.41236     O
O      0.90346  0.53666  0.90672     O
N       0.9062   0.4984   0.4046     N
Cl     0.91143  0.29323      0.0    Cl
C       0.9158   0.5436   0.3672     C
N        0.919    0.419      0.5     N
C       0.9342    0.384   0.5516     C
O       0.9353   0.9353   0.5526     O
O      0.96203  0.51183  0.09506     O
Mn     0.96971  0.41411      0.0    Mn
H       0.9716   0.5414   0.2318     H
C      0.97654  0.59694  0.25328     C
C        0.977    0.634   0.2062     C
C       0.9775   0.5885   0.1238     C
H       0.9789   0.7401   0.2048     H
C       0.9792   0.7142   0.2366     C
O       0.9793   0.8727   0.2966     O
C       0.9816   0.8436   0.3428     C
C       0.9822   0.7572   0.3112     C
C       0.9829   0.7181    0.359     C
C        0.983   0.6392    0.332     C
H       0.9834   0.7464   0.4098     H
O      0.98522  0.87894  0.41236     O
C      0.98653  0.59773  0.38406     C
Mn     0.98719  0.98719  0.30246    Mn
O      0.99674  0.62994  0.09328     O
Mn         1.0     -0.0      0.5    Mn
Ni         1.0      0.5      0.5    Ni
