data_I
_chemical_name_common  '/home/zhangsd/repos/MofS-CGCNN/ML/data/SSD/clean_cifs/MIHBAG_clean'
_cell_length_a 11.70560
_cell_length_b 12.32160
_cell_length_c 12.78120
_cell_angle_alpha 90.00000
_cell_angle_beta  98.15400
_cell_angle_gamma 90.00000
_space_group_name_H-M_alt      'P 1'


loop_
_space_group_symop_operation_xyz
  'x, y, z' 

loop_
_atom_site_label
_atom_site_fract_x
_atom_site_fract_y
_atom_site_fract_z
_atom_site_type_symbol
C       0.0639   0.0003   0.0006     C
C       0.0639   0.4997   0.5006     C
H       0.0829   0.6548   0.4563     H
H       0.0829   0.8452   0.9563     H
H       0.0932   0.1557   0.0435     H
H       0.0932   0.3443   0.5435     H
C       0.1224   0.5907   0.4749     C
C       0.1224   0.9093   0.9749     C
C       0.1285   0.0919   0.0262     C
C       0.1285   0.4081   0.5262     C
O       0.1469   0.7108   0.7156     O
O       0.1469   0.7892   0.2156     O
C        0.228   0.6752   0.7625     C
C        0.228   0.8248   0.2625     C
C       0.2402   0.5853   0.4771     C
C       0.2402   0.9147   0.9771     C
C       0.2459   0.0887   0.0261     C
C       0.2459   0.4113   0.5261     C
O       0.2671   0.6342   0.0366     O
O       0.2671   0.8658   0.5366     O
H        0.278   0.6478   0.4597     H
H        0.278   0.8522   0.9597     H
H       0.2877   0.1518   0.0441     H
H       0.2877   0.3482   0.5441     H
O       0.2899    0.103   0.2933     O
O       0.2899    0.397   0.7933     O
C       0.3005   0.6289   0.9568     C
C       0.3005   0.8711   0.4568     C
N       0.3035   0.0019   0.0021     N
N       0.3035   0.4981   0.5021     N
C       0.3159   0.0147   0.3091     C
C       0.3159   0.4853   0.8091     C
Mn      0.3596   0.6238   0.8351    Mn
Mn      0.3596   0.8762   0.3351    Mn
H       0.4075   0.6636   0.2765     H
H       0.4075   0.8364   0.7765     H
H       0.4204   0.7078   0.6472     H
H       0.4204   0.7922   0.1472     H
H       0.4391   0.5015   0.1311     H
H       0.4391   0.9985   0.6311     H
C        0.446   0.7282   0.2955     C
C        0.446   0.7718   0.7955     C
H       0.4527   0.1258   0.5023     H
H       0.4527   0.3742   0.0023     H
C       0.4546   0.6932    0.716     C
C       0.4546   0.8068    0.216     C
C       0.4618   0.0686   0.6515     C
C       0.4618   0.4314   0.1515     C
O       0.4644   0.0244   0.8316     O
O       0.4644   0.4756   0.3316     O
C       0.4707    0.146   0.5729     C
C       0.4707    0.354   0.0729     C
C       0.4865   0.0929   0.7626     C
C       0.4865   0.4071   0.2626     C
C       0.4933   0.7439   0.4024     C
C       0.4933   0.7561   0.9024     C
O       0.4955   0.6731   0.4755     O
O       0.4955   0.8269   0.9755     O
Mn         0.5      0.0      0.0    Mn
Mn         0.5      0.5      0.5    Mn
O       0.5045   0.1731   0.0245     O
O       0.5045   0.3269   0.5245     O
C       0.5067   0.2439   0.0976     C
C       0.5067   0.2561   0.5976     C
C       0.5135   0.5929   0.7374     C
C       0.5135   0.9071   0.2374     C
C       0.5293    0.646   0.9271     C
C       0.5293    0.854   0.4271     C
O       0.5356   0.5244   0.6684     O
O       0.5356   0.9756   0.1684     O
C       0.5382   0.5686   0.8485     C
C       0.5382   0.9314   0.3485     C
C       0.5454   0.1932    0.784     C
C       0.5454   0.3068    0.284     C
H       0.5473   0.6258   0.9977     H
H       0.5473   0.8742   0.4977     H
C        0.554   0.2282   0.2045     C
C        0.554   0.2718   0.7045     C
H       0.5609   0.0015   0.3689     H
H       0.5609   0.4985   0.8689     H
H       0.5796   0.2078   0.8528     H
H       0.5796   0.2922   0.3528     H
H       0.5925   0.1636   0.2235     H
H       0.5925   0.3364   0.7235     H
Mn      0.6404   0.1238   0.6649    Mn
Mn      0.6404   0.3762   0.1649    Mn
C       0.6841   0.5147   0.1909     C
C       0.6841   0.9853   0.6909     C
N       0.6965   0.5019   0.4979     N
N       0.6965   0.9981   0.9979     N
C       0.6995   0.1289   0.5432     C
C       0.6995   0.3711   0.0432     C
O       0.7101    0.603   0.2067     O
O       0.7101    0.897   0.7067     O
H       0.7123   0.6518   0.4559     H
H       0.7123   0.8482   0.9559     H
H        0.722   0.1478   0.0403     H
H        0.722   0.3522   0.5403     H
O       0.7329   0.1342   0.4634     O
O       0.7329   0.3658   0.9634     O
C       0.7541   0.5887   0.4739     C
C       0.7541   0.9113   0.9739     C
C       0.7598   0.0853   0.0229     C
C       0.7598   0.4147   0.5229     C
C        0.772   0.1752   0.7375     C
C        0.772   0.3248   0.2375     C
O       0.8531   0.2108   0.7844     O
O       0.8531   0.2892   0.2844     O
C       0.8715   0.5919   0.4738     C
C       0.8715   0.9081   0.9738     C
C       0.8776   0.0907   0.0251     C
C       0.8776   0.4093   0.5251     C
H       0.9068   0.6557   0.4565     H
H       0.9068   0.8443   0.9565     H
H       0.9171   0.1548   0.0437     H
H       0.9171   0.3452   0.5437     H
C       0.9361   0.5003   0.4994     C
C       0.9361   0.9997   0.9994     C
