data_I
_chemical_name_common  '/home/zhangsd/repos/MofS-CGCNN/ML/data/SSD/clean_cifs/MIRLUU_clean'
_cell_length_a  7.20750
_cell_length_b 10.75620
_cell_length_c 17.21800
_cell_angle_alpha 97.07200
_cell_angle_beta  90.00000
_cell_angle_gamma 90.00000
_space_group_name_H-M_alt      'P 1'


loop_
_space_group_symop_operation_xyz
  'x, y, z' 

loop_
_atom_site_label
_atom_site_fract_x
_atom_site_fract_y
_atom_site_fract_z
_atom_site_type_symbol
Eu     0.01964  0.82562  0.25305    Eu
O       0.0323   0.3444   0.6758     O
H       0.0424   0.8284   0.9404     H
O       0.0484   0.1483    0.033     O
C       0.0709   0.4527   0.5667     C
C       0.0746   0.4576   0.9271     C
O       0.0803   0.0822   0.6135     O
C       0.0878   0.5992   0.4702     C
C       0.1175   0.5481   0.0619     C
H       0.1477   0.6652   0.4505     H
C       0.1485   0.3921   0.6338     C
C       0.1579   0.5526   0.5367     C
C       0.1718    0.416   0.8519     C
O       0.1784   0.8885   0.1424     O
C       0.1818   0.1225   0.0781     C
H       0.1839   0.0075   0.4805     H
O       0.1845   0.1536   0.1492     O
C       0.1886   0.5048   0.9886     C
O       0.1888   0.6438    0.192     O
O       0.1924   0.2974   0.8302     O
O       0.2481   0.9937   0.3155     O
C       0.2495   0.0946   0.6254     C
C       0.2505   0.5946   0.1254     C
O       0.2519   0.4937   0.8155     O
O       0.3076   0.7974   0.3302     O
O       0.3112   0.1438    0.692     O
C       0.3114   0.0048   0.4886     C
O       0.3155   0.6536   0.6492     O
H       0.3161   0.5075   0.9805     H
C       0.3182   0.6225   0.5781     C
O       0.3216   0.3885   0.6424     O
C       0.3282    0.916   0.3519     C
C       0.3421   0.0526   0.0367     C
C       0.3515   0.8921   0.1338     C
H       0.3523   0.1652   0.9505     H
C       0.3825   0.0481   0.5619     C
C       0.4122   0.0992   0.9702     C
O       0.4197   0.5822   0.1135     O
C       0.4254   0.9576   0.4271     C
C       0.4291   0.9527   0.0667     C
O       0.4516   0.6483    0.533     O
H       0.4576   0.3284   0.4404     H
O       0.4677   0.8444   0.1758     O
Eu     0.48036  0.32562  0.75305    Eu
Eu     0.51964  0.67438  0.24695    Eu
O       0.5323   0.1556   0.8242     O
H       0.5424   0.6716   0.5596     H
O       0.5484   0.3517    0.467     O
C       0.5709   0.0473   0.9333     C
C       0.5746   0.0424   0.5729     C
O       0.5803   0.4178   0.8865     O
C       0.5878   0.9008   0.0298     C
C       0.6175   0.9519   0.4381     C
H       0.6477   0.8348   0.0495     H
C       0.6485   0.1079   0.8662     C
C       0.6579   0.9474   0.9633     C
C       0.6718    0.084   0.6481     C
O       0.6784   0.6115   0.3576     O
C       0.6818   0.3775   0.4219     C
H       0.6839   0.4925   0.0195     H
O       0.6845   0.3464   0.3508     O
C       0.6886   0.9952   0.5114     C
O       0.6888   0.8562    0.308     O
O       0.6924   0.2026   0.6698     O
O       0.7481   0.5063   0.1845     O
C       0.7495   0.4054   0.8746     C
C       0.7505   0.9054   0.3746     C
O       0.7519   0.0063   0.6845     O
O       0.8076   0.7026   0.1698     O
O       0.8112   0.3562    0.808     O
C       0.8114   0.4952   0.0114     C
O       0.8155   0.8464   0.8508     O
H       0.8161   0.9925   0.5195     H
C       0.8182   0.8775   0.9219     C
O       0.8216   0.1115   0.8576     O
C       0.8282    0.584   0.1481     C
C       0.8421   0.4474   0.4633     C
C       0.8515   0.6079   0.3662     C
H       0.8523   0.3348   0.5495     H
C       0.8825   0.4519   0.9381     C
C       0.9122   0.4008   0.5298     C
O       0.9197   0.9178   0.3865     O
C       0.9254   0.5424   0.0729     C
C       0.9291   0.5473   0.4333     C
O       0.9516   0.8517    0.967     O
H       0.9576   0.1716   0.0596     H
O       0.9677   0.6556   0.3242     O
Eu     0.98036  0.17438  0.74695    Eu
