data_I
_chemical_name_common  '/home/zhangsd/repos/MofS-CGCNN/ML/data/SSD/clean_cifs/MITGIF_clean'
_cell_length_a  5.72520
_cell_length_b 13.63370
_cell_length_c 13.63370
_cell_angle_alpha 99.50380
_cell_angle_beta  91.77360
_cell_angle_gamma 88.22640
_space_group_name_H-M_alt      'P 1'


loop_
_space_group_symop_operation_xyz
  'x, y, z' 

loop_
_atom_site_label
_atom_site_fract_x
_atom_site_fract_y
_atom_site_fract_z
_atom_site_type_symbol
C       0.0058   0.2604   0.6026     C
C       0.0058   0.3974   0.7396     C
O       0.0948   0.1297   0.2639     O
O       0.0948   0.7361   0.8703     O
C        0.095   0.3497   0.6503     C
C       0.0994   0.0481   0.0903     C
C       0.0994   0.9097   0.9519     C
O       0.1133    0.113   0.4926     O
O       0.1133   0.5074    0.887     O
C       0.1277   0.2067   0.5119     C
C       0.1277   0.4881   0.7933     C
C       0.1717   0.6446    0.218     C
C       0.1717    0.782   0.3554     C
C        0.193   0.9584   0.0416     C
C       0.2111   0.0845   0.1903     C
C       0.2111   0.8097   0.9155     C
H       0.2169    0.378    0.622     H
O       0.2487   0.2531   0.4597     O
O       0.2487   0.5403   0.7469     O
O       0.2522   0.6522   0.0516     O
O       0.2522   0.9484   0.3478     O
C        0.264   0.7361   0.2639     C
C       0.2796   0.6027   0.1189     C
C       0.2796   0.8811   0.3973     C
H       0.3829   0.7653   0.2347     H
O       0.3952   0.5219   0.1137     O
O       0.3952   0.8863   0.4781     O
Yb     0.41566  0.10033  0.37595    Yb
Yb     0.41566  0.62405  0.89967    Yb
O       0.4214   0.0621   0.2035     O
O       0.4214   0.7965   0.9379     O
O       0.5786   0.2035   0.0621     O
O       0.5786   0.9379   0.7965     O
Yb     0.58434  0.37595  0.10033    Yb
Yb     0.58434  0.89967  0.62405    Yb
O       0.6048   0.1137   0.5219     O
O       0.6048   0.4781   0.8863     O
H       0.6171   0.2347   0.7653     H
C       0.7204   0.1189   0.6027     C
C       0.7204   0.3973   0.8811     C
C        0.736   0.2639   0.7361     C
O       0.7478   0.0516   0.6522     O
O       0.7478   0.3478   0.9484     O
O       0.7513   0.4597   0.2531     O
O       0.7513   0.7469   0.5403     O
H       0.7831    0.622    0.378     H
C       0.7889   0.1903   0.0845     C
C       0.7889   0.9155   0.8097     C
C        0.807   0.0416   0.9584     C
C       0.8283    0.218   0.6446     C
C       0.8283   0.3554    0.782     C
C       0.8723   0.5119   0.2067     C
C       0.8723   0.7933   0.4881     C
O       0.8867   0.4926    0.113     O
O       0.8867    0.887   0.5074     O
C       0.9006   0.0903   0.0481     C
C       0.9006   0.9519   0.9097     C
C        0.905   0.6503   0.3497     C
O       0.9052   0.2639   0.1297     O
O       0.9052   0.8703   0.7361     O
C       0.9942   0.6026   0.2604     C
C       0.9942   0.7396   0.3974     C
