data_I
_chemical_name_common  '/home/zhangsd/repos/MofS-CGCNN/ML/data/SSD/clean_cifs/MITGUR_clean'
_cell_length_a  7.16930
_cell_length_b 10.72460
_cell_length_c 17.15800
_cell_angle_alpha 97.10900
_cell_angle_beta  90.00000
_cell_angle_gamma 90.00000
_space_group_name_H-M_alt      'P 1'


loop_
_space_group_symop_operation_xyz
  'x, y, z' 

loop_
_atom_site_label
_atom_site_fract_x
_atom_site_fract_y
_atom_site_fract_z
_atom_site_type_symbol
Tb     0.02005  0.32429  0.75327    Tb
O       0.0288   0.8452   0.1763     O
O        0.044   0.6503   0.5323     O
C       0.0717    0.952   0.0677     C
C       0.0758   0.9594   0.4259     C
O       0.0761   0.5836   0.1139     O
C       0.0892   0.0984   0.9701     C
C        0.118   0.0495   0.5622     C
C       0.1475   0.8891   0.1359     C
H       0.1498   0.1645   0.9504     H
C       0.1611   0.0531   0.0361     C
C       0.1724    0.914   0.3512     C
O       0.1788   0.3861   0.6432     O
C       0.1806   0.6203   0.5778     C
O       0.1806    0.652   0.6495     O
H       0.1845   0.5099   0.9812     H
C       0.1873   0.0069   0.4889     C
O       0.1904   0.1465   0.6917     O
O        0.192   0.7949   0.3299     O
O       0.2479   0.4938    0.815     O
C       0.2485   0.5951   0.1267     C
C       0.2515   0.0951   0.6267     C
O       0.2521   0.9938    0.315     O
O        0.308   0.2949   0.8299     O
O       0.3096   0.6465   0.1917     O
C       0.3127   0.5069   0.9889     C
H       0.3155   0.0099   0.4812     H
C       0.3194   0.1203   0.0778     C
O       0.3194    0.152   0.1495     O
O       0.3212   0.8861   0.1432     O
C       0.3276    0.414   0.8512     C
C       0.3389   0.5531   0.5361     C
H       0.3502   0.6645   0.4504     H
C       0.3525   0.3891   0.6359     C
C        0.382   0.5495   0.0622     C
C       0.4108   0.5984   0.4701     C
O       0.4239   0.0836   0.6139     O
C       0.4242   0.4594   0.9259     C
C       0.4283    0.452   0.5677     C
O        0.456   0.1503   0.0323     O
O       0.4712   0.3452   0.6763     O
Tb     0.47995  0.82429  0.25327    Tb
Tb     0.52005  0.17571  0.74673    Tb
O       0.5288   0.6548   0.3237     O
O        0.544   0.8497   0.9677     O
C       0.5717    0.548   0.4323     C
C       0.5758   0.5406   0.0741     C
O       0.5761   0.9164   0.3861     O
C       0.5892   0.4016   0.5299     C
C        0.618   0.4505   0.9378     C
C       0.6475   0.6109   0.3641     C
H       0.6498   0.3355   0.5496     H
C       0.6611   0.4469   0.4639     C
C       0.6724    0.586   0.1488     C
O       0.6788   0.1139   0.8568     O
O       0.6806    0.848   0.8505     O
C       0.6806   0.8797   0.9222     C
H       0.6845   0.9901   0.5188     H
C       0.6873   0.4931   0.0111     C
O       0.6904   0.3535   0.8083     O
O        0.692   0.7051   0.1701     O
O       0.7479   0.0062    0.685     O
C       0.7485   0.9049   0.3733     C
C       0.7515   0.4049   0.8733     C
O       0.7521   0.5062    0.185     O
O        0.808   0.2051   0.6701     O
O       0.8096   0.8535   0.3083     O
C       0.8127   0.9931   0.5111     C
H       0.8155   0.4901   0.0188     H
O       0.8194    0.348   0.3505     O
C       0.8194   0.3797   0.4222     C
O       0.8212   0.6139   0.3568     O
C       0.8276    0.086   0.6488     C
C       0.8389   0.9469   0.9639     C
H       0.8502   0.8355   0.0496     H
C       0.8525   0.1109   0.8641     C
C        0.882   0.9505   0.4378     C
C       0.9108   0.9016   0.0299     C
O       0.9239   0.4164   0.8861     O
C       0.9242   0.0406   0.5741     C
C       0.9283    0.048   0.9323     C
O        0.956   0.3497   0.4677     O
O       0.9712   0.1548   0.8237     O
Tb     0.97995  0.67571  0.24673    Tb
