data_I
_chemical_name_common  '/home/zhangsd/repos/MofS-CGCNN/ML/data/SSD/clean_cifs/MIVFOO_clean'
_cell_length_a 18.91530
_cell_length_b 18.91530
_cell_length_c 18.91530
_cell_angle_alpha 90.00000
_cell_angle_beta  90.00000
_cell_angle_gamma 90.00000
_space_group_name_H-M_alt      'P 1'


loop_
_space_group_symop_operation_xyz
  'x, y, z' 

loop_
_atom_site_label
_atom_site_fract_x
_atom_site_fract_y
_atom_site_fract_z
_atom_site_type_symbol
Mn         0.0  0.35958      0.5    Mn
Mn         0.0      0.5  0.35958    Mn
Cl         0.0      0.5      0.5    Cl
Mn         0.0      0.5  0.64042    Mn
Mn         0.0  0.64042      0.5    Mn
N      0.07982  0.36733  0.41677     N
N      0.07982  0.36733  0.58323     N
N      0.07982  0.41677  0.36733     N
N      0.07982  0.41677  0.63267     N
N      0.07982  0.58323  0.36733     N
N      0.07982  0.58323  0.63267     N
N      0.07982  0.63267  0.41677     N
N      0.07982  0.63267  0.58323     N
N      0.13278  0.32334  0.40639     N
N      0.13278  0.32334  0.59361     N
N      0.13278  0.40639  0.32334     N
N      0.13278  0.40639  0.67666     N
N      0.13278  0.59361  0.32334     N
N      0.13278  0.59361  0.67666     N
N      0.13278  0.67666  0.40639     N
N      0.13278  0.67666  0.59361     N
Mn      0.1426   0.2584      0.5    Mn
Mn      0.1426      0.5   0.2584    Mn
Mn      0.1426      0.5   0.7416    Mn
Mn      0.1426   0.7416      0.5    Mn
C       0.1656   0.3488   0.3488     C
C       0.1656   0.3488   0.6512     C
C       0.1656   0.6512   0.3488     C
C       0.1656   0.6512   0.6512     C
C       0.2279   0.3169   0.3169     C
C       0.2279   0.3169   0.6831     C
C       0.2279   0.6831   0.3169     C
C       0.2279   0.6831   0.6831     C
H       0.2377   0.2377   0.3871     H
H       0.2377   0.2377   0.6129     H
H       0.2377   0.3871   0.2377     H
H       0.2377   0.3871   0.7623     H
H       0.2377   0.6129   0.2377     H
H       0.2377   0.6129   0.7623     H
H       0.2377   0.7623   0.3871     H
H       0.2377   0.7623   0.6129     H
C       0.2576   0.2576   0.3468     C
C       0.2576   0.2576   0.6532     C
C       0.2576   0.3468   0.2576     C
C       0.2576   0.3468   0.7424     C
C       0.2576   0.6532   0.2576     C
C       0.2576   0.6532   0.7424     C
C       0.2576   0.7424   0.3468     C
C       0.2576   0.7424   0.6532     C
Mn      0.2584   0.1426      0.5    Mn
Mn      0.2584      0.5   0.1426    Mn
Mn      0.2584      0.5   0.8574    Mn
Mn      0.2584   0.8574      0.5    Mn
C       0.3169   0.2279   0.3169     C
C       0.3169   0.2279   0.6831     C
C       0.3169   0.3169   0.2279     C
C       0.3169   0.3169   0.7721     C
C       0.3169   0.6831   0.2279     C
C       0.3169   0.6831   0.7721     C
C       0.3169   0.7721   0.3169     C
C       0.3169   0.7721   0.6831     C
N      0.32334  0.13278  0.40639     N
N      0.32334  0.13278  0.59361     N
N      0.32334  0.40639  0.13278     N
N      0.32334  0.40639  0.86722     N
N      0.32334  0.59361  0.13278     N
N      0.32334  0.59361  0.86722     N
N      0.32334  0.86722  0.40639     N
N      0.32334  0.86722  0.59361     N
C       0.3468   0.2576   0.2576     C
C       0.3468   0.2576   0.7424     C
C       0.3468   0.7424   0.2576     C
C       0.3468   0.7424   0.7424     C
C       0.3488   0.1656   0.3488     C
C       0.3488   0.1656   0.6512     C
C       0.3488   0.3488   0.1656     C
C       0.3488   0.3488   0.8344     C
C       0.3488   0.6512   0.1656     C
C       0.3488   0.6512   0.8344     C
C       0.3488   0.8344   0.3488     C
C       0.3488   0.8344   0.6512     C
Mn     0.35958      0.0      0.5    Mn
Mn     0.35958      0.5      0.0    Mn
N      0.36733  0.07982  0.41677     N
N      0.36733  0.07982  0.58323     N
N      0.36733  0.41677  0.07982     N
N      0.36733  0.41677  0.92018     N
N      0.36733  0.58323  0.07982     N
N      0.36733  0.58323  0.92018     N
N      0.36733  0.92018  0.41677     N
N      0.36733  0.92018  0.58323     N
H       0.3871   0.2377   0.2377     H
H       0.3871   0.2377   0.7623     H
H       0.3871   0.7623   0.2377     H
H       0.3871   0.7623   0.7623     H
N      0.40639  0.13278  0.32334     N
N      0.40639  0.13278  0.67666     N
N      0.40639  0.32334  0.13278     N
N      0.40639  0.32334  0.86722     N
N      0.40639  0.67666  0.13278     N
N      0.40639  0.67666  0.86722     N
N      0.40639  0.86722  0.32334     N
N      0.40639  0.86722  0.67666     N
N      0.41677  0.07982  0.36733     N
N      0.41677  0.07982  0.63267     N
N      0.41677  0.36733  0.07982     N
N      0.41677  0.36733  0.92018     N
N      0.41677  0.63267  0.07982     N
N      0.41677  0.63267  0.92018     N
N      0.41677  0.92018  0.36733     N
N      0.41677  0.92018  0.63267     N
Mn         0.5      0.0  0.35958    Mn
Cl         0.5      0.0      0.5    Cl
Mn         0.5      0.0  0.64042    Mn
Mn         0.5   0.1426   0.2584    Mn
Mn         0.5   0.1426   0.7416    Mn
Mn         0.5   0.2584   0.1426    Mn
Mn         0.5   0.2584   0.8574    Mn
Mn         0.5  0.35958      0.0    Mn
Cl         0.5      0.5      0.0    Cl
Mn         0.5  0.64042      0.0    Mn
Mn         0.5   0.7416   0.1426    Mn
Mn         0.5   0.7416   0.8574    Mn
Mn         0.5   0.8574   0.2584    Mn
Mn         0.5   0.8574   0.7416    Mn
N      0.58323  0.07982  0.36733     N
N      0.58323  0.07982  0.63267     N
N      0.58323  0.36733  0.07982     N
N      0.58323  0.36733  0.92018     N
N      0.58323  0.63267  0.07982     N
N      0.58323  0.63267  0.92018     N
N      0.58323  0.92018  0.36733     N
N      0.58323  0.92018  0.63267     N
N      0.59361  0.13278  0.32334     N
N      0.59361  0.13278  0.67666     N
N      0.59361  0.32334  0.13278     N
N      0.59361  0.32334  0.86722     N
N      0.59361  0.67666  0.13278     N
N      0.59361  0.67666  0.86722     N
N      0.59361  0.86722  0.32334     N
N      0.59361  0.86722  0.67666     N
H       0.6129   0.2377   0.2377     H
H       0.6129   0.2377   0.7623     H
H       0.6129   0.7623   0.2377     H
H       0.6129   0.7623   0.7623     H
N      0.63267  0.07982  0.41677     N
N      0.63267  0.07982  0.58323     N
N      0.63267  0.41677  0.07982     N
N      0.63267  0.41677  0.92018     N
N      0.63267  0.58323  0.07982     N
N      0.63267  0.58323  0.92018     N
N      0.63267  0.92018  0.41677     N
N      0.63267  0.92018  0.58323     N
Mn     0.64042      0.0      0.5    Mn
Mn     0.64042      0.5      0.0    Mn
C       0.6512   0.1656   0.3488     C
C       0.6512   0.1656   0.6512     C
C       0.6512   0.3488   0.1656     C
C       0.6512   0.3488   0.8344     C
C       0.6512   0.6512   0.1656     C
C       0.6512   0.6512   0.8344     C
C       0.6512   0.8344   0.3488     C
C       0.6512   0.8344   0.6512     C
C       0.6532   0.2576   0.2576     C
C       0.6532   0.2576   0.7424     C
C       0.6532   0.7424   0.2576     C
C       0.6532   0.7424   0.7424     C
N      0.67666  0.13278  0.40639     N
N      0.67666  0.13278  0.59361     N
N      0.67666  0.40639  0.13278     N
N      0.67666  0.40639  0.86722     N
N      0.67666  0.59361  0.13278     N
N      0.67666  0.59361  0.86722     N
N      0.67666  0.86722  0.40639     N
N      0.67666  0.86722  0.59361     N
C       0.6831   0.2279   0.3169     C
C       0.6831   0.2279   0.6831     C
C       0.6831   0.3169   0.2279     C
C       0.6831   0.3169   0.7721     C
C       0.6831   0.6831   0.2279     C
C       0.6831   0.6831   0.7721     C
C       0.6831   0.7721   0.3169     C
C       0.6831   0.7721   0.6831     C
Mn      0.7416   0.1426      0.5    Mn
Mn      0.7416      0.5   0.1426    Mn
Mn      0.7416      0.5   0.8574    Mn
Mn      0.7416   0.8574      0.5    Mn
C       0.7424   0.2576   0.3468     C
C       0.7424   0.2576   0.6532     C
C       0.7424   0.3468   0.2576     C
C       0.7424   0.3468   0.7424     C
C       0.7424   0.6532   0.2576     C
C       0.7424   0.6532   0.7424     C
C       0.7424   0.7424   0.3468     C
C       0.7424   0.7424   0.6532     C
H       0.7623   0.2377   0.3871     H
H       0.7623   0.2377   0.6129     H
H       0.7623   0.3871   0.2377     H
H       0.7623   0.3871   0.7623     H
H       0.7623   0.6129   0.2377     H
H       0.7623   0.6129   0.7623     H
H       0.7623   0.7623   0.3871     H
H       0.7623   0.7623   0.6129     H
C       0.7721   0.3169   0.3169     C
C       0.7721   0.3169   0.6831     C
C       0.7721   0.6831   0.3169     C
C       0.7721   0.6831   0.6831     C
C       0.8344   0.3488   0.3488     C
C       0.8344   0.3488   0.6512     C
C       0.8344   0.6512   0.3488     C
C       0.8344   0.6512   0.6512     C
Mn      0.8574   0.2584      0.5    Mn
Mn      0.8574      0.5   0.2584    Mn
Mn      0.8574      0.5   0.7416    Mn
Mn      0.8574   0.7416      0.5    Mn
N      0.86722  0.32334  0.40639     N
N      0.86722  0.32334  0.59361     N
N      0.86722  0.40639  0.32334     N
N      0.86722  0.40639  0.67666     N
N      0.86722  0.59361  0.32334     N
N      0.86722  0.59361  0.67666     N
N      0.86722  0.67666  0.40639     N
N      0.86722  0.67666  0.59361     N
N      0.92018  0.36733  0.41677     N
N      0.92018  0.36733  0.58323     N
N      0.92018  0.41677  0.36733     N
N      0.92018  0.41677  0.63267     N
N      0.92018  0.58323  0.36733     N
N      0.92018  0.58323  0.63267     N
N      0.92018  0.63267  0.41677     N
N      0.92018  0.63267  0.58323     N
