data_I
_chemical_name_common  '/home/zhangsd/repos/MofS-CGCNN/ML/data/SSD/clean_cifs/MIXBIG_auto'
_cell_length_a 18.49660
_cell_length_b 18.46600
_cell_length_c 35.38590
_cell_angle_alpha 89.58950
_cell_angle_beta  90.27400
_cell_angle_gamma 120.09710
_space_group_name_H-M_alt      'P 1'


loop_
_space_group_symop_operation_xyz
  'x, y, z' 

loop_
_atom_site_label
_atom_site_fract_x
_atom_site_fract_y
_atom_site_fract_z
_atom_site_type_symbol
C     -0.02257  0.48156  0.39745     C
H     -0.01951  0.59888  0.39152     H
H     -0.01293  0.37016  0.39687     H
C     -0.00119  0.76843  0.27576     C
C       0.0015  0.55851  0.37984     C
H      0.00208  0.28738  0.72845     H
C      0.00504  0.21816   0.2781     C
C       0.0057  0.42952  0.38308     C
O      0.01316  0.79574  0.30939     O
H      0.01606  0.69765  0.72545     H
O      0.01791  0.20243  0.31165     O
C      0.02119  0.22088  0.68313     C
C      0.03217  0.78529  0.68128     C
C      0.04351  0.26802  0.71648     C
C      0.05332   0.5844  0.34802     C
O      0.05345   0.7604  0.25756     O
C      0.05578  0.45331  0.35035     C
C      0.05647  0.75969  0.71391     C
H      0.05675  0.39869   0.8732     H
H      0.05871  0.65343  0.87274     H
O      0.06043  0.28252   0.2607     O
H      0.06123  0.16212  0.64233     H
H      0.06671  0.88564  0.64128     H
O      0.07592  0.72281  0.35052     O
C      0.07736  0.19833  0.66811     C
O      0.07775  0.33653  0.35314     O
C      0.07901  0.53083  0.33302     C
C      0.08284  0.66845  0.33156     C
C      0.08529  0.86552  0.66651     C
C      0.08577  0.39914  0.33445     C
C      0.10862  0.39986  0.88815     C
Cu      0.1111  0.83221   0.3364    Cu
C      0.11134   0.7024  0.88797     C
Cu     0.11573  0.26465  0.33885    Cu
O      0.11601  0.68622  0.29899     O
C      0.11789  0.41537  0.92706     C
C      0.11891  0.29088  0.73509     C
H      0.11915  0.55065  0.30839     H
C       0.1196  0.69502  0.92708     C
N      0.12064  0.40237  0.77124     N
O      0.12074  0.41672  0.30223     O
C      0.13079  0.81418  0.73277     C
N       0.1324  0.42996  0.80632     N
N      0.13243  0.70363  0.77205     N
N       0.1402  0.34292  0.76787     N
N       0.1436  0.69382  0.80821     N
C      0.15197  0.78391  0.76732     C
C      0.15276  0.21915  0.68687     C
O      0.15398  0.93464  0.31207     O
Cu     0.15967   0.7887   0.2745    Cu
H      0.15987  0.07444   0.3054     H
C      0.16035  0.38625  0.82613     C
C      0.16046  0.92116  0.68496     C
O      0.16143  0.20989  0.31277     O
Cu     0.16602  0.36068  0.27766    Cu
C      0.16615  0.33098  0.80183     C
C       0.1675  0.38993  0.86763     C
N      0.16926  0.76466  0.82671     N
C      0.17276  0.26494  0.72074     C
C      0.17326  0.76911  0.86714     C
C      0.17599  0.82353  0.80197     C
H      0.17992    0.282  0.80884     H
C      0.18219  0.89541  0.71864     C
C      0.18743   0.4202  0.94563     C
C      0.18843  0.95291  0.27977     C
H      0.18876  0.88576  0.80912     H
C      0.19073   0.7586  0.94548     C
O      0.19502  0.16202  0.63764     O
C      0.19503  0.22698  0.28018     C
O      0.19591  0.89873  0.26088     O
H      0.19656  0.43521  0.97544     H
C      0.19753  0.09303  0.27999     C
O      0.19886  0.02364  0.63645     O
H      0.19936  0.75299  0.97544     H
O      0.20372  0.29017  0.26188     O
C      0.20969  0.19291   0.6706     C
C       0.2146  0.00601  0.66912     C
O      0.21823  0.86344  0.35245     O
C      0.21895  0.03739  0.26359     C
O      0.22068  0.34185  0.35722     O
C      0.22175  0.17114  0.26309     C
H      0.23092  0.28267  0.73527     H
C      0.23589  0.39312  0.88643     C
H      0.23952  0.93747  0.73337     H
C      0.24276  0.83288  0.88577     C
C      0.24746  0.41022   0.9255     C
C      0.25279  0.82767  0.92505     C
Cu     0.25609  0.12517  0.61134    Cu
O      0.25837  0.82566  0.30129     O
O       0.2624  0.42081  0.30593     O
C      0.26768  0.06178  0.23078     C
C      0.26826  0.19332  0.22924     C
O      0.27213  0.20086  0.68934     O
C      0.27367  0.85686  0.33423     C
C      0.27555  0.40618  0.33964     C
O      0.27583  0.06071  0.68819     O
H      0.28052  0.19762  0.13647     H
H      0.28272  0.38819  0.87017     H
H      0.28555  0.01974  0.21815     H
H      0.28725    0.253  0.21568     H
H      0.29147  0.88304  0.86921     H
C      0.29239  0.13915  0.21345     C
H      0.31365   0.4122  0.41475     H
C      0.32697    0.429  0.94408     C
O      0.32826  0.23437  0.59605     O
C      0.32989  0.18513   0.1443     C
C      0.33254  0.88794  0.94361     C
O      0.33393  0.09743  0.59546     O
H      0.33683  0.95204  0.39672     H
O      0.34188  0.45713  0.97761     O
C      0.34483  0.16134  0.17937     C
O      0.34769  0.87369  0.97705     O
Cu     0.34906  0.17024  0.67329    Cu
C       0.3536  0.46736  0.35898     C
C      0.35659  0.88594  0.35166     C
C      0.36211  0.46311  0.39842     C
H      0.36304  0.35863  0.55163     H
C      0.37941  0.93455  0.38444     C
O      0.38159   0.4213  0.92578     O
H      0.38219  0.29856  0.07705     H
N      0.38265  0.17868  0.12021     N
C      0.38382  0.18342  0.07969     C
C      0.38659  0.25159  0.06066     C
O      0.38707  0.95122  0.92531     O
C      0.39038  0.28872  0.61476     C
H      0.39152  0.07209  0.07446     H
C      0.39259  0.12374  0.05925     C
H      0.39609  0.82817  0.31038     H
H       0.3962  0.07172  0.53978     H
C      0.39719  0.10548  0.61339     C
C      0.40338  0.26304  0.02143     C
N      0.40566  0.14206  0.17549     N
O      0.40653  0.27121  0.64742     O
C      0.40704  0.13213  0.02021     C
H      0.40907  0.54115   0.3085     H
O      0.41162  0.13343  0.64696     O
C      0.41225  0.20189  0.00144     C
O      0.41235  0.39307   1.0215     O
C      0.41338  0.86554  0.33582     C
H      0.41471  0.41041  0.47428     H
C      0.41584  0.53636  0.33869     C
O      0.41819  1.00954  1.01857     O
C      0.42015  0.33815  1.00343     C
C      0.42226   0.3993  0.56532     C
C      0.42633  1.07304  1.00065     C
H      0.42635  0.20994  -0.0285     H
C      0.42736  0.47233  0.48197     C
N      0.42747  0.15333   0.1395     N
C      0.42992  0.52857  0.41734     C
N      0.43378  0.53194  0.45779     N
Cu     0.44172   0.4992  1.00412    Cu
C      0.44535  0.37279  0.59837     C
O      0.44704  0.35267  0.96961     O
C      0.44707  0.07112  0.55484     C
Cu     0.44816  0.93309  1.00278    Cu
C      0.45212  0.51087   0.5168     C
O      0.45463  1.08788  0.96711     O
C       0.4556  0.08528  0.59387     C
C      0.45672  0.96092  0.40194     C
N      0.45816  0.07232  0.43799     N
N      0.46008  0.60229  0.47679     N
N      0.46982  0.09979  0.47311     N
N      0.47192  0.59137  0.51274     N
C      0.47483  0.47964  0.55053     C
N      0.47833  0.01334  0.43456     N
O      0.48007  0.59943  0.97829     O
H      0.48087   0.7365  0.96885     H
C      0.48469  0.60135  0.35739     C
O      0.48734  0.87395  0.97627     O
Cu     0.48809  0.45234  0.94268    Cu
C       0.4911  0.59639  0.39667     C
C      0.49134  0.89121  0.35301     C
Cu      0.4946  1.02773  0.94118    Cu
C      0.49819  0.05637  0.49286     C
C      0.50442  0.00147  0.46849     C
C      0.50502   0.0596   0.5344     C
C      0.51217  0.93805   0.3866     C
C      0.51412  0.61633   0.9459     C
H      0.51839 -0.04739  0.47545     H
C      0.51937  0.89001  0.94346     C
C      0.51996  0.75504  0.94389     C
O      0.52266  0.56172   0.9279     O
C      0.52287   0.4266  0.61545     C
C      0.52373  0.08737  0.61264     C
O       0.5284  0.95349  0.92513     O
O      0.52869  0.69263   0.3038     O
H      0.53246  0.10139  0.64254     H
O      0.53269  0.83441  0.30326     O
H      0.54226  0.40579   0.6402     H
H      0.54232   0.6472  0.41175     H
C      0.54343  0.69985  0.92872     C
C      0.54436  0.67917  0.33727     C
C        0.545  0.83312  0.92666     C
C      0.54884  0.86675  0.33597     C
O      0.55107  0.53477  1.01843     O
C      0.55167   0.5323  0.56797     C
O      0.55654  1.00657  1.01876     O
C      0.57181  0.05983  0.55339     C
H       0.5719  0.95867  0.40021     H
C      0.57708  0.50576  0.59992     C
C       0.5829  0.07571  0.59257     C
O      0.58859  0.49175  0.96811     O
Cu     0.58932  0.79195  0.27708    Cu
H      0.59278  0.59367  0.55595     H
C      0.59394  0.85553  0.89364     C
O      0.59412  1.08655  0.96776     O
C      0.59456  0.72455  0.89665     C
C      0.60556  0.52623  1.00036     C
O      0.60878  0.73421  0.35456     O
C      0.61082  1.07009  1.00052     C
O      0.61224  0.87597   0.3542     O
H      0.61407  0.91542  0.88005     H
H      0.61435  0.68313  0.88501     H
H      0.61694  0.86477  0.80209     H
H      0.61802  0.05372   0.5372     H
C      0.62002  0.80191  0.87907     C
C      0.66183  0.55881  0.61558     C
C      0.66199  0.09296  0.61116     C
O      0.66404  0.75934  0.26201     O
O      0.66454   0.8985  0.25931     O
C      0.66563  0.85219  0.81108     C
H      0.67102  0.62537  0.06144     H
C      0.67611  0.82558   0.8463     C
O      0.67774  0.12212  0.64449     O
H      0.67926  0.04401  0.06451     H
O      0.68049  0.54136  0.64761     O
Cu      0.6853  0.84104  0.33808    Cu
C      0.68889  0.55583  0.01744     C
C      0.69353   0.1267  0.01771     C
C      0.71273  0.60619  0.04966     C
O      0.71598  0.08408  0.59286     O
O      0.71609  0.62033  0.59629     O
C      0.71891   0.1043  0.05128     C
N      0.72175  0.84819  0.78835     N
H       0.7223  0.96796   0.7444     H
C      0.72626  0.85393   0.7479     C
H       0.7263  0.49399 -0.02269     H
H      0.72632  0.73483  0.20578     H
H      0.72746  0.22268 -0.02481     H
C      0.72817  0.92133  0.72842     C
C      0.72854  0.76934  0.27947     C
C      0.72884  0.95307  0.27684     C
H      0.72954  0.09817  0.14083     H
H      0.73181 -0.00552  0.20228     H
H      0.73578  0.74336  0.74346     H
C      0.73663  0.79463    0.728     C
N       0.7378  0.80719  0.84393     N
O      0.74389  0.93895  0.31033     O
C      0.74434  0.53275  0.00232     C
O      0.74476  0.79981  0.31257     O
C      0.74483  0.93189  0.68917     C
C      0.74722  0.20492  0.00078     C
C      0.75095  0.80221  0.68903     C
O      0.75226   0.0614  0.68795     O
C       0.7548  0.87083  0.66976     C
C      0.75979   0.0057   0.6704     C
O      0.75992  0.67806  0.68732     O
N      0.76428  0.82153  0.80859     N
H      0.76825  0.87787  0.63975     H
C       0.7688  0.74216  0.66956     C
C      0.77887  0.73697  0.22052     C
Cu     0.77936  0.16652  0.66948    Cu
Cu     0.78428  0.59766  0.67049    Cu
C       0.7845  0.04139  0.21823     C
O      0.78492  0.01833  0.63631     O
C      0.78762  0.75074  0.25958     C
C       0.7895  0.63143  0.06744     C
C      0.79016  0.03137  0.25748     C
N      0.79027  0.74248  0.10357     N
C      0.79126  0.10991  0.13348     C
O      0.79538  0.75629  0.63579     O
C      0.79728  0.15876  0.06714     C
N      0.80219  0.76994  0.13869     N
N      0.81147  0.68428  0.09991     N
O       0.8149  0.26346  0.64127     O
O      0.81592  0.53351  0.64257     O
C      0.82184  0.55739   0.0198     C
Cu     0.82396  0.11653  0.60861    Cu
C       0.8245  0.26155  0.01742     C
Cu     0.82719  0.69167  0.60861    Cu
N      0.82789  0.13494  0.09935     N
C      0.83187  0.72733  0.15816     C
N      0.83494  0.46344   0.4679     N
C      0.83858  0.67299  0.13367     C
C      0.83909  0.73008  0.19961     C
C      0.84195  0.54743  0.60868     C
H      0.84239  0.41102  0.63814     H
C      0.84352  0.60581   0.0529     C
C      0.84464  0.27768  0.60799     C
C      0.84875  0.23711   0.0505     C
C      0.85058  0.10829  0.19898     C
O      0.85152  0.61195  0.59111     O
C      0.85259  0.11431  0.15747     C
H      0.85336  0.62463  0.14049     H
C      0.85409  0.41774    0.608     C
O      0.85541  0.22344  0.59095     O
C      0.85786  0.48643  0.58882     C
C      0.85811    0.757  0.27782     C
O       0.8591  0.35919  0.96937     O
C      0.86103  0.09156  0.27729     C
C      0.86171  0.35584  0.58828     C
N      0.86288  0.47546  0.43281     N
O      0.86392  0.50138  0.97008     O
H      0.86665  0.08382  0.30734     H
H      0.86681  0.77067  0.30775     H
C      0.86944  0.49272   0.5496     C
H      0.86993    0.544  0.53427     H
C      0.87549  0.36465  0.54893     C
C      0.87637  0.34122  1.00158     C
C      0.87745  0.43209   0.5295     C
C      0.87857  0.53142  1.00321     C
H      0.87903  0.31656  0.53306     H
C      0.87973   0.4372  0.48795     C
O      0.88888   0.2049  0.68369     O
O      0.89456   0.6684  0.68357     O
H      0.90289  0.62561   0.0667     H
N       0.9065   0.1529  0.10233     N
C      0.90835   0.7345  0.21807     C
H      0.90855  0.27871  0.06355     H
C       0.9194   0.7499  0.25723     C
C      0.92062  0.16714  0.21916     C
Cu     0.92115  0.45955  0.94417    Cu
N      0.92322  0.14072  0.13736     N
N      0.92354  0.45764   0.4297     N
O      0.92516  0.15849  0.63427     O
C      0.92669  0.15952  0.25828     C
O      0.93051   0.7478   0.6324     O
C      0.93603  0.43281  0.46384     C
O      0.94021  0.39542  1.01968     O
O       0.9403  0.53795  1.02199     O
C      0.94287  0.19448  0.66625     C
C      0.94867  0.73065  0.66465     C
H      0.95597  0.73156  0.20154     H
H      0.97191  0.21795  0.20394     H
H      0.98639  0.42142  0.47114     H
O      0.99537  0.42609  0.92911     O
O      0.99837  0.56598  0.92808     O
Cu     1.01537  0.50548  1.00566    Cu
C      1.05988    0.436  0.94657     C
C      1.06212  0.62083  0.94587     C
O      1.07572  0.60656  0.97962     O
O      1.07659   0.4672  0.97954     O
