data_I
_chemical_name_common  '/home/zhangsd/repos/MofS-CGCNN/ML/data/SSD/clean_cifs/MOCKAR_clean'
_cell_length_a 15.04880
_cell_length_b 15.04880
_cell_length_c 15.04880
_cell_angle_alpha 77.28640
_cell_angle_beta  77.28640
_cell_angle_gamma 77.28640
_space_group_name_H-M_alt      'P 1'


loop_
_space_group_symop_operation_xyz
  'x, y, z' 

loop_
_atom_site_label
_atom_site_fract_x
_atom_site_fract_y
_atom_site_fract_z
_atom_site_type_symbol
C       0.0007   0.4763   0.4909     C
O       0.0022   0.8578   0.4793     O
O       0.0043   0.4858   0.8534     O
H       0.0077   0.6743   0.4815     H
C       0.0085   0.5649   0.5775     C
C       0.0104    0.656   0.5442     C
H       0.0121   0.4893   0.7026     H
Cu     0.01284   0.5805  0.01294    Cu
C       0.0129   0.5497   0.6708     C
Cu     0.01294  0.01284   0.5805    Cu
H       0.0147   0.4283   0.5393     H
C       0.0157   0.7254   0.5868     C
C        0.016   0.5676   0.8244     C
C       0.0178   0.8307   0.5607     C
C       0.0182   0.6129    0.722     C
C       0.0198   0.7027   0.6783     C
O       0.0225    0.877    0.618     O
H       0.0238   0.7472   0.7108     H
O       0.0241   0.6146   0.8776     O
O       0.1224   0.9759   0.3854     O
O        0.123    0.382   0.9775     O
O       0.1422   0.5207   0.9978     O
O       0.1466   0.9957   0.5142     O
C       0.1693   0.4393   0.9822     C
C       0.1756    0.984   0.4324     C
H       0.2528   0.2892   0.9762     H
C       0.2746   0.4132   0.9843     C
C        0.278   0.9818   0.3871     C
H       0.2892   0.9762   0.2528     H
C       0.2973   0.3217   0.9802     C
H       0.2974   0.9879   0.5107     H
C       0.3217   0.9802   0.2973     C
H       0.3257   0.5185   0.9923     H
C       0.3292   0.9871   0.4503     C
C        0.344   0.4558   0.9896     C
O        0.382   0.9775    0.123     O
O       0.3854   0.1224   0.9759     O
C       0.3871    0.278   0.9818     C
C       0.4132   0.9843   0.2746     C
Cu      0.4195  0.98706  0.98716    Cu
C       0.4225   0.9915   0.4351     C
H       0.4283   0.5393   0.0147     H
C       0.4324   0.1756    0.984     C
C       0.4351   0.4225   0.9915     C
C       0.4393   0.9822   0.1693     C
C       0.4503   0.3292   0.9871     C
C       0.4558   0.9896    0.344     C
H       0.4607   0.9853   0.5717     H
C       0.4763   0.4909   0.0007     C
O       0.4793   0.0022   0.8578     O
H       0.4815   0.0077   0.6743     H
O       0.4858   0.8534   0.0043     O
H       0.4893   0.7026   0.0121     H
C       0.4909   0.0007   0.4763     C
C       0.5091   0.9993   0.5237     C
H       0.5107   0.2974   0.9879     H
O       0.5142   0.1466   0.9957     O
H       0.5185   0.9923   0.3257     H
O       0.5207   0.9978   0.1422     O
C       0.5237   0.5091   0.9993     C
H       0.5393   0.0147   0.4283     H
C       0.5442   0.0104    0.656     C
C       0.5497   0.6708   0.0129     C
C       0.5607   0.0178   0.8307     C
C       0.5649   0.5775   0.0085     C
C       0.5676   0.8244    0.016     C
H       0.5717   0.4607   0.9853     H
C       0.5775   0.0085   0.5649     C
Cu      0.5805  0.01294  0.01284    Cu
C       0.5868   0.0157   0.7254     C
C       0.6129    0.722   0.0182     C
O       0.6146   0.8776   0.0241     O
O        0.618   0.0225    0.877     O
C        0.656   0.5442   0.0104     C
C       0.6708   0.0129   0.5497     C
H       0.6743   0.4815   0.0077     H
C       0.6783   0.0198   0.7027     C
H       0.7026   0.0121   0.4893     H
C       0.7027   0.6783   0.0198     C
H       0.7108   0.0238   0.7472     H
C        0.722   0.0182   0.6129     C
C       0.7254   0.5868   0.0157     C
H       0.7472   0.7108   0.0238     H
C       0.8244    0.016   0.5676     C
C       0.8307   0.5607   0.0178     C
O       0.8534   0.0043   0.4858     O
O       0.8578   0.4793   0.0022     O
O        0.877    0.618   0.0225     O
O       0.8776   0.0241   0.6146     O
O       0.9759   0.3854   0.1224     O
H       0.9762   0.2528   0.2892     H
O       0.9775    0.123    0.382     O
C       0.9802   0.2973   0.3217     C
C       0.9818   0.3871    0.278     C
C       0.9822   0.1693   0.4393     C
C        0.984   0.4324   0.1756     C
C       0.9843   0.2746   0.4132     C
H       0.9853   0.5717   0.4607     H
Cu     0.98706  0.98716   0.4195    Cu
C       0.9871   0.4503   0.3292     C
Cu     0.98716   0.4195  0.98706    Cu
H       0.9879   0.5107   0.2974     H
C       0.9896    0.344   0.4558     C
C       0.9915   0.4351   0.4225     C
H       0.9923   0.3257   0.5185     H
O       0.9957   0.5142   0.1466     O
O       0.9978   0.1422   0.5207     O
C       0.9993   0.5237   0.5091     C
