data_I
_chemical_name_common  '/home/zhangsd/repos/MofS-CGCNN/ML/data/SSD/clean_cifs/MODMIB_clean'
_cell_length_a 10.97000
_cell_length_b 23.74400
_cell_length_c 15.90600
_cell_angle_alpha 90.00000
_cell_angle_beta  90.00000
_cell_angle_gamma 90.00000
_space_group_name_H-M_alt      'P 1'


loop_
_space_group_symop_operation_xyz
  'x, y, z' 

loop_
_atom_site_label
_atom_site_fract_x
_atom_site_fract_y
_atom_site_fract_z
_atom_site_type_symbol
Cd         0.0   0.3818     0.25    Cd
Cd         0.0   0.3818     0.75    Cd
C          0.0   0.4766     0.25     C
C          0.0   0.4766     0.75     C
C          0.0   0.5234     0.25     C
C          0.0   0.5234     0.75     C
Cd         0.0   0.6182     0.25    Cd
Cd         0.0   0.6182     0.75    Cd
C       0.0114   0.1615      0.5     C
C       0.0114   0.8385      0.0     C
C       0.0305   0.0204      0.0     C
C       0.0305   0.9796      0.5     C
N       0.0871   0.1929      0.5     N
N       0.0871   0.8071      0.0     N
C       0.1017   0.3331   0.3481     C
C       0.1017   0.3331   0.6519     C
C       0.1017   0.6669   0.1519     C
C       0.1017   0.6669   0.8481     C
Cd      0.1398  0.09851      0.0    Cd
Cd      0.1398  0.90149      0.5    Cd
N       0.1559    0.307   0.3939     N
N       0.1559    0.307   0.6061     N
N       0.1559    0.693   0.1061     N
N       0.1559    0.693   0.8939     N
N       0.1844   0.3872   0.1673     N
N       0.1844   0.3872   0.8327     N
N       0.1844   0.6128   0.3327     N
N       0.1844   0.6128   0.6673     N
C       0.2491   0.3936   0.1148     C
C       0.2491   0.3936   0.8852     C
C       0.2491   0.6064   0.3852     C
C       0.2491   0.6064   0.6148     C
Cd        0.25     0.25      0.5    Cd
Cd        0.25     0.75      0.0    Cd
C       0.2509   0.1064   0.1148     C
C       0.2509   0.1064   0.8852     C
C       0.2509   0.8936   0.3852     C
C       0.2509   0.8936   0.6148     C
N       0.3156   0.1128   0.1673     N
N       0.3156   0.1128   0.8327     N
N       0.3156   0.8872   0.3327     N
N       0.3156   0.8872   0.6673     N
N       0.3441    0.193   0.3939     N
N       0.3441    0.193   0.6061     N
N       0.3441    0.807   0.1061     N
N       0.3441    0.807   0.8939     N
Cd      0.3602  0.40149      0.0    Cd
Cd      0.3602  0.59851      0.5    Cd
C       0.3983   0.1669   0.3481     C
C       0.3983   0.1669   0.6519     C
C       0.3983   0.8331   0.1519     C
C       0.3983   0.8331   0.8481     C
N       0.4129   0.3071      0.5     N
N       0.4129   0.6929      0.0     N
C       0.4695   0.4796      0.0     C
C       0.4695   0.5204      0.5     C
C       0.4886   0.3385      0.5     C
C       0.4886   0.6615      0.0     C
C          0.5   0.0234     0.25     C
C          0.5   0.0234     0.75     C
Cd         0.5   0.1182     0.25    Cd
Cd         0.5   0.1182     0.75    Cd
Cd         0.5   0.8818     0.25    Cd
Cd         0.5   0.8818     0.75    Cd
C          0.5   0.9766     0.25     C
C          0.5   0.9766     0.75     C
C       0.5114   0.3385      0.0     C
C       0.5114   0.6615      0.5     C
C       0.5305   0.4796      0.5     C
C       0.5305   0.5204      0.0     C
N       0.5871   0.3071      0.0     N
N       0.5871   0.6929      0.5     N
C       0.6017   0.1669   0.1519     C
C       0.6017   0.1669   0.8481     C
C       0.6017   0.8331   0.3481     C
C       0.6017   0.8331   0.6519     C
Cd      0.6398  0.40149      0.5    Cd
Cd      0.6398  0.59851      0.0    Cd
N       0.6559    0.193   0.1061     N
N       0.6559    0.193   0.8939     N
N       0.6559    0.807   0.3939     N
N       0.6559    0.807   0.6061     N
N       0.6844   0.1128   0.3327     N
N       0.6844   0.1128   0.6673     N
N       0.6844   0.8872   0.1673     N
N       0.6844   0.8872   0.8327     N
C       0.7491   0.1064   0.3852     C
C       0.7491   0.1064   0.6148     C
C       0.7491   0.8936   0.1148     C
C       0.7491   0.8936   0.8852     C
Cd        0.75     0.25      0.0    Cd
Cd        0.75     0.75      0.5    Cd
C       0.7509   0.3936   0.3852     C
C       0.7509   0.3936   0.6148     C
C       0.7509   0.6064   0.1148     C
C       0.7509   0.6064   0.8852     C
N       0.8156   0.3872   0.3327     N
N       0.8156   0.3872   0.6673     N
N       0.8156   0.6128   0.1673     N
N       0.8156   0.6128   0.8327     N
N       0.8441    0.307   0.1061     N
N       0.8441    0.307   0.8939     N
N       0.8441    0.693   0.3939     N
N       0.8441    0.693   0.6061     N
Cd      0.8602  0.09851      0.5    Cd
Cd      0.8602  0.90149      0.0    Cd
C       0.8983   0.3331   0.1519     C
C       0.8983   0.3331   0.8481     C
C       0.8983   0.6669   0.3481     C
C       0.8983   0.6669   0.6519     C
N       0.9129   0.1929      0.0     N
N       0.9129   0.8071      0.5     N
C       0.9695   0.0204      0.5     C
C       0.9695   0.9796      0.0     C
C       0.9886   0.1615      0.0     C
C       0.9886   0.8385      0.5     C
