data_I
_chemical_name_common  '/home/zhangsd/repos/MofS-CGCNN/ML/data/SSD/clean_cifs/MOFKUO_clean'
_cell_length_a 14.64900
_cell_length_b 15.07940
_cell_length_c 29.96000
_cell_angle_alpha 87.27890
_cell_angle_beta  84.39110
_cell_angle_gamma 60.93970
_space_group_name_H-M_alt      'P 1'


loop_
_space_group_symop_operation_xyz
  'x, y, z' 

loop_
_atom_site_label
_atom_site_fract_x
_atom_site_fract_y
_atom_site_fract_z
_atom_site_type_symbol
Cu         0.0      0.5      0.5    Cu
H       0.0029   0.0424   0.9473     H
N       0.0083   0.8234   0.2154     N
N       0.0131   0.1056   0.5908     N
C       0.0189   0.9092   0.0772     C
H       0.0197   0.0796    0.657     H
N       0.0266    0.735   0.2365     N
H        0.028   0.2552   0.8863     H
C       0.0282   0.8074   0.0621     C
C       0.0311   0.6066   0.4143     C
H       0.0315   0.3824    0.596     H
H        0.034   0.1786   0.9523     H
H       0.0343    0.063   0.8978     H
H       0.0353   0.2708   0.4979     H
C       0.0394   0.2468   0.7282     C
C       0.0405    0.736   0.1028     C
H       0.0407   0.2968   0.7092     H
H       0.0453   0.9576   0.4473     H
C       0.0474   0.0968   0.6309     C
N       0.0649     0.56   0.4549     N
H       0.0674   0.7554   0.1267     H
N       0.0699    0.135   0.5598     N
C       0.0718   0.1086   0.7583     C
C       0.0719   0.9092   0.4228     C
H       0.0721    0.605   0.2012     H
C       0.0775   0.2798   0.4749     C
N       0.0823   0.3656   0.4679     N
H       0.0884   0.7742   0.0404     H
H       0.0902   0.6042   0.0663     H
N       0.0949   0.6342   0.3915     N
H       0.0958   0.1036   0.4533     H
H       0.0973    0.937   0.3978     H
H       0.0993   0.9204    0.157     H
N       0.1031     0.15   0.7229     N
H       0.1033   0.0392   0.7636     H
C       0.1067   0.6338   0.2167     C
H       0.1138   0.5816   0.1168     H
C       0.1144   0.6234   0.0913     C
N       0.1187   0.8944   0.0908     N
H       0.1263   0.5896   0.2813     H
N        0.128   0.1158   0.6283     N
H       0.1374   0.7742   0.4596     H
C       0.1378   0.1382   0.5841     C
N       0.1409   0.2084    0.445     N
H       0.1425   0.9608   0.2636     H
C       0.1442   0.9032   0.1309     C
C       0.1536   0.5636   0.4565     C
H       0.1554   0.6428   0.1952     H
C       0.1567   0.3394   0.4316     C
C       0.1579   0.1064   0.4406     C
C       0.1634   0.5652   0.2521     C
C       0.1644   0.8074   0.4379     C
H       0.1679   0.0896    0.409     H
N       0.1683   0.8234   0.2846     N
N       0.1734   0.6062   0.4204     N
H       0.1736   0.4976   0.2475     H
H       0.1772   0.7554   0.3733     H
H        0.179   0.3836   0.4186     H
C       0.1804   0.8914   0.2583     C
H       0.1888   0.1546   0.5721     H
N       0.1939   0.2436   0.4169     N
H       0.1961    0.539   0.4802     H
H       0.1994   0.8964   0.9533     H
H       0.2018   0.6428   0.3048     H
N       0.2049    0.865   0.0598     N
H       0.2126   0.8214   0.4523     H
N       0.2204   0.6062   0.0796     N
H       0.2225    0.039   0.9573     H
C       0.2235    0.736   0.3972     C
Cu     0.22506  0.08238  0.67779    Cu
H       0.2358    0.038   0.4958     H
N       0.2384    0.735   0.2635     N
N       0.2438   0.8842   0.1283     N
C       0.2524   0.0274   0.4637     C
N       0.2531     0.85   0.2229     N
H       0.2575   0.9104    0.909     H
C       0.2595   0.6338   0.2833     C
H       0.2615    0.961   0.4573     H
C       0.2622   0.6234   0.4087     C
C       0.2643   0.8936   0.9406     C
H       0.2649    0.539   0.0198     H
H       0.2697   0.1262   0.2171     H
H       0.2701    0.095   0.1066     H
N       0.2709   0.6342   0.1085     N
C       0.2714   0.5652   0.2479     C
H       0.2738    0.962   0.9958     H
H       0.2752    0.265   0.2418     H
H       0.2755   0.1998    0.315     H
C        0.276   0.8618   0.0841     C
C       0.2798   0.9726   0.9637     C
C       0.2828   0.5636   0.0435     C
H       0.2832   0.7448   0.3863     H
H       0.2841   0.5896   0.2187     H
C       0.2862   0.7532   0.2282     C
H       0.2868   0.3228   0.2807     H
H        0.302   0.1414   0.7648     H
H       0.3046   0.5816   0.3832     H
H       0.3056   0.6042   0.4337     H
H       0.3061   0.7292   0.9979     H
Cu     0.30744  0.91762  0.17779    Cu
C        0.314    0.073   0.2347     C
N       0.3219    0.026   0.7284     N
C       0.3226   0.2608   0.2633     C
H       0.3229    0.605   0.2988     H
H       0.3288   0.4976   0.2525     H
H        0.335   0.0702   0.3872     H
C       0.3372   0.1772   0.2939     C
H       0.3375   0.7032   0.2092     H
C       0.3382   0.0712   0.7611     C
C       0.3406   0.0584   0.1116     C
H       0.3434   0.8454   0.0721     H
H       0.3449   0.0484   0.8923     H
N       0.3479    0.974   0.2284     N
N       0.3493   0.7916    0.945     N
N       0.3508   0.0288   0.6345     N
H       0.3527   0.0868   0.4622     H
N       0.3564   0.0808   0.2715     N
C       0.3572   0.0246   0.4518     C
C       0.3573   0.7202   0.9749     C
C       0.3623   0.6066   0.0857     C
H       0.3651    0.905   0.6066     H
N       0.3751     0.56   0.0451     N
H       0.3792   0.0316   0.9673     H
N       0.3796   0.9712   0.1345     N
C       0.3818   0.9754   0.9518     C
C        0.387    0.927   0.7347     C
C       0.3882   0.0138   0.4028     C
H       0.3904   0.3228   0.2193     H
H       0.3933   0.9516   0.3923     H
H       0.3959   0.8738   0.7171     H
H       0.3963   0.1612   0.3111     H
C        0.399   0.9416   0.6116     C
C        0.402   0.9862   0.9028     C
H       0.4052   0.9298   0.8872     H
N       0.4066   0.0886    0.097     N
C       0.4094   0.9288   0.2611     C
N       0.4096     0.01   0.7884     N
H       0.4108   0.9684   0.4673     H
H       0.4139   0.6176    0.096     H
H       0.4153   0.1214   0.6411     H
C       0.4166   0.2608   0.2367     C
N       0.4196     0.99   0.2884     N
C       0.4233    0.061   0.6303     C
N       0.4372   0.9192   0.7715     N
H       0.4374   0.3836   0.0814     H
N       0.4375   0.7564   0.9169     N
H       0.4395   0.9132   0.9622     H
H       0.4425   0.1612   0.1889     H
H       0.4434   0.8586   0.2648     H
N       0.4479   0.6344   0.9679     N
H       0.4598    0.265   0.2582     H
H       0.4633   0.1214   0.8589     H
H       0.4753   0.8002    0.815     H
C       0.4843    0.939   0.1303     C
C       0.4856   0.1772   0.2061     C
N       0.4908   0.0116   0.3927     N
N       0.4952   0.9114    0.597     N
C       0.4961   0.6606   0.9316     C
N       0.4976   0.0116   0.1073     N
Cu         0.5      0.5      0.0    Cu
N       0.5024   0.9884   0.8927     N
C       0.5039   0.3394   0.0684     C
N       0.5048   0.0886    0.403     N
N       0.5092   0.9884   0.6073     N
C       0.5144   0.8228   0.7939     C
C       0.5157    0.061   0.8697     C
H       0.5247   0.1998    0.185     H
H       0.5367   0.8786   0.1411     H
H       0.5402    0.735   0.7418     H
N       0.5521   0.3656   0.0321     N
H       0.5566   0.1414   0.7352     H
H       0.5575   0.8388   0.8111     H
H       0.5605   0.0868   0.0378     H
N       0.5625   0.2436   0.0831     N
H       0.5626   0.6164   0.9186     H
N       0.5628   0.0808   0.2285     N
C       0.5767    0.939   0.3697     C
N       0.5804     0.01   0.7116     N
C       0.5834   0.7392   0.7633     C
H       0.5847   0.8786   0.3589     H
H       0.5861   0.3824    0.904     H
H       0.5892   0.0316   0.5327     H
N       0.5904     0.99   0.2116     N
C       0.5906   0.0712   0.7389     C
N       0.5934   0.9114    0.903     N
H       0.5948   0.0702   0.1128     H
C        0.598   0.0138   0.0972     C
C        0.601   0.0584   0.3884     C
H       0.6037   0.8388   0.6889     H
H       0.6041   0.1262   0.2829     H
H       0.6067   0.0484   0.6077     H
H       0.6096   0.6772   0.7807     H
C       0.6118   0.9862   0.5972     C
C        0.613    0.073   0.2653     C
C       0.6182   0.0246   0.0482     C
N       0.6204   0.0288   0.8655     N
H       0.6208   0.9684   0.0327     H
N       0.6249     0.44   0.9549     N
H       0.6349    0.095   0.3934     H
C       0.6377   0.3934   0.9143     C
C       0.6427   0.2798   0.0251     C
C       0.6428   0.9754   0.5482     C
N       0.6436   0.9192   0.7285     N
H       0.6473   0.9132   0.5378     H
N       0.6492   0.9712   0.3655     N
N       0.6507   0.2084    0.055     N
N       0.6521    0.026   0.7716     N
H       0.6551   0.9516   0.1077     H
H       0.6566   0.1546   0.9279     H
C       0.6594   0.9416   0.8884     C
C       0.6618   0.9288   0.2389     C
H       0.6625   0.2968   0.7908     H
C       0.6628   0.8228   0.7061     C
H        0.665   0.9298   0.6128     H
H       0.6712   0.5024   0.7475     H
H       0.6771    0.395   0.7012     H
C       0.6774   0.7392   0.7367     C
N       0.6781    0.974   0.2716     N
C        0.686    0.927   0.7653     C
Cu     0.69256  0.08238  0.82221    Cu
H       0.6939   0.2708   0.0021     H
H       0.6944   0.3958   0.5663     H
H       0.6954   0.4184   0.6168     H
H        0.698   0.8586   0.2352     H
H       0.7132   0.6772   0.7193     H
C       0.7138   0.2468   0.7718     C
H       0.7159   0.4104   0.7813     H
H       0.7168   0.2552   0.6137     H
C       0.7172   0.4364   0.9565     C
C       0.7202   0.0274   0.0363     C
C        0.724   0.1382   0.9159     C
H       0.7245   0.8002    0.685     H
H       0.7248    0.735   0.7582     H
H       0.7262    0.038   0.0042     H
C       0.7286   0.4348   0.7521     C
N       0.7291   0.3658   0.8915     N
H       0.7299    0.905   0.8934     H
H       0.7303   0.8738   0.7829     H
H       0.7351    0.461   0.9802     H
C       0.7357   0.1064   0.0594     C
C       0.7378   0.3766   0.5913     C
H       0.7385    0.039   0.5427     H
C       0.7405   0.3662   0.7167     C
H       0.7425   0.0896    0.091     H
N       0.7469     0.15   0.7771     N
C       0.7476   0.9726   0.5363     C
N       0.7562   0.1158   0.8717     N
N       0.7616    0.265   0.7365     N
H       0.7642    0.962   0.5042     H
Cu     0.77494  0.91762  0.32221    Cu
C       0.7765    0.264   0.6028     C
H       0.7775    0.961   0.0427     H
N       0.7796   0.3938   0.9204     N
H       0.7874   0.1786   0.5477     H
N       0.7951    0.135   0.9402     N
H       0.7982   0.3572   0.6952     H
H       0.8006   0.1036   0.0467     H
H       0.8039    0.461   0.5198     H
N       0.8061   0.7564   0.5831     N
H       0.8112   0.8454   0.4279     H
C       0.8196   0.1086   0.7417     C
H        0.821   0.6164   0.5814     H
H       0.8228   0.2446   0.6267     H
H       0.8264   0.5024   0.7525     H
N       0.8266   0.3938   0.5796     N
N       0.8317   0.1766   0.7154     N
H       0.8321   0.9104    0.591     H
C       0.8356   0.1926   0.5621     C
C       0.8366   0.4348   0.7479     C
C       0.8421   0.8936   0.5594     C
C       0.8433   0.6606   0.5684     C
H       0.8446   0.3572   0.8048     H
C       0.8464   0.4364   0.5435     C
C       0.8558   0.0968   0.8691     C
H       0.8575   0.0392   0.7364     H
N       0.8591   0.7916    0.555     N
C       0.8622   0.8618   0.4159     C
H       0.8626   0.2258   0.5404     H
N        0.872   0.8842   0.3717     N
H       0.8737   0.4104   0.7187     H
N       0.8813   0.1056   0.9092     N
C       0.8856   0.3766   0.9087     C
H       0.8862   0.4184   0.8832     H
C       0.8933   0.3662   0.7833     C
H       0.8967   0.9608   0.2364     H
N       0.8969     0.85   0.2771     N
H       0.9007   0.0796    0.843     H
H       0.9027    0.063   0.6022     H
H       0.9042   0.8964   0.5467     H
N       0.9051   0.3658   0.6085     N
H       0.9098   0.3958   0.9337     H
H       0.9116   0.2258   0.9596     H
N       0.9177   0.6344   0.5321     N
C       0.9225   0.7202   0.5251     C
H       0.9279    0.395   0.7988     H
C       0.9281   0.0908   0.5772     C
C       0.9282   0.8914   0.2417     C
N       0.9301    0.865   0.4402     N
H       0.9326   0.2446   0.8733     H
N       0.9351     0.44   0.5451     N
C       0.9526   0.9032   0.3691     C
H       0.9547   0.0424   0.5527     H
H       0.9593   0.7032   0.2908     H
C       0.9595    0.264   0.8972     C
C       0.9606   0.7532   0.2718     C
H       0.9647   0.7292   0.5021     H
H       0.9657    0.937   0.1022     H
H        0.966   0.8214   0.0477     H
H       0.9685   0.6176    0.404     H
C       0.9689   0.3934   0.5857     C
C       0.9718   0.1926   0.9379     C
H        0.972   0.7448   0.1137     H
N       0.9734    0.265   0.7635     N
H       0.9803   0.9204    0.343     H
C       0.9811   0.0908   0.9228     C
N       0.9869   0.8944   0.4092     N
N       0.9917   0.1766   0.7846     N
H       0.9971   0.9576   0.0527     H
