data_I
_chemical_name_common  '/home/zhangsd/repos/MofS-CGCNN/ML/data/SSD/clean_cifs/MONWET_clean'
_cell_length_a 22.87000
_cell_length_b 34.64700
_cell_length_c  9.53500
_cell_angle_alpha 90.00000
_cell_angle_beta  90.00000
_cell_angle_gamma 90.00000
_space_group_name_H-M_alt      'P 1'


loop_
_space_group_symop_operation_xyz
  'x, y, z' 

loop_
_atom_site_label
_atom_site_fract_x
_atom_site_fract_y
_atom_site_fract_z
_atom_site_type_symbol
N      0.00275  0.43606   0.7031     N
N      0.00275  0.93606   0.2031     N
N      0.00591  0.08803   0.8452     N
N      0.00591  0.58803   0.3452     N
N      0.00978  0.08443   0.9904     N
N      0.00978  0.58443   0.4904     N
N      0.01594  0.07759   0.6221     N
N      0.01594  0.57759   0.1221     N
C      0.01614  0.44273   0.5731     C
C      0.01614  0.94273   0.0731     C
N      0.01686  0.38912   0.1432     N
N      0.01686  0.88912   0.6432     N
C      0.02256  0.38338   0.2769     C
C      0.02256  0.88338   0.7769     C
C      0.02891  0.06473   0.7464     C
C      0.02891  0.56473   0.2464     C
N      0.03247  0.09694   0.2036     N
N      0.03247  0.59694   0.7036     N
H       0.0397   0.4628   0.5414     H
H       0.0397   0.9628   0.0414     H
C       0.0398  0.10772   0.0765     C
C       0.0398  0.60772   0.5765     C
H       0.0415   0.2148   0.5004     H
H       0.0415   0.7148   0.0004     H
H       0.0427   0.3631   0.3186     H
H       0.0427   0.8631   0.8186     H
H       0.0435   0.2625   0.8675     H
H       0.0435   0.7625   0.3675     H
H       0.0508   0.0427   0.7645     H
H       0.0508   0.5427   0.2645     H
Ag     0.05873  0.35889  0.96205    Ag
Ag     0.05873  0.85889  0.46205    Ag
H       0.0625   0.1286   0.0481     H
H       0.0625   0.6286   0.5481     H
C       0.0653  0.27653   0.8027     C
C       0.0653  0.77653   0.3027     C
C      0.07092  0.20418   0.5553     C
C      0.07092  0.70418   0.0553     C
N       0.0721  0.31373   0.8021     N
N       0.0721  0.81373   0.3021     N
Ag     0.07282   0.1248  0.38884    Ag
Ag     0.07282   0.6248  0.88884    Ag
H       0.0845   0.4523   0.0329     H
H       0.0845   0.9523   0.5329     H
N       0.0894  0.16916   0.5471     N
N       0.0894  0.66916   0.0471     N
N      0.09546  0.26152   0.6923     N
N      0.09546  0.76152   0.1923     N
N      0.10111  0.22307   0.6564     N
N      0.10111  0.72307   0.1564     N
N      0.10689   0.3233   0.6872     N
N      0.10689   0.8233   0.1872     N
H       0.1071   0.0395   0.2942     H
H       0.1071   0.5395   0.7942     H
C      0.11082  0.44721   0.9609     C
C      0.11082  0.94721   0.4609     C
N      0.11653  0.41461   0.8981     N
N      0.11653  0.91461   0.3981     N
C      0.11996  0.29147   0.6244     C
C      0.11996  0.79147   0.1244     C
C      0.13004  0.04147   0.3744     C
C      0.13004  0.54147   0.8744     C
N      0.13347  0.16461   0.6481     N
N      0.13347  0.66461   0.1481     N
C      0.13918  0.19721   0.7109     C
C      0.13918  0.69721   0.2109     C
H       0.1429   0.2895   0.5442     H
H       0.1429   0.7895   0.0442     H
N      0.14311   0.0733   0.4372     N
N      0.14311   0.5733   0.9372     N
N      0.14889  0.47307   0.9064     N
N      0.14889  0.97307   0.4064     N
N      0.15454  0.01152   0.4423     N
N      0.15454  0.51152   0.9423     N
N       0.1606  0.41916   0.7971     N
N       0.1606  0.91916   0.2971     N
H       0.1655   0.2023   0.7829     H
H       0.1655   0.7023   0.2829     H
Ag     0.17718   0.3748  0.63884    Ag
Ag     0.17718   0.8748  0.13884    Ag
N       0.1779  0.06373   0.5521     N
N       0.1779  0.56373   0.0521     N
C      0.17908  0.45418   0.8053     C
C      0.17908  0.95418   0.3053     C
C       0.1847  0.02653   0.5527     C
C       0.1847  0.52653   0.0527     C
H       0.1875   0.3786   0.2981     H
H       0.1875   0.8786   0.7981     H
Ag     0.19127  0.10889  0.71205    Ag
Ag     0.19127   0.6089  0.21205    Ag
H       0.1992   0.2927   0.0145     H
H       0.1992   0.7927   0.5145     H
H       0.2065   0.0125   0.6175     H
H       0.2065   0.5125   0.1175     H
H       0.2073   0.1131   0.0686     H
H       0.2073   0.6131   0.5686     H
H       0.2085   0.4648   0.7504     H
H       0.2085   0.9648   0.2504     H
C       0.2102  0.35772   0.3265     C
C       0.2102  0.85772   0.8265     C
H       0.2103   0.2128   0.2914     H
H       0.2103   0.7128   0.7914     H
N      0.21753  0.34694   0.4536     N
N      0.21753  0.84694   0.9536     N
C      0.22109  0.31473   0.9964     C
C      0.22109  0.81473   0.4964     C
C      0.22744  0.13338   0.0269     C
C      0.22744  0.63338   0.5269     C
N      0.23314  0.13912   0.8932     N
N      0.23314  0.63912   0.3932     N
C      0.23386  0.19273   0.3231     C
C      0.23386  0.69273   0.8231     C
N      0.23406  0.32759   0.8721     N
N      0.23406  0.82759   0.3721     N
N      0.24022  0.33443   0.2404     N
N      0.24022  0.83443   0.7404     N
N      0.24409  0.33803   0.0952     N
N      0.24409  0.83803   0.5952     N
N      0.24725  0.18606   0.4531     N
N      0.24725  0.68606   0.9531     N
N      0.25275  0.31394   0.4531     N
N      0.25275  0.81394   0.9531     N
N      0.25591  0.16197   0.0952     N
N      0.25591  0.66197   0.5952     N
N      0.25978  0.16557   0.2404     N
N      0.25978  0.66557   0.7404     N
N      0.26594  0.17241   0.8721     N
N      0.26594  0.67241   0.3721     N
C      0.26614  0.30727   0.3231     C
C      0.26614  0.80727   0.8231     C
N      0.26686  0.36088   0.8932     N
N      0.26686  0.86088   0.3932     N
C      0.27256  0.36662   0.0269     C
C      0.27256  0.86662   0.5269     C
C      0.27891  0.18527   0.9964     C
C      0.27891  0.68527   0.4964     C
N      0.28247  0.15306   0.4536     N
N      0.28247  0.65306   0.9536     N
H       0.2897   0.2872   0.2914     H
H       0.2897   0.7872   0.7914     H
C       0.2898  0.14228   0.3265     C
C       0.2898  0.64228   0.8265     C
H       0.2915   0.0352   0.7504     H
H       0.2915   0.5352   0.2504     H
H       0.2927   0.3869   0.0686     H
H       0.2927   0.8869   0.5686     H
H       0.2935   0.4875   0.6175     H
H       0.2935   0.9875   0.1175     H
H       0.3008   0.2073   0.0145     H
H       0.3008   0.7073   0.5145     H
Ag     0.30873  0.39111  0.71205    Ag
Ag     0.30873  0.89111  0.21205    Ag
H       0.3125   0.1214   0.2981     H
H       0.3125   0.6214   0.7981     H
C       0.3153  0.47347   0.5527     C
C       0.3153  0.97347   0.0527     C
C      0.32092  0.04582   0.8053     C
C      0.32092  0.54582   0.3053     C
N       0.3221  0.43627   0.5521     N
N       0.3221  0.93627   0.0521     N
Ag     0.32282   0.1252  0.63884    Ag
Ag     0.32282   0.6252  0.13884    Ag
H       0.3345   0.2977   0.7829     H
H       0.3345   0.7977   0.2829     H
N       0.3394  0.08084   0.7971     N
N       0.3394  0.58084   0.2971     N
N      0.34546  0.48848   0.4423     N
N      0.34546  0.98848   0.9423     N
N      0.35111  0.02693   0.9064     N
N      0.35111  0.52693   0.4064     N
N      0.35689   0.4267   0.4372     N
N      0.35689   0.9267   0.9372     N
H       0.3571   0.2105   0.5442     H
H       0.3571   0.7105   0.0442     H
C      0.36082  0.30279   0.7109     C
C      0.36082  0.80279   0.2109     C
N      0.36653  0.33539   0.6481     N
N      0.36653  0.83539   0.1481     N
C      0.36996  0.45853   0.3744     C
C      0.36996  0.95853   0.8744     C
C      0.38004  0.20853   0.6244     C
C      0.38004  0.70853   0.1244     C
N      0.38347  0.08539   0.8981     N
N      0.38347  0.58539   0.3981     N
C      0.38918  0.05279   0.9609     C
C      0.38918  0.55279   0.4609     C
H       0.3929   0.4605   0.2942     H
H       0.3929   0.9605   0.7942     H
N      0.39311   0.1767   0.6872     N
N      0.39311   0.6767   0.1872     N
N      0.39889  0.27693   0.6564     N
N      0.39889  0.77693   0.1564     N
N      0.40454  0.23848   0.6923     N
N      0.40454  0.73848   0.1923     N
N       0.4106  0.33084   0.5471     N
N       0.4106  0.83084   0.0471     N
H       0.4155   0.0477   0.0329     H
H       0.4155   0.5477   0.5329     H
Ag     0.42718   0.3752  0.38884    Ag
Ag     0.42718   0.8752  0.88884    Ag
N       0.4279  0.18627   0.8021     N
N       0.4279  0.68627   0.3021     N
C      0.42908  0.29582   0.5553     C
C      0.42908  0.79582   0.0553     C
C       0.4347  0.22347   0.8027     C
C       0.4347  0.72347   0.3027     C
H       0.4375   0.3714   0.0481     H
H       0.4375   0.8714   0.5481     H
Ag     0.44127  0.14111  0.96205    Ag
Ag     0.44127  0.64111  0.46205    Ag
H       0.4492   0.4573   0.7645     H
H       0.4492   0.9573   0.2645     H
H       0.4565   0.2375   0.8675     H
H       0.4565   0.7375   0.3675     H
H       0.4573   0.1369   0.3186     H
H       0.4573   0.6369   0.8186     H
H       0.4585   0.2852   0.5004     H
H       0.4585   0.7852   0.0004     H
C       0.4602  0.39228   0.0765     C
C       0.4602  0.89228   0.5765     C
H       0.4603   0.0372   0.5414     H
H       0.4603   0.5372   0.0414     H
N      0.46753  0.40306   0.2036     N
N      0.46753  0.90306   0.7036     N
C      0.47109  0.43527   0.7464     C
C      0.47109  0.93527   0.2464     C
C      0.47744  0.11662   0.2769     C
C      0.47744  0.61662   0.7769     C
N      0.48314  0.11088   0.1432     N
N      0.48314  0.61088   0.6432     N
C      0.48386  0.05727   0.5731     C
C      0.48386  0.55727   0.0731     C
N      0.48406  0.42241   0.6221     N
N      0.48406  0.92241   0.1221     N
N      0.49022  0.41557   0.9904     N
N      0.49022  0.91557   0.4904     N
N      0.49409  0.41197   0.8452     N
N      0.49409  0.91197   0.3452     N
N      0.49725  0.06394   0.7031     N
N      0.49725  0.56394   0.2031     N
N      0.50275  0.43606   0.2031     N
N      0.50275  0.93606   0.7031     N
N      0.50591  0.08803   0.3452     N
N      0.50591  0.58803   0.8452     N
N      0.50978  0.08443   0.4904     N
N      0.50978  0.58443   0.9904     N
N      0.51594  0.07759   0.1221     N
N      0.51594  0.57759   0.6221     N
C      0.51614  0.44273   0.0731     C
C      0.51614  0.94273   0.5731     C
N      0.51686  0.38912   0.6432     N
N      0.51686  0.88912   0.1432     N
C      0.52256  0.38338   0.7769     C
C      0.52256  0.88338   0.2769     C
C      0.52891  0.06473   0.2464     C
C      0.52891  0.56473   0.7464     C
N      0.53247  0.09694   0.7036     N
N      0.53247  0.59694   0.2036     N
H       0.5397   0.4628   0.0414     H
H       0.5397   0.9628   0.5414     H
C       0.5398  0.10772   0.5765     C
C       0.5398  0.60772   0.0765     C
H       0.5415   0.2148   0.0004     H
H       0.5415   0.7148   0.5004     H
H       0.5427   0.3631   0.8186     H
H       0.5427   0.8631   0.3186     H
H       0.5435   0.2625   0.3675     H
H       0.5435   0.7625   0.8675     H
H       0.5508   0.0427   0.2645     H
H       0.5508   0.5427   0.7645     H
Ag     0.55873  0.35889  0.46205    Ag
Ag     0.55873  0.85889  0.96205    Ag
H       0.5625   0.1286   0.5481     H
H       0.5625   0.6286   0.0481     H
C       0.5653  0.27653   0.3027     C
C       0.5653  0.77653   0.8027     C
C      0.57092  0.20418   0.0553     C
C      0.57092  0.70418   0.5553     C
N       0.5721  0.31373   0.3021     N
N       0.5721  0.81373   0.8021     N
Ag     0.57282   0.1248  0.88884    Ag
Ag     0.57282   0.6248  0.38884    Ag
H       0.5845   0.4523   0.5329     H
H       0.5845   0.9523   0.0329     H
N       0.5894  0.16916   0.0471     N
N       0.5894  0.66916   0.5471     N
N      0.59546  0.26152   0.1923     N
N      0.59546  0.76152   0.6923     N
N      0.60111  0.22307   0.1564     N
N      0.60111  0.72307   0.6564     N
N      0.60689   0.3233   0.1872     N
N      0.60689   0.8233   0.6872     N
H       0.6071   0.0395   0.7942     H
H       0.6071   0.5395   0.2942     H
C      0.61082  0.44721   0.4609     C
C      0.61082  0.94721   0.9609     C
N      0.61653  0.41461   0.3981     N
N      0.61653  0.91461   0.8981     N
C      0.61996  0.29147   0.1244     C
C      0.61996  0.79147   0.6244     C
C      0.63004  0.04147   0.8744     C
C      0.63004  0.54147   0.3744     C
N      0.63347  0.16461   0.1481     N
N      0.63347  0.66461   0.6481     N
C      0.63918  0.19721   0.2109     C
C      0.63918  0.69721   0.7109     C
H       0.6429   0.2895   0.0442     H
H       0.6429   0.7895   0.5442     H
N      0.64311   0.0733   0.9372     N
N      0.64311   0.5733   0.4372     N
N      0.64889  0.47307   0.4064     N
N      0.64889  0.97307   0.9064     N
N      0.65454  0.01152   0.9423     N
N      0.65454  0.51152   0.4423     N
N       0.6606  0.41916   0.2971     N
N       0.6606  0.91916   0.7971     N
H       0.6655   0.2023   0.2829     H
H       0.6655   0.7023   0.7829     H
Ag     0.67718   0.3748  0.13884    Ag
Ag     0.67718   0.8748  0.63884    Ag
N       0.6779  0.06373   0.0521     N
N       0.6779  0.56373   0.5521     N
C      0.67908  0.45418   0.3053     C
C      0.67908  0.95418   0.8053     C
C       0.6847  0.02653   0.0527     C
C       0.6847  0.52653   0.5527     C
H       0.6875   0.3786   0.7981     H
H       0.6875   0.8786   0.2981     H
Ag     0.69127  0.10889  0.21205    Ag
Ag     0.69127   0.6089  0.71205    Ag
H       0.6992   0.2927   0.5145     H
H       0.6992   0.7927   0.0145     H
H       0.7065   0.0125   0.1175     H
H       0.7065   0.5125   0.6175     H
H       0.7073   0.1131   0.5686     H
H       0.7073   0.6131   0.0686     H
H       0.7085   0.4648   0.2504     H
H       0.7085   0.9648   0.7504     H
C       0.7102  0.35772   0.8265     C
C       0.7102  0.85772   0.3265     C
H       0.7103   0.2128   0.7914     H
H       0.7103   0.7128   0.2914     H
N      0.71753  0.34694   0.9536     N
N      0.71753  0.84694   0.4536     N
C      0.72109  0.31473   0.4964     C
C      0.72109  0.81473   0.9964     C
C      0.72744  0.13338   0.5269     C
C      0.72744  0.63338   0.0269     C
N      0.73314  0.13912   0.3932     N
N      0.73314  0.63912   0.8932     N
C      0.73386  0.19273   0.8231     C
C      0.73386  0.69273   0.3231     C
N      0.73406  0.32759   0.3721     N
N      0.73406  0.82759   0.8721     N
N      0.74022  0.33443   0.7404     N
N      0.74022  0.83443   0.2404     N
N      0.74409  0.33803   0.5952     N
N      0.74409  0.83803   0.0952     N
N      0.74725  0.18606   0.9531     N
N      0.74725  0.68606   0.4531     N
N      0.75275  0.31394   0.9531     N
N      0.75275  0.81394   0.4531     N
N      0.75591  0.16197   0.5952     N
N      0.75591  0.66197   0.0952     N
N      0.75978  0.16557   0.7404     N
N      0.75978  0.66557   0.2404     N
N      0.76594  0.17241   0.3721     N
N      0.76594  0.67241   0.8721     N
C      0.76614  0.30727   0.8231     C
C      0.76614  0.80727   0.3231     C
N      0.76686  0.36088   0.3932     N
N      0.76686  0.86088   0.8932     N
C      0.77256  0.36662   0.5269     C
C      0.77256  0.86662   0.0269     C
C      0.77891  0.18527   0.4964     C
C      0.77891  0.68527   0.9964     C
N      0.78247  0.15306   0.9536     N
N      0.78247  0.65306   0.4536     N
H       0.7897   0.2872   0.7914     H
H       0.7897   0.7872   0.2914     H
C       0.7898  0.14228   0.8265     C
C       0.7898  0.64228   0.3265     C
H       0.7915   0.0352   0.2504     H
H       0.7915   0.5352   0.7504     H
H       0.7927   0.3869   0.5686     H
H       0.7927   0.8869   0.0686     H
H       0.7935   0.4875   0.1175     H
H       0.7935   0.9875   0.6175     H
H       0.8008   0.2073   0.5145     H
H       0.8008   0.7073   0.0145     H
Ag     0.80873  0.39111  0.21205    Ag
Ag     0.80873  0.89111  0.71205    Ag
H       0.8125   0.1214   0.7981     H
H       0.8125   0.6214   0.2981     H
C       0.8153  0.47347   0.0527     C
C       0.8153  0.97347   0.5527     C
C      0.82092  0.04582   0.3053     C
C      0.82092  0.54582   0.8053     C
N       0.8221  0.43627   0.0521     N
N       0.8221  0.93627   0.5521     N
Ag     0.82282   0.1252  0.13884    Ag
Ag     0.82282   0.6252  0.63884    Ag
H       0.8345   0.2977   0.2829     H
H       0.8345   0.7977   0.7829     H
N       0.8394  0.08084   0.2971     N
N       0.8394  0.58084   0.7971     N
N      0.84546  0.48848   0.9423     N
N      0.84546  0.98848   0.4423     N
N      0.85111  0.02693   0.4064     N
N      0.85111  0.52693   0.9064     N
N      0.85689   0.4267   0.9372     N
N      0.85689   0.9267   0.4372     N
H       0.8571   0.2105   0.0442     H
H       0.8571   0.7105   0.5442     H
C      0.86082  0.30279   0.2109     C
C      0.86082  0.80279   0.7109     C
N      0.86653  0.33539   0.1481     N
N      0.86653  0.83539   0.6481     N
C      0.86996  0.45853   0.8744     C
C      0.86996  0.95853   0.3744     C
C      0.88004  0.20853   0.1244     C
C      0.88004  0.70853   0.6244     C
N      0.88347  0.08539   0.3981     N
N      0.88347  0.58539   0.8981     N
C      0.88918  0.05279   0.4609     C
C      0.88918  0.55279   0.9609     C
H       0.8929   0.4605   0.7942     H
H       0.8929   0.9605   0.2942     H
N      0.89311   0.1767   0.1872     N
N      0.89311   0.6767   0.6872     N
N      0.89889  0.27693   0.1564     N
N      0.89889  0.77693   0.6564     N
N      0.90454  0.23848   0.1923     N
N      0.90454  0.73848   0.6923     N
N       0.9106  0.33084   0.0471     N
N       0.9106  0.83084   0.5471     N
H       0.9155   0.0477   0.5329     H
H       0.9155   0.5477   0.0329     H
Ag     0.92718   0.3752  0.88884    Ag
Ag     0.92718   0.8752  0.38884    Ag
N       0.9279  0.18627   0.3021     N
N       0.9279  0.68627   0.8021     N
C      0.92908  0.29582   0.0553     C
C      0.92908  0.79582   0.5553     C
C       0.9347  0.22347   0.3027     C
C       0.9347  0.72347   0.8027     C
H       0.9375   0.3714   0.5481     H
H       0.9375   0.8714   0.0481     H
Ag     0.94127  0.14111  0.46205    Ag
Ag     0.94127  0.64111  0.96205    Ag
H       0.9492   0.4573   0.2645     H
H       0.9492   0.9573   0.7645     H
H       0.9565   0.2375   0.3675     H
H       0.9565   0.7375   0.8675     H
H       0.9573   0.1369   0.8186     H
H       0.9573   0.6369   0.3186     H
H       0.9585   0.2852   0.0004     H
H       0.9585   0.7852   0.5004     H
C       0.9602  0.39228   0.5765     C
C       0.9602  0.89228   0.0765     C
H       0.9603   0.0372   0.0414     H
H       0.9603   0.5372   0.5414     H
N      0.96753  0.40306   0.7036     N
N      0.96753  0.90306   0.2036     N
C      0.97109  0.43527   0.2464     C
C      0.97109  0.93527   0.7464     C
C      0.97744  0.11662   0.7769     C
C      0.97744  0.61662   0.2769     C
N      0.98314  0.11088   0.6432     N
N      0.98314  0.61088   0.1432     N
C      0.98386  0.05727   0.0731     C
C      0.98386  0.55727   0.5731     C
N      0.98406  0.42241   0.1221     N
N      0.98406  0.92241   0.6221     N
N      0.99022  0.41557   0.4904     N
N      0.99022  0.91557   0.9904     N
N      0.99409  0.41197   0.3452     N
N      0.99409  0.91197   0.8452     N
N      0.99725  0.06394   0.2031     N
N      0.99725  0.56394   0.7031     N
