data_I
_chemical_name_common  '/home/zhangsd/repos/MofS-CGCNN/ML/data/SSD/clean_cifs/MOQNUB_clean'
_cell_length_a 20.90980
_cell_length_b 17.88550
_cell_length_c 14.79130
_cell_angle_alpha 90.00000
_cell_angle_beta  134.84200
_cell_angle_gamma 90.00000
_space_group_name_H-M_alt      'P 1'


loop_
_space_group_symop_operation_xyz
  'x, y, z' 

loop_
_atom_site_label
_atom_site_fract_x
_atom_site_fract_y
_atom_site_fract_z
_atom_site_type_symbol
Mg      0.0011   0.3299   0.8846    Mg
Mg      0.0011   0.6701   0.3846    Mg
P       0.0044   0.3496   0.4039     P
P       0.0044   0.6504   0.9039     P
P        0.012    0.145   0.9141     P
P        0.012    0.855   0.4141     P
Mg      0.0134   0.1686   0.3938    Mg
Mg      0.0134   0.8314   0.8938    Mg
O        0.014   0.3746   0.0161     O
O        0.014   0.6254   0.5161     O
O       0.0197   0.1232   0.0229     O
O       0.0197   0.8768   0.5229     O
O       0.0369   0.2265   0.9253     O
O       0.0369   0.7735   0.4253     O
O       0.0463   0.2717   0.4446     O
O       0.0463   0.7283   0.9446     O
O       0.0703   0.4079    0.429     O
O       0.0703   0.5921    0.929     O
O       0.0787   0.0965   0.9299     O
O       0.0787   0.9035   0.4299     O
O       0.0851   0.1279   0.7143     O
O       0.0851   0.8721   0.2143     O
O       0.0852   0.3526   0.2371     O
O       0.0852   0.6474   0.7371     O
O       0.0888   0.3874   0.9066     O
O       0.0888   0.6126   0.4066     O
O       0.0918   0.1597    0.285     O
O       0.0918   0.8403    0.785     O
O       0.1208    0.349   0.7778     O
O       0.1208    0.651   0.2778     O
O       0.1227   0.1106   0.4709     O
O       0.1227   0.8894   0.9709     O
Mg      0.1337   0.0791   0.8697    Mg
Mg      0.1337   0.9209   0.3697    Mg
Mg      0.1339   0.4172   0.3798    Mg
Mg      0.1339   0.5828   0.8798    Mg
O       0.1387   0.0255   0.3498     O
O       0.1387   0.9745   0.8498     O
O       0.1484   0.4808   0.8522     O
O       0.1484   0.5192   0.3522     O
P       0.1496   0.1045   0.3964     P
P       0.1496   0.8955   0.8964     P
P       0.1497   0.3998   0.8859     P
P       0.1497   0.6002   0.3859     P
O       0.2472   0.3767   0.0102     O
O       0.2472   0.6233   0.5102     O
O       0.2491   0.1293   0.4848     O
O       0.2491   0.8707   0.9848     O
O       0.2509   0.3707   0.5152     O
O       0.2509   0.6293   0.0152     O
O       0.2528   0.1233   0.9898     O
O       0.2528   0.8767   0.4898     O
P       0.3503   0.1002   0.1141     P
P       0.3503   0.8998   0.6141     P
P       0.3504   0.3955   0.6036     P
P       0.3504   0.6045   0.1036     P
O       0.3516   0.0192   0.1478     O
O       0.3516   0.9808   0.6478     O
O       0.3613   0.4745   0.6502     O
O       0.3613   0.5255   0.1502     O
Mg      0.3661   0.0828   0.6202    Mg
Mg      0.3661   0.9172   0.1202    Mg
Mg      0.3663   0.4209   0.1303    Mg
Mg      0.3663   0.5791   0.6303    Mg
O       0.3773   0.3894   0.5291     O
O       0.3773   0.6106   0.0291     O
O       0.3792    0.151   0.2222     O
O       0.3792    0.849   0.7222     O
O       0.4082   0.3403    0.715     O
O       0.4082   0.6597    0.215     O
O       0.4112   0.1126   0.0934     O
O       0.4112   0.8874   0.5934     O
O       0.4148   0.1474   0.7629     O
O       0.4148   0.8526   0.2629     O
O       0.4149   0.3721   0.2857     O
O       0.4149   0.6279   0.7857     O
O       0.4213   0.4035   0.0701     O
O       0.4213   0.5965   0.5701     O
O       0.4297   0.0921    0.571     O
O       0.4297   0.9079    0.071     O
O       0.4537   0.2283   0.5554     O
O       0.4537   0.7717   0.0554     O
O       0.4631   0.2735   0.0747     O
O       0.4631   0.7265   0.5747     O
O       0.4803   0.3768   0.9771     O
O       0.4803   0.6232   0.4771     O
O        0.486   0.1254   0.9839     O
O        0.486   0.8746   0.4839     O
Mg      0.4866   0.3314   0.6062    Mg
Mg      0.4866   0.6686   0.1062    Mg
P        0.488    0.355   0.0859     P
P        0.488    0.645   0.5859     P
P       0.4956   0.1504   0.5961     P
P       0.4956   0.8496   0.0961     P
Mg      0.4989   0.1701   0.1154    Mg
Mg      0.4989   0.8299   0.6154    Mg
Mg      0.5011   0.1701   0.3846    Mg
Mg      0.5011   0.8299   0.8846    Mg
P       0.5044   0.1504   0.9039     P
P       0.5044   0.8496   0.4039     P
P        0.512    0.355   0.4141     P
P        0.512    0.645   0.9141     P
Mg      0.5134   0.3314   0.8938    Mg
Mg      0.5134   0.6686   0.3938    Mg
O        0.514   0.1254   0.5161     O
O        0.514   0.8746   0.0161     O
O       0.5197   0.3768   0.5229     O
O       0.5197   0.6232   0.0229     O
O       0.5369   0.2735   0.4253     O
O       0.5369   0.7265   0.9253     O
O       0.5463   0.2283   0.9446     O
O       0.5463   0.7717   0.4446     O
O       0.5703   0.0921    0.929     O
O       0.5703   0.9079    0.429     O
O       0.5787   0.4035   0.4299     O
O       0.5787   0.5965   0.9299     O
O       0.5851   0.3721   0.2143     O
O       0.5851   0.6279   0.7143     O
O       0.5852   0.1474   0.7371     O
O       0.5852   0.8526   0.2371     O
O       0.5888   0.1126   0.4066     O
O       0.5888   0.8874   0.9066     O
O       0.5918   0.3403    0.785     O
O       0.5918   0.6597    0.285     O
O       0.6208    0.151   0.2778     O
O       0.6208    0.849   0.7778     O
O       0.6227   0.3894   0.9709     O
O       0.6227   0.6106   0.4709     O
Mg      0.6337   0.4209   0.3697    Mg
Mg      0.6337   0.5791   0.8697    Mg
Mg      0.6339   0.0828   0.8798    Mg
Mg      0.6339   0.9172   0.3798    Mg
O       0.6387   0.4745   0.8498     O
O       0.6387   0.5255   0.3498     O
O       0.6484   0.0192   0.3522     O
O       0.6484   0.9808   0.8522     O
P       0.6496   0.3955   0.8964     P
P       0.6496   0.6045   0.3964     P
P       0.6497   0.1002   0.3859     P
P       0.6497   0.8998   0.8859     P
O       0.7472   0.1233   0.5102     O
O       0.7472   0.8767   0.0102     O
O       0.7491   0.3707   0.9848     O
O       0.7491   0.6293   0.4848     O
O       0.7509   0.1293   0.0152     O
O       0.7509   0.8707   0.5152     O
O       0.7528   0.3767   0.4898     O
O       0.7528   0.6233   0.9898     O
P       0.8503   0.3998   0.6141     P
P       0.8503   0.6002   0.1141     P
P       0.8504   0.1045   0.1036     P
P       0.8504   0.8955   0.6036     P
O       0.8516   0.4808   0.6478     O
O       0.8516   0.5192   0.1478     O
O       0.8613   0.0255   0.1502     O
O       0.8613   0.9745   0.6502     O
Mg      0.8661   0.4172   0.1202    Mg
Mg      0.8661   0.5828   0.6202    Mg
Mg      0.8663   0.0791   0.6303    Mg
Mg      0.8663   0.9209   0.1303    Mg
O       0.8773   0.1106   0.0291     O
O       0.8773   0.8894   0.5291     O
O       0.8792    0.349   0.7222     O
O       0.8792    0.651   0.2222     O
O       0.9082   0.1597    0.215     O
O       0.9082   0.8403    0.715     O
O       0.9112   0.3874   0.5934     O
O       0.9112   0.6126   0.0934     O
O       0.9148   0.3526   0.2629     O
O       0.9148   0.6474   0.7629     O
O       0.9149   0.1279   0.7857     O
O       0.9149   0.8721   0.2857     O
O       0.9213   0.0965   0.5701     O
O       0.9213   0.9035   0.0701     O
O       0.9297   0.4079    0.071     O
O       0.9297   0.5921    0.571     O
O       0.9537   0.2717   0.0554     O
O       0.9537   0.7283   0.5554     O
O       0.9631   0.2265   0.5747     O
O       0.9631   0.7735   0.0747     O
O       0.9803   0.1232   0.4771     O
O       0.9803   0.8768   0.9771     O
O        0.986   0.3746   0.4839     O
O        0.986   0.6254   0.9839     O
Mg      0.9866   0.1686   0.1062    Mg
Mg      0.9866   0.8314   0.6062    Mg
P        0.988    0.145   0.5859     P
P        0.988    0.855   0.0859     P
P       0.9956   0.3496   0.0961     P
P       0.9956   0.6504   0.5961     P
Mg      0.9989   0.3299   0.6154    Mg
Mg      0.9989   0.6701   0.1154    Mg
