data_I
_chemical_name_common  '/home/zhangsd/repos/MofS-CGCNN/ML/data/SSD/clean_cifs/MOXNUJ_clean'
_cell_length_a  9.80400
_cell_length_b 16.83860
_cell_length_c 16.83860
_cell_angle_alpha 85.13840
_cell_angle_beta  73.07520
_cell_angle_gamma 73.07530
_space_group_name_H-M_alt      'P 1'


loop_
_space_group_symop_operation_xyz
  'x, y, z' 

loop_
_atom_site_label
_atom_site_fract_x
_atom_site_fract_y
_atom_site_fract_z
_atom_site_type_symbol
Cu         0.0      0.5      0.5    Cu
C      0.01663  0.71753  0.82091     C
O      0.03709  0.33711  0.21491     O
H       0.0394   0.1766   0.4464     H
H        0.047   0.7367   0.6511     H
C      0.05507  0.78247  0.67909     C
H       0.0652   0.2367   0.1511     H
H       0.0667   0.6879   0.8611     H
H       0.0722   0.8611   0.8121     H
O      0.08911  0.16289  0.28509     O
H       0.1157   0.8121   0.6389     H
C        0.125     0.75     0.75     C
C        0.134    0.144  0.41972     C
C      0.14462  0.36786  0.16392     C
H       0.1624   0.3234   0.0536     H
C      0.16246  0.82091  0.78247     C
H       0.1696    0.322   0.4762     H
H       0.1714   0.4219   0.2587     H
C       0.1764  0.13214  0.33608     C
C      0.19772    0.356  0.08028     C
N      0.20209   0.4286  0.43878     N
H       0.2035   0.1148   0.5208     H
C       0.2039  0.41364  0.20152     C
H        0.216   0.9464   0.8234     H
H       0.2163   0.8489   0.7367     H
C      0.23316  0.10719  0.46365     C
C      0.24146  0.34748  0.44664     C
H       0.2454   0.6389   0.6879     H
O        0.252  0.78509  0.83711     O
C      0.26584  0.67909  0.71753     C
H       0.2757   0.5208   0.3852     H
C        0.278  0.91972    0.856     C
H       0.3019   0.6511   0.7633     H
C      0.30319  0.46365  0.39281     C
C        0.304  0.39281  0.03635     C
C      0.30854  0.83608  0.86786     C
C       0.3119  0.44664  0.15252     C
H       0.3183   0.0208   0.8852     H
C      0.31906  0.08636  0.29848     C
H       0.3391   0.3852   0.9792     H
C      0.34035  0.96365  0.89281     C
H        0.352   0.0781   0.2413     H
H       0.3542   0.4762    0.178     H
N      0.35913  0.43878   0.0714     N
N      0.36931  0.06122   0.4286     N
O       0.3742  0.71491  0.66289     O
C      0.38246  0.29848  0.41364     C
C      0.40542  0.79848  0.91364     C
H       0.4067   0.2413   0.4219     H
C      0.41106  0.05336  0.34748     C
H       0.4301   0.7413   0.9219     H
N      0.43053   0.9286  0.93878     N
C      0.44628  0.41972    0.356     C
C      0.46442  0.84748  0.94664     C
H       0.4678    0.178   0.0238     H
H       0.4858   0.5536   0.6766     H
C      0.48752  0.33608  0.36786     C
H       0.4916   0.9762    0.678     H
Cu         0.5      0.0      0.0    Cu
Cu         0.5      0.0      0.5    Cu
Cu         0.5      0.5      0.0    Cu
H       0.5084   0.0238    0.322     H
C      0.51248  0.66392  0.63214     C
H       0.5142   0.4464   0.3234     H
H       0.5322    0.822   0.9762     H
C      0.53558  0.15252  0.05336     C
C      0.55372  0.58028    0.644     C
N      0.56947   0.0714  0.06122     N
H       0.5699   0.2587   0.0781     H
C      0.58894  0.94664  0.65252     C
H       0.5933   0.7587   0.5781     H
C      0.59458  0.20152  0.08636     C
C      0.61754  0.70152  0.58636     C
O       0.6258  0.28509  0.33711     O
N      0.63069  0.93878   0.5714     N
N      0.64087  0.56122   0.9286     N
H       0.6458   0.5238    0.822     H
H        0.648   0.9219   0.7587     H
C      0.65965  0.03635  0.10719     C
H       0.6609   0.6148   0.0208     H
C      0.68094  0.91364  0.70152     C
H       0.6817   0.9792   0.1148     H
C       0.6881  0.55336  0.84748     C
C      0.69146  0.16392  0.13214     C
C        0.696  0.60719  0.96365     C
C      0.69681  0.53635  0.60719     C
H       0.6981   0.3489   0.2367     H
C        0.722  0.08028    0.144     C
H       0.7243   0.4792   0.6148     H
C      0.73416  0.32091  0.28247     C
O        0.748  0.21491  0.16289     O
H       0.7546   0.3611   0.3121     H
C      0.75854  0.65252  0.55336     C
C      0.76684  0.89281  0.53635     C
H       0.7837   0.1511   0.2633     H
H        0.784   0.0536   0.1766     H
C       0.7961  0.58636  0.79848     C
H       0.7965   0.8852   0.4792     H
N      0.79791   0.5714  0.56122     N
C      0.80228    0.644  0.91972     C
C       0.8236  0.86786  0.66392     C
H       0.8286   0.5781   0.7413     H
H       0.8304    0.678   0.5238     H
C      0.83754  0.17909  0.21753     C
H       0.8376   0.6766   0.9464     H
C      0.85538  0.63214  0.83608     C
C        0.866    0.856  0.58028     C
C        0.875     0.25     0.25     C
H       0.8843   0.1879   0.3611     H
O      0.91089  0.83711  0.71491     O
H       0.9278   0.1389   0.1879     H
H       0.9333   0.3121   0.1389     H
H       0.9348   0.7633   0.8489     H
C      0.94493  0.21753  0.32091     C
H        0.953   0.2633   0.3489     H
H       0.9606   0.8234   0.5536     H
O      0.96291  0.66289  0.78509     O
C      0.98337  0.28247  0.17909     C
