data_I
_chemical_name_common  '/home/zhangsd/repos/MofS-CGCNN/ML/data/SSD/clean_cifs/MUFXUI_clean'
_cell_length_a  8.56270
_cell_length_b 14.07800
_cell_length_c 20.29700
_cell_angle_alpha 88.56800
_cell_angle_beta  86.32500
_cell_angle_gamma 81.38200
_space_group_name_H-M_alt      'P 1'


loop_
_space_group_symop_operation_xyz
  'x, y, z' 

loop_
_atom_site_label
_atom_site_fract_x
_atom_site_fract_y
_atom_site_fract_z
_atom_site_type_symbol
N       0.0004    0.164   0.9771     N
C        0.014   0.3984   0.3777     C
C       0.0199   0.4523    0.442     C
C        0.024   0.0876   0.9371     C
O       0.0281   0.6816   0.6137     O
O       0.0447   0.4377   0.3248     O
O       0.0642   0.6884   0.9433     O
N       0.0721   0.5743   0.5083     N
O       0.0769   0.8857   0.4325     O
C        0.079   0.2809    0.048     C
C        0.088   0.5383    0.453     C
O       0.1114   0.9897   0.1364     O
Tb     0.11784  0.76033  0.51433    Tb
O       0.1269   0.2597   0.5408     O
C         0.13   0.9327   0.0909     C
C        0.135   0.1975   0.0031     C
O       0.1486   0.9997   0.3633     O
O       0.1542   0.1578   0.4542     O
O       0.1713   0.8807   0.9053     O
C        0.177   0.9332   0.4023     C
C        0.178   0.0453    0.924     C
O         0.19   0.5422   0.1358     O
O       0.1921   0.3002   0.0799     O
C        0.204   0.5812   0.4019     C
Tb     0.21131  0.02985  0.24113    Tb
C        0.212   0.1932   0.5024     C
O       0.2127   0.6751   0.0792     O
C        0.221   0.9557   0.8797     C
O        0.224   0.6641   0.4177     O
Tb     0.23516  0.48561  0.24797    Tb
C       0.2521   0.5866   0.0915     C
O       0.2552   0.8911   0.0647     O
Tb     0.27365  0.76272  0.98096    Tb
O       0.2739   0.5362   0.3557     O
C        0.279   0.1508   0.9837     C
O       0.3016   0.9635   0.8257     O
N       0.3054   0.0759   0.9435     N
C        0.346   0.9022   0.4272     C
N       0.3568   0.8329   0.4723     N
O       0.3649   0.6933   0.5571     O
C        0.374   0.1605   0.5253     C
N       0.3772   0.0843   0.5689     N
O       0.3795   0.3173   0.4332     O
C         0.39   0.5374   0.0464     C
N       0.4004   0.5856    0.988     N
O       0.4105   0.6887    0.886     O
C        0.426   0.1862   0.0027     C
O       0.4401   0.4175   0.1752     O
O       0.4402   0.9082   0.6333     O
O       0.4573   0.0075   0.2913     O
O       0.4744   0.2534   0.9708     O
C        0.478    0.944   0.4065     C
C        0.491   0.0231   0.3533     C
C       0.4921   0.4539   0.0608     C
C        0.493   0.6114   0.8784     C
C        0.497    0.717   0.5439     C
C        0.498   0.8001   0.4949     C
O          0.5   0.1443   0.0507     O
O          0.5   0.8557   0.9493     O
C        0.502   0.1999   0.5051     C
C        0.503    0.283   0.4561     C
C        0.507   0.3886   0.1216     C
C       0.5079   0.5461   0.9392     C
C        0.509   0.9769   0.6467     C
C        0.522    0.056   0.5935     C
O       0.5256   0.7466   0.0292     O
O       0.5427   0.9925   0.7087     O
O       0.5598   0.0918   0.3667     O
O       0.5599   0.5825   0.8248     O
C        0.574   0.8138   0.9973     C
O       0.5895   0.3113    0.114     O
N       0.5996   0.4144    0.012     N
C         0.61   0.4626   0.9536     C
O       0.6205   0.6827   0.5668     O
N       0.6228   0.9157   0.4311     N
C        0.626   0.8395   0.4747     C
O       0.6351   0.3067   0.4429     O
N       0.6432   0.1671   0.5277     N
C        0.654   0.0978   0.5728     C
N       0.6946   0.9241   0.0565     N
O       0.6984   0.0365   0.1743     O
C        0.721   0.8492   0.0163     C
O       0.7261   0.4638   0.6443     O
Tb     0.72635  0.23728  0.01904    Tb
O       0.7448   0.1089   0.9353     O
C       0.7479   0.4134   0.9085     C
Tb     0.76484  0.51439  0.75203    Tb
O        0.776   0.3359   0.5823     O
C        0.779   0.0443   0.1203     C
O       0.7873   0.3249   0.9208     O
C        0.788   0.8068   0.4976     C
Tb     0.78869  0.97015  0.75887    Tb
C        0.796   0.4188   0.5981     C
O       0.8079   0.6998   0.9201     O
O         0.81   0.4578   0.8642     O
C        0.822   0.9547    0.076     C
C        0.823   0.0668   0.5977     C
O       0.8287   0.1193   0.0947     O
O       0.8458   0.8422   0.5458     O
O       0.8514   0.0003   0.6367     O
C        0.865   0.8025   0.9969     C
C         0.87   0.0673   0.9091     C
O       0.8731   0.7403   0.4592     O
Tb     0.88216  0.23967  0.48567    Tb
O       0.8886   0.0103   0.8636     O
C        0.912   0.4617    0.547     C
C        0.921   0.7191    0.952     C
O       0.9231   0.1143   0.5675     O
N       0.9279   0.4257   0.4917     N
O       0.9358   0.3116   0.0567     O
O       0.9553   0.5623   0.6752     O
O       0.9719   0.3184   0.3863     O
C        0.976   0.9124   0.0629     C
C       0.9801   0.5477    0.558     C
C        0.986   0.6016   0.6223     C
N       0.9996    0.836   0.0229     N
