data_I
_chemical_name_common  '/home/zhangsd/repos/MofS-CGCNN/ML/data/SSD/clean_cifs/MUFYAP_clean'
_cell_length_a  8.56070
_cell_length_b 14.10230
_cell_length_c 20.29400
_cell_angle_alpha 88.53920
_cell_angle_beta  86.49980
_cell_angle_gamma 81.25190
_space_group_name_H-M_alt      'P 1'


loop_
_space_group_symop_operation_xyz
  'x, y, z' 

loop_
_atom_site_label
_atom_site_fract_x
_atom_site_fract_y
_atom_site_fract_z
_atom_site_type_symbol
N       0.0006   0.8358  0.02209     N
C       0.0101   0.4001  0.37807     C
C       0.0175   0.4548  0.44098     C
C       0.0224   0.0895   0.9381     C
O       0.0332   0.6811  0.61352     O
O       0.0379   0.4397  0.32381     O
O        0.065   0.6882  0.94271     O
N       0.0714   0.5777  0.50935     N
O       0.0767   0.8865  0.43284     O
C        0.081   0.2789   0.0498     C
C       0.0915   0.5353  0.45065     C
O       0.1098   0.9893  0.13775     O
Gd     0.11899  0.75955  0.51428    Gd
O       0.1239   0.2589  0.54011     O
C       0.1246   0.1962  0.00209     C
C       0.1271   0.9327  0.09011     C
O       0.1493   0.0005  0.36364     O
O       0.1543   0.1595  0.45549     O
O       0.1699    0.879  0.90449     O
C       0.1776   0.9331  0.40563     C
C       0.1784   0.0434  0.92235     C
O       0.1857   0.5426  0.13631     O
O       0.1911   0.3049  0.07881     O
C       0.2048   0.1956    0.503     C
C       0.2063   0.5822  0.40344     C
Gd     0.21156  0.03019  0.24149    Gd
O       0.2156   0.6757  0.07924     O
C       0.2177   0.9545   0.8811     C
O       0.2246    0.666  0.41849     O
Gd     0.23167  0.48581  0.24766    Gd
C       0.2525   0.5883  0.09227     C
O       0.2549   0.8912  0.06385     O
Gd     0.27504  0.76286  0.98096    Gd
C       0.2762   0.1516  0.98406     C
O       0.2785   0.5362  0.35698     O
O       0.2979    0.961  0.82837     O
N       0.3036   0.0764  0.94439     N
C        0.345   0.9054  0.42695     C
N       0.3565   0.8335  0.47182     N
O       0.3618   0.6906   0.5586     O
C        0.369   0.1594  0.52567     C
O       0.3756   0.3188  0.43316     O
N       0.3784   0.0863  0.56837     N
C       0.3873   0.5362  0.04726     C
N       0.4006   0.5826  0.98907     N
O       0.4132   0.6933  0.88526     O
C       0.4244   0.1875   0.0028     C
O       0.4383   0.4198  0.17464     O
O       0.4424    0.908  0.63402     O
O       0.4455   0.0039  0.29744     O
O       0.4694   0.2557  0.96959     O
C       0.4813   0.9452   0.4064     C
C       0.4905   0.4508  0.05874     C
C       0.4927   0.0215   0.3521     C
C       0.4957   0.6124   0.8782     C
C       0.4957   0.7991  0.49636     C
C       0.4965   0.7173  0.54468     C
O       0.4975   0.8557  0.95153     O
O       0.5025   0.1443  0.04847     O
C       0.5035   0.2827  0.45532     C
C       0.5043   0.2009  0.50364     C
C       0.5043   0.3876   0.1218     C
C       0.5073   0.9785   0.6479     C
C       0.5095   0.5492  0.94126     C
C       0.5187   0.0548   0.5936     C
O       0.5306   0.7443  0.03041     O
O       0.5545   0.9961  0.70256     O
O       0.5576    0.092  0.36598     O
O       0.5617   0.5802  0.82536     O
C       0.5756   0.8125   0.9972     C
O       0.5868   0.3067  0.11474     O
N       0.5994   0.4174  0.01093     N
C       0.6127   0.4638  0.95274     C
N       0.6216   0.9137  0.43163     N
O       0.6244   0.6812  0.56684     O
C        0.631   0.8406  0.47433     C
O       0.6382   0.3094   0.4414     O
N       0.6435   0.1665  0.52818     N
C        0.655   0.0946  0.57305     C
N       0.6964   0.9236  0.05561     N
O       0.7021    0.039  0.17163     O
O       0.7215   0.4638  0.64302     O
C       0.7238   0.8484  0.01594     C
Gd     0.72496  0.23714  0.01904    Gd
O       0.7451   0.1088  0.93615     O
C       0.7475   0.4117  0.90773     C
Gd     0.76833  0.51419  0.75234    Gd
O       0.7754    0.334  0.58151     O
C       0.7823   0.0455   0.1189     C
O       0.7844   0.3243  0.92076     O
Gd     0.78844  0.96981  0.75851    Gd
C       0.7937   0.4178  0.59656     C
C       0.7952   0.8044    0.497     C
O       0.8089   0.6951  0.92119     O
O       0.8143   0.4574  0.86369     O
C       0.8216   0.9566  0.07765     C
C       0.8224   0.0669  0.59437     C
O       0.8301    0.121  0.09551     O
O       0.8457   0.8405  0.54451     O
O       0.8507   0.9995  0.63636     O
C       0.8729   0.0673  0.90989     C
C       0.8754   0.8038  0.99791     C
O       0.8761   0.7411  0.45989     O
Gd     0.88101  0.24045  0.48572    Gd
O       0.8902   0.0107  0.86225     O
C       0.9085   0.4647  0.54935     C
C        0.919   0.7211   0.9502     C
O       0.9233   0.1135  0.56716     O
N       0.9286   0.4223  0.49065     N
O        0.935   0.3118  0.05729     O
O       0.9621   0.5603  0.67619     O
O       0.9668   0.3189  0.38648     O
C       0.9776   0.9105   0.0619     C
C       0.9825   0.5452  0.55902     C
C       0.9899   0.5999  0.62193     C
N       0.9994   0.1642  0.97791     N
