data_I
_chemical_name_common  '/home/zhangsd/repos/MofS-CGCNN/ML/data/SSD/clean_cifs/MUPYUS_clean'
_cell_length_a  7.85160
_cell_length_b 10.73830
_cell_length_c 14.19280
_cell_angle_alpha 112.22900
_cell_angle_beta  90.00000
_cell_angle_gamma 90.00000
_space_group_name_H-M_alt      'P 1'


loop_
_space_group_symop_operation_xyz
  'x, y, z' 

loop_
_atom_site_label
_atom_site_fract_x
_atom_site_fract_y
_atom_site_fract_z
_atom_site_type_symbol
H        0.023   0.2666   0.9266     H
H        0.023     0.66   0.9266     H
Cd      0.0327  0.01092  0.02184    Cd
Br      0.0599  0.65536  0.31072    Br
H       0.0621   0.0686   0.6998     H
H       0.0621   0.6312   0.6998     H
H       0.0784   0.8807   0.7614     H
H       0.0932   0.1488   0.2976     H
C        0.117   0.0621   0.6402     C
C        0.117   0.5781   0.6402     C
N        0.124   0.6073   0.5576     N
N        0.124   0.9503   0.5576     N
C        0.133    0.232    0.916     C
C        0.133    0.684    0.916     C
N        0.189   0.1402     0.95     N
N        0.189   0.8098     0.95     N
C        0.195   0.1309   0.2618     C
N        0.196   0.1624   0.6294     N
N        0.196    0.467   0.6294     N
N        0.208   0.0804   0.1608     N
C        0.215   0.5057   0.4934     C
C        0.215   0.9877   0.4934     C
H       0.2438    0.497   0.4276     H
H       0.2438   0.9306   0.4276     H
Cd       0.246  0.37592  0.75184    Cd
N        0.257   0.2695   0.8634     N
N        0.257   0.5939   0.8634     N
N        0.259   0.1174   0.5348     N
N        0.259   0.4174   0.5348     N
N        0.347    0.152    0.304     N
N        0.356   0.1118   0.9156     N
N        0.356   0.8038   0.9156     N
N        0.373   0.0663   0.1326     N
C        0.391   0.1869   0.8658     C
C        0.391   0.6789   0.8658     C
Cd      0.4539  0.23973  0.47946    Cd
C        0.461   0.1149   0.2298     C
H       0.4957   0.1858   0.8348     H
H       0.4957    0.649   0.8348     H
H        0.523     0.34   0.0734     H
H        0.523   0.7334   0.0734     H
Cd      0.5327  0.98908  0.97816    Cd
Br      0.5599  0.34464  0.68928    Br
H       0.5621   0.3688   0.3002     H
H       0.5621   0.9314   0.3002     H
H       0.5784   0.1193   0.2386     H
H       0.5932   0.8512   0.7024     H
C        0.617   0.4219   0.3598     C
C        0.617   0.9379   0.3598     C
N        0.624   0.0497   0.4424     N
N        0.624   0.3927   0.4424     N
C        0.633    0.316    0.084     C
C        0.633    0.768    0.084     C
N        0.689   0.1902     0.05     N
N        0.689   0.8598     0.05     N
C        0.695   0.8691   0.7382     C
N        0.696    0.533   0.3706     N
N        0.696   0.8376   0.3706     N
N        0.708   0.9196   0.8392     N
C        0.715   0.0123   0.5066     C
C        0.715   0.4943   0.5066     C
H       0.7438   0.0694   0.5724     H
H       0.7438    0.503   0.5724     H
Cd       0.746  0.62408  0.24816    Cd
N        0.757   0.4061   0.1366     N
N        0.757   0.7305   0.1366     N
N        0.759   0.5826   0.4652     N
N        0.759   0.8826   0.4652     N
N        0.847    0.848    0.696     N
N        0.856   0.1962   0.0844     N
N        0.856   0.8882   0.0844     N
N        0.873   0.9337   0.8674     N
C        0.891   0.3211   0.1342     C
C        0.891   0.8131   0.1342     C
Cd      0.9539  0.76027  0.52054    Cd
C        0.961   0.8851   0.7702     C
H       0.9957    0.351   0.1652     H
H       0.9957   0.8142   0.1652     H
