data_I
_chemical_name_common  '/home/zhangsd/repos/MofS-CGCNN/ML/data/SSD/clean_cifs/MURBEI_clean'
_cell_length_a 19.72440
_cell_length_b 17.08140
_cell_length_c  9.95540
_cell_angle_alpha 90.00000
_cell_angle_beta  90.00000
_cell_angle_gamma 90.00000
_space_group_name_H-M_alt      'P 1'


loop_
_space_group_symop_operation_xyz
  'x, y, z' 

loop_
_atom_site_label
_atom_site_fract_x
_atom_site_fract_y
_atom_site_fract_z
_atom_site_type_symbol
H       0.0201   0.6259   0.9346     H
C       0.0296   0.9736   0.4137     C
C       0.0361   0.5119   0.9904     C
H       0.0395   0.9669    0.614     H
H       0.0418   0.9598   0.2082     H
C       0.0544   0.5892   0.9577     C
C       0.0589   0.9494    0.532     C
C       0.0599   0.9452    0.293     C
H       0.0765   0.4068   0.0483     H
C       0.0876   0.4591   0.0248     C
O      0.09446  0.74392   0.8997     O
O       0.1104   0.8881   0.0619     O
O      0.11067  0.90145    0.774     O
C       0.1152   0.8969   0.2994     C
C       0.1161   0.9003   0.5384     C
C       0.1204   0.6121   0.9584     C
C       0.1397   0.6955   0.9259     C
C       0.1422   0.8766   0.6725     C
C       0.1429   0.8703   0.1664     C
C       0.1447   0.8734   0.4174     C
C       0.1541   0.4828   0.0246     C
C       0.1719   0.5599   0.9917     C
In     0.18128  0.84014  0.91388    In
H       0.1833   0.8401   0.4175     H
O      0.19374   0.8345   0.6838     O
O       0.1971   0.8341   0.1587     O
O      0.20052  0.35524   0.0735     O
O      0.20137  0.71519   0.9305     O
C       0.2108   0.4273   0.0609     C
H       0.2179   0.5761   0.9922     H
O      0.22936  0.95496   0.9302     O
O      0.27064  0.45496   0.0698     O
H       0.2821   0.0761   0.0078     H
C       0.2892   0.9273   0.9391     C
O      0.29863  0.21519   0.0695     O
O      0.29948  0.85524   0.9265     O
O       0.3029   0.3341   0.8413     O
O      0.30626   0.3345   0.3162     O
H       0.3167   0.3401   0.5825     H
In     0.31872  0.34014  0.08612    In
C       0.3281   0.0599   0.0083     C
C       0.3459   0.9828   0.9754     C
C       0.3553   0.3734   0.5826     C
C       0.3571   0.3703   0.8336     C
C       0.3578   0.3766   0.3275     C
C       0.3603   0.1955   0.0741     C
C       0.3796   0.1121   0.0416     C
C       0.3839   0.4003   0.4616     C
C       0.3848   0.3969   0.7006     C
O      0.38933  0.40145    0.226     O
O       0.3896   0.3881   0.9381     O
O      0.40554  0.24392   0.1003     O
C       0.4124   0.9591   0.9752     C
H       0.4235   0.9068   0.9517     H
C       0.4401   0.4452    0.707     C
C       0.4411   0.4494    0.468     C
C       0.4456   0.0892   0.0423     C
H       0.4582   0.4598   0.7918     H
H       0.4605   0.4669    0.386     H
C       0.4639   0.0119   0.0096     C
C       0.4704   0.4736   0.5863     C
H       0.4799   0.1259   0.0654     H
H       0.5201   0.8741   0.0654     H
C       0.5296   0.5264   0.5863     C
C       0.5361   0.9881   0.0096     C
H       0.5395   0.5331    0.386     H
H       0.5418   0.5402   0.7918     H
C       0.5544   0.9108   0.0423     C
C       0.5589   0.5506    0.468     C
C       0.5599   0.5548    0.707     C
H       0.5765   0.0932   0.9517     H
C       0.5876   0.0409   0.9752     C
O      0.59446  0.75608   0.1003     O
O       0.6104   0.6119   0.9381     O
O      0.61067  0.59855    0.226     O
C       0.6152   0.6031   0.7006     C
C       0.6161   0.5997   0.4616     C
C       0.6204   0.8879   0.0416     C
C       0.6397   0.8045   0.0741     C
C       0.6422   0.6234   0.3275     C
C       0.6429   0.6297   0.8336     C
C       0.6447   0.6266   0.5826     C
C       0.6541   0.0172   0.9754     C
C       0.6719   0.9401   0.0083     C
In     0.68128  0.65986  0.08612    In
H       0.6833   0.6599   0.5825     H
O      0.69374   0.6655   0.3162     O
O       0.6971   0.6659   0.8413     O
O      0.70052  0.14476   0.9265     O
O      0.70137  0.78481   0.0695     O
C       0.7108   0.0727   0.9391     C
H       0.7179   0.9239   0.0078     H
O      0.72936  0.54504   0.0698     O
O      0.77064  0.04504   0.9302     O
H       0.7821   0.4239   0.9922     H
C       0.7892   0.5727   0.0609     C
O      0.79863  0.28481   0.9305     O
O      0.79948  0.64476   0.0735     O
O       0.8029   0.1659   0.1587     O
O      0.80626   0.1655   0.6838     O
H       0.8167   0.1599   0.4175     H
In     0.81872  0.15986  0.91388    In
C       0.8281   0.4401   0.9917     C
C       0.8459   0.5172   0.0246     C
C       0.8553   0.1266   0.4174     C
C       0.8571   0.1297   0.1664     C
C       0.8578   0.1234   0.6725     C
C       0.8603   0.3045   0.9259     C
C       0.8796   0.3879   0.9584     C
C       0.8839   0.0997   0.5384     C
C       0.8848   0.1031   0.2994     C
O      0.88933  0.09855    0.774     O
O       0.8896   0.1119   0.0619     O
O      0.90554  0.25608   0.8997     O
C       0.9124   0.5409   0.0248     C
H       0.9235   0.5932   0.0483     H
C       0.9401   0.0548    0.293     C
C       0.9411   0.0506    0.532     C
C       0.9456   0.4108   0.9577     C
H       0.9582   0.0402   0.2082     H
H       0.9605   0.0331    0.614     H
C       0.9639   0.4881   0.9904     C
C       0.9704   0.0264   0.4137     C
H       0.9799   0.3741   0.9346     H
