data_I
_chemical_name_common  '/home/zhangsd/repos/MofS-CGCNN/ML/data/SSD/clean_cifs/NAGQET_clean'
_cell_length_a  9.19850
_cell_length_b 15.95760
_cell_length_c 16.09660
_cell_angle_alpha 73.17100
_cell_angle_beta  74.44000
_cell_angle_gamma 76.39200
_space_group_name_H-M_alt      'P 1'


loop_
_space_group_symop_operation_xyz
  'x, y, z' 

loop_
_atom_site_label
_atom_site_fract_x
_atom_site_fract_y
_atom_site_fract_z
_atom_site_type_symbol
Co         0.0      0.0      0.5    Co
Co         0.0      0.5      0.5    Co
C       0.0015   0.9626   0.2451     C
H        0.008   0.7077   0.4299     H
C       0.0134   0.4272   0.3402     C
H       0.0175   0.3688   0.2441     H
C       0.0198   0.9863   0.3169     C
H       0.0261   0.3241   0.9702     H
C       0.0269   0.5817   0.7329     C
H       0.0372   0.2689   0.8487     H
N       0.0441    0.503   0.6246     N
N       0.0467   0.0518   0.5982     N
H       0.0486   0.9892   0.1878     H
C       0.0501   0.6941   0.1292     C
C       0.0569   0.6614    0.057     C
H       0.0751   0.7971   0.5804     H
H       0.0842   0.3823   0.3661     H
C        0.087   0.1009   0.7412     C
H       0.1015   0.1171   0.7891     H
C       0.1068   0.0535   0.3099     C
C       0.1102   0.6827   0.4133     C
N       0.1107   0.5805   0.8991     N
N        0.127   0.0682   0.3836     N
C       0.1306   0.1145   0.5868     C
C        0.133   0.5169   0.7717     C
C       0.1432   0.4391   0.6646     C
N        0.148   0.5943   0.4324     N
C       0.1544   0.1405   0.6547     C
N       0.1657   0.1095   0.2354     N
H       0.1724   0.6915   0.2156     H
C       0.1747   0.6707   0.1669     C
H        0.175   0.1416    0.529     H
C       0.1752   0.8074   0.5576     C
H       0.1826   0.7992   0.3578     H
H       0.1827   0.3888   0.6422     H
C       0.1878    0.526   0.8459     C
C       0.1887    0.607   0.0261     C
C       0.1898   0.4439   0.7369     C
N       0.1959   0.8897    0.517     N
N       0.2041   0.1387   0.3568     N
C       0.2077   0.5675   0.9523     C
C       0.2138   0.7379   0.3706     C
H       0.2143   0.1837   0.6435     H
N       0.2169   0.4146   0.4743     N
C       0.2239   0.1608   0.2683     C
H       0.2596   0.3978   0.7623     H
H       0.2679   0.2223   0.0958     H
H       0.2687   0.6795   0.5979     H
N       0.2855   0.3276   0.4908     N
C       0.2912   0.7359   0.5686     C
C       0.2949   0.2363   0.2099     C
C       0.2957   0.5587   0.4082     C
C        0.303   0.6168   0.1335     C
C       0.3035   0.2576   0.1202     C
N       0.3125   0.5849   0.0634     N
N        0.325   0.4832   0.8622     N
C       0.3286   0.4618   0.4321     C
N       0.3358   0.5116   0.9315     N
C       0.3422   0.9014   0.4869     C
H        0.348   0.2797   0.3014     H
C       0.3506   0.2913    0.241     C
H        0.362   0.9585   0.4588     H
C       0.3635   0.3298   0.0666     C
C       0.3659   0.7014   0.3467     C
H       0.3671   0.3423    0.006     H
H       0.3865   0.6018   0.1603     H
C       0.4068   0.6104   0.3664     C
C       0.4104   0.3635   0.1835     C
N       0.4173   0.3836    0.096     N
C       0.4352   0.3295   0.4571     C
H       0.4374   0.1542   0.5263     H
H       0.4393   0.7376   0.3179     H
C       0.4419   0.7483   0.5356     C
H       0.4473   0.3997   0.2062     H
C       0.4635   0.8336   0.4955     C
N       0.4683   0.4126     0.42     N
H       0.4913   0.4159   0.6486     H
Co         0.5      0.5      0.0    Co
H       0.5087   0.5841   0.3514     H
N       0.5317   0.5874     0.58     N
C       0.5365   0.1664   0.5045     C
H       0.5527   0.6003   0.7938     H
C       0.5581   0.2517   0.4644     C
H       0.5607   0.2624   0.6821     H
H       0.5626   0.8458   0.4737     H
C       0.5648   0.6705   0.5429     C
N       0.5827   0.6164    0.904     N
C       0.5896   0.6365   0.8165     C
C       0.5932   0.3896   0.6336     C
H       0.6135   0.3982   0.8397     H
H       0.6329   0.6577    0.994     H
C       0.6341   0.2986   0.6533     C
C       0.6365   0.6702   0.9334     C
H        0.638   0.0415   0.5412     H
C       0.6494   0.7087    0.759     C
H        0.652   0.7203   0.6986     H
C       0.6578   0.0986   0.5131     C
N       0.6642   0.4884   0.0685     N
C       0.6714   0.5382   0.5679     C
N        0.675   0.5168   0.1378     N
N       0.6875   0.4151   0.9366     N
C       0.6965   0.7424   0.8798     C
C        0.697   0.3832   0.8665     C
C       0.7043   0.4413   0.5918     C
C       0.7051   0.7637   0.7901     C
C       0.7088   0.2641   0.4314     C
N       0.7145   0.6724   0.5092     N
H       0.7313   0.3205   0.4021     H
H       0.7321   0.7777   0.9042     H
H       0.7404   0.6022   0.2377     H
C       0.7761   0.8392   0.7317     C
N       0.7831   0.5854   0.5257     N
H       0.7857   0.8163   0.3565     H
C       0.7862   0.2621   0.6294     C
C       0.7923   0.4325   0.0477     C
N       0.7959   0.8613   0.6432     N
N       0.8041   0.1103    0.483     N
C       0.8102   0.5561   0.2631     C
C       0.8113    0.393   0.9739     C
C       0.8122    0.474   0.1541     C
H       0.8173   0.6112   0.3578     H
H       0.8174   0.2008   0.6422     H
C       0.8248   0.1926   0.4424     C
H        0.825   0.8584    0.471     H
C       0.8253   0.3293   0.8331     C
H       0.8276   0.3085   0.7844     H
N       0.8343   0.8905   0.7646     N
C       0.8456   0.8595   0.3453     C
N        0.852   0.4057   0.5676     N
C       0.8568   0.5609   0.3354     C
C        0.867   0.4831   0.2283     C
C       0.8694   0.8855   0.4132     C
N        0.873   0.9318   0.6164     N
N       0.8893   0.4195   0.1009     N
C       0.8898   0.3173   0.5867     C
C       0.8932   0.9465   0.6901     C
H       0.8985   0.8829   0.2109     H
C        0.913   0.8991   0.2588     C
H       0.9158   0.6177   0.6339     H
H       0.9249   0.2029   0.4196     H
C       0.9431   0.3386    0.943     C
C       0.9499   0.3059   0.8708     C
H       0.9514   0.0108   0.8122     H
N       0.9533   0.9482   0.4018     N
N       0.9559    0.497   0.3754     N
H       0.9628   0.7311   0.1513     H
C       0.9731   0.4183   0.2671     C
H       0.9739   0.6759   0.0298     H
C       0.9802   0.0137   0.6831     C
H       0.9825   0.6312   0.7559     H
C       0.9866   0.5728   0.6598     C
H        0.992   0.2923   0.5701     H
C       0.9985   0.0374   0.7549     C
