data_I
_chemical_name_common  '/home/zhangsd/repos/MofS-CGCNN/ML/data/SSD/clean_cifs/NAHGUB_clean'
_cell_length_a 10.09700
_cell_length_b 12.81010
_cell_length_c 10.92290
_cell_angle_alpha 90.00000
_cell_angle_beta  102.58100
_cell_angle_gamma 90.00000
_space_group_name_H-M_alt      'P 1'


loop_
_space_group_symop_operation_xyz
  'x, y, z' 

loop_
_atom_site_label
_atom_site_fract_x
_atom_site_fract_y
_atom_site_fract_z
_atom_site_type_symbol
O       0.0002   0.1937   0.7859     O
O       0.0002   0.3063   0.2859     O
C       0.0034    0.599   0.6963     C
C       0.0034    0.901   0.1963     C
H       0.0617   0.5938      0.4     H
H       0.0617   0.9062      0.9     H
O       0.1105   0.5472   0.6941     O
O       0.1105   0.9528   0.1941     O
C       0.1286    0.037   0.8293     C
C       0.1286    0.463   0.3293     C
C       0.1377   0.5631     0.38     C
C       0.1377   0.9369     0.88     C
H       0.2356   0.1489   0.7629     H
H       0.2356   0.3511   0.2629     H
C       0.2422   0.0826   0.7982     C
C       0.2422   0.4174   0.2982     C
N       0.2584   0.7411   0.5739     N
N       0.2584   0.7589   0.0739     N
C       0.2605   0.6177   0.4009     C
C       0.2605   0.8823   0.9009     C
N       0.2655   0.6538   0.0881     N
N       0.2655   0.8462   0.5881     N
C       0.2678   0.7229   0.4578     C
C       0.2678   0.7771   0.9578     C
Zn     0.26876  0.64477  0.72012    Zn
Zn     0.26876  0.85523  0.22012    Zn
N       0.2806   0.6141   0.9818     N
N       0.2806   0.8859   0.4818     N
N       0.2818   0.6893   0.8977     N
N       0.2818   0.8107   0.3977     N
C       0.3656   0.0294   0.8197     C
C       0.3656   0.4706   0.3197     C
C       0.3752   0.5715   0.3696     C
C       0.3752   0.9285   0.8696     C
O       0.4005   0.5333   0.6946     O
O       0.4005   0.9667   0.1946     O
H       0.4568   0.6078    0.382     H
H       0.4568   0.8922    0.882     H
O       0.4752   0.1746   0.7491     O
O       0.4752   0.3254   0.2491     O
C       0.4867   0.0834   0.7861     C
C       0.4867   0.4166   0.2861     C
C       0.5133   0.5834   0.7139     C
C       0.5133   0.9166   0.2139     C
O       0.5248   0.6746   0.7509     O
O       0.5248   0.8254   0.2509     O
H       0.5432   0.1078    0.118     H
H       0.5432   0.3922    0.618     H
O       0.5995   0.0333   0.8054     O
O       0.5995   0.4667   0.3054     O
C       0.6248   0.0715   0.1304     C
C       0.6248   0.4285   0.6304     C
C       0.6344   0.5294   0.6803     C
C       0.6344   0.9706   0.1803     C
N       0.7182   0.1893   0.6023     N
N       0.7182   0.3107   0.1023     N
N       0.7194   0.1141   0.5182     N
N       0.7194   0.3859   0.0182     N
Zn     0.73124  0.14477  0.77988    Zn
Zn     0.73124  0.35523  0.27988    Zn
C       0.7322   0.2229   0.0422     C
C       0.7322   0.2771   0.5422     C
N       0.7345   0.1538   0.4119     N
N       0.7345   0.3462   0.9119     N
C       0.7395   0.1177   0.0991     C
C       0.7395   0.3823   0.5991     C
N       0.7416   0.2411   0.9261     N
N       0.7416   0.2589   0.4261     N
C       0.7578   0.5826   0.7018     C
C       0.7578   0.9174   0.2018     C
H       0.7644   0.6489   0.7371     H
H       0.7644   0.8511   0.2371     H
C       0.8623   0.0631     0.12     C
C       0.8623   0.4369     0.62     C
C       0.8714    0.537   0.6707     C
C       0.8714    0.963   0.1707     C
O       0.8895   0.0472   0.8059     O
O       0.8895   0.4528   0.3059     O
H       0.9383   0.0938      0.1     H
H       0.9383   0.4062      0.6     H
C       0.9966    0.099   0.8037     C
C       0.9966    0.401   0.3037     C
O       0.9998   0.6937   0.7141     O
O       0.9998   0.8063   0.2141     O
