data_I
_chemical_name_common  '/home/zhangsd/repos/MofS-CGCNN/ML/data/SSD/clean_cifs/NALYEG_clean'
_cell_length_a  9.77360
_cell_length_b 18.35390
_cell_length_c 18.35390
_cell_angle_alpha 120.00000
_cell_angle_beta  90.00000
_cell_angle_gamma 90.00000
_space_group_name_H-M_alt      'P 1'


loop_
_space_group_symop_operation_xyz
  'x, y, z' 

loop_
_atom_site_label
_atom_site_fract_x
_atom_site_fract_y
_atom_site_fract_z
_atom_site_type_symbol
C       0.0064   0.2398   0.5281     C
C       0.0064   0.2883   0.7602     C
C       0.0064   0.4719   0.7117     C
O       0.0087   0.2262    0.688     O
O       0.0087    0.312   0.5382     O
O       0.0087   0.4618   0.7738     O
H       0.0415   0.4845   0.4004     H
H       0.0415   0.5996   0.0841     H
H       0.0415   0.9159   0.5155     H
O        0.116   0.2038    0.533     O
O        0.116   0.3292   0.7962     O
O        0.116    0.467   0.6708     O
C       0.1243   0.4893   0.3782     C
C       0.1243   0.6218   0.1111     C
C       0.1243   0.8889   0.5107     C
C        0.127   0.5129   0.3176     C
C        0.127   0.6824   0.1953     C
C        0.127   0.8047   0.4871     C
O        0.138    0.065    0.571     O
O        0.138    0.429    0.494     O
O        0.138    0.506    0.935     O
C         0.25   0.0256   0.5582     C
U         0.25  0.20197  0.64292     U
O         0.25  0.33333  0.66666     O
U         0.25  0.35708  0.55905     U
U         0.25  0.44095  0.79803     U
C         0.25   0.4418   0.4674     C
C         0.25   0.4724   0.4061     C
C         0.25    0.523   0.2861     C
C         0.25   0.5326   0.9744     C
H         0.25   0.5367   0.2437     H
C         0.25   0.5939   0.0663     C
H         0.25    0.707   0.4633     H
C         0.25   0.7139   0.2369     C
H         0.25   0.7563    0.293     H
C         0.25   0.7631    0.477     C
C         0.25   0.9337   0.5276     C
O        0.362    0.065    0.571     O
O        0.362    0.429    0.494     O
O        0.362    0.506    0.935     O
C        0.373   0.5129   0.3176     C
C        0.373   0.6824   0.1953     C
C        0.373   0.8047   0.4871     C
C       0.3757   0.4893   0.3782     C
C       0.3757   0.6218   0.1111     C
C       0.3757   0.8889   0.5107     C
O        0.384   0.2038    0.533     O
O        0.384   0.3292   0.7962     O
O        0.384    0.467   0.6708     O
H       0.4585   0.4845   0.4004     H
H       0.4585   0.5996   0.0841     H
H       0.4585   0.9159   0.5155     H
O       0.4913   0.2262    0.688     O
O       0.4913    0.312   0.5382     O
O       0.4913   0.4618   0.7738     O
C       0.4936   0.2398   0.5281     C
C       0.4936   0.2883   0.7602     C
C       0.4936   0.4719   0.7117     C
C       0.5064   0.5281   0.2883     C
C       0.5064   0.7117   0.2398     C
C       0.5064   0.7602   0.4719     C
O       0.5087   0.5382   0.2262     O
O       0.5087    0.688   0.4618     O
O       0.5087   0.7738    0.312     O
H       0.5415   0.0841   0.4845     H
H       0.5415   0.4004   0.9159     H
H       0.5415   0.5155   0.5996     H
O        0.616    0.533   0.3292     O
O        0.616   0.6708   0.2038     O
O        0.616   0.7962    0.467     O
C       0.6243   0.1111   0.4893     C
C       0.6243   0.3782   0.8889     C
C       0.6243   0.5107   0.6218     C
C        0.627   0.1953   0.5129     C
C        0.627   0.3176   0.8047     C
C        0.627   0.4871   0.6824     C
O        0.638    0.494    0.065     O
O        0.638    0.571    0.506     O
O        0.638    0.935    0.429     O
C         0.75   0.0663   0.4724     C
C         0.75   0.2369    0.523     C
H         0.75   0.2437    0.707     H
C         0.75   0.2861   0.7631     C
H         0.75    0.293   0.5367     H
C         0.75   0.4061   0.9337     C
H         0.75   0.4633   0.7563     H
C         0.75   0.4674   0.0256     C
C         0.75    0.477   0.7139     C
C         0.75   0.5276   0.5939     C
C         0.75   0.5582   0.5326     C
U         0.75  0.55905  0.20197     U
U         0.75  0.64292  0.44095     U
O         0.75  0.66667  0.33334     O
U         0.75  0.79803  0.35708     U
C         0.75   0.9744   0.4418     C
O        0.862    0.494    0.065     O
O        0.862    0.571    0.506     O
O        0.862    0.935    0.429     O
C        0.873   0.1953   0.5129     C
C        0.873   0.3176   0.8047     C
C        0.873   0.4871   0.6824     C
C       0.8757   0.1111   0.4893     C
C       0.8757   0.3782   0.8889     C
C       0.8757   0.5107   0.6218     C
O        0.884    0.533   0.3292     O
O        0.884   0.6708   0.2038     O
O        0.884   0.7962    0.467     O
H       0.9585   0.0841   0.4845     H
H       0.9585   0.4004   0.9159     H
H       0.9585   0.5155   0.5996     H
O       0.9913   0.5382   0.2262     O
O       0.9913    0.688   0.4618     O
O       0.9913   0.7738    0.312     O
C       0.9936   0.5281   0.2883     C
C       0.9936   0.7117   0.2398     C
C       0.9936   0.7602   0.4719     C
