data_I
_chemical_name_common  '/home/zhangsd/repos/MofS-CGCNN/ML/data/SSD/clean_cifs/NARPUU_clean'
_cell_length_a 10.20500
_cell_length_b 21.21500
_cell_length_c  7.86600
_cell_angle_alpha 90.00000
_cell_angle_beta  98.64200
_cell_angle_gamma 90.00000
_space_group_name_H-M_alt      'P 1'


loop_
_space_group_symop_operation_xyz
  'x, y, z' 

loop_
_atom_site_label
_atom_site_fract_x
_atom_site_fract_y
_atom_site_fract_z
_atom_site_type_symbol
C       0.0306    0.695   0.7333     C
C       0.0306    0.805   0.2333     C
C        0.052   0.1822   0.2486     C
C        0.052   0.3178   0.7486     C
F       0.0688   0.6352   0.7275     F
F       0.0688   0.8648   0.2275     F
C       0.0707   0.6958    0.207     C
C       0.0707   0.8042    0.707     C
F       0.0892   0.1219   0.2426     F
F       0.0892   0.3781   0.7426     F
C       0.0898   0.2083   0.7206     C
C       0.0898   0.2917   0.2206     C
C        0.115   0.7433   0.6951     C
C        0.115   0.7567   0.1951     C
C       0.1352   0.2295   0.2138     C
C       0.1352   0.2705   0.7138     C
F       0.1461   0.6479   0.1641     F
F       0.1461   0.8521   0.6641     F
F       0.1646   0.1611   0.6764     F
F       0.1646   0.3389   0.1764     F
C       0.2485    0.728    0.643     C
C       0.2485    0.772    0.143     C
O       0.2547   0.6897   0.5306     O
O       0.2547   0.8103   0.0306     O
F       0.2678   0.0587   0.5164     F
F       0.2678   0.4413   0.0164     F
C       0.2685   0.2163   0.1598     C
C       0.2685   0.2837   0.6598     C
F       0.2691    0.559   0.8873     F
F       0.2691    0.941   0.3873     F
O       0.2755   0.1842   0.0339     O
O       0.2755   0.3158   0.5339     O
O       0.3494   0.7423    0.217     O
O       0.3494   0.7577    0.717     O
O       0.3703   0.2405   0.2466     O
O       0.3703   0.2595   0.7466     O
C       0.3835   0.0302   0.5072     C
C       0.3835   0.4698   0.0072     C
C       0.3849   0.5299   0.9438     C
C       0.3849   0.9701   0.4438     C
O       0.4872   0.6696   0.9703     O
O       0.4872   0.8304   0.4703     O
O       0.4884   0.1333   0.7914     O
O       0.4884   0.3667   0.2914     O
Nd     0.49075  0.71527   0.4958    Nd
Nd     0.49075  0.78473   0.9958    Nd
C       0.4991   0.0608   0.5698     C
C       0.4991   0.4392   0.0698     C
C          0.5   0.1269   0.6349     C
C          0.5   0.3731   0.1349     C
C          0.5   0.6269   0.8651     C
C          0.5   0.8731   0.3651     C
C       0.5009   0.5608   0.9302     C
C       0.5009   0.9392   0.4302     C
Nd     0.50925  0.21527   0.0042    Nd
Nd     0.50925  0.28473   0.5042    Nd
O       0.5116   0.6333   0.7086     O
O       0.5116   0.8667   0.2086     O
O       0.5128   0.1696   0.5297     O
O       0.5128   0.3304   0.0297     O
C       0.6151   0.0299   0.5562     C
C       0.6151   0.4701   0.0562     C
C       0.6165   0.5302   0.9928     C
C       0.6165   0.9698   0.4928     C
O       0.6297   0.7405   0.2534     O
O       0.6297   0.7595   0.7534     O
O       0.6506   0.2423    0.283     O
O       0.6506   0.2577    0.783     O
O       0.7245   0.6842   0.4661     O
O       0.7245   0.8158   0.9661     O
F       0.7309    0.059   0.6127     F
F       0.7309    0.441   0.1127     F
C       0.7315   0.7163   0.3402     C
C       0.7315   0.7837   0.8402     C
F       0.7322   0.5587   0.9836     F
F       0.7322   0.9413   0.4836     F
O       0.7453   0.1897   0.9694     O
O       0.7453   0.3103   0.4694     O
C       0.7515    0.228    0.857     C
C       0.7515    0.272    0.357     C
F       0.8354   0.6611   0.8236     F
F       0.8354   0.8389   0.3236     F
F       0.8539   0.1479   0.3359     F
F       0.8539   0.3521   0.8359     F
C       0.8648   0.7295   0.2862     C
C       0.8648   0.7705   0.7862     C
C        0.885   0.2433   0.8049     C
C        0.885   0.2567   0.3049     C
C       0.9102   0.7083   0.7794     C
C       0.9102   0.7917   0.2794     C
F       0.9108   0.6219   0.2574     F
F       0.9108   0.8781   0.7574     F
C       0.9293   0.1958    0.293     C
C       0.9293   0.3042    0.793     C
F       0.9312   0.1352   0.7725     F
F       0.9312   0.3648   0.2725     F
C        0.948   0.6822   0.2514     C
C        0.948   0.8178   0.7514     C
C       0.9694    0.195   0.7667     C
C       0.9694    0.305   0.2667     C
