data_I
_chemical_name_common  '/home/zhangsd/repos/MofS-CGCNN/ML/data/SSD/clean_cifs/NASRIL_clean'
_cell_length_a 14.94360
_cell_length_b 28.44610
_cell_length_c 10.74070
_cell_angle_alpha 90.00000
_cell_angle_beta  90.00000
_cell_angle_gamma 90.00000
_space_group_name_H-M_alt      'P 1'


loop_
_space_group_symop_operation_xyz
  'x, y, z' 

loop_
_atom_site_label
_atom_site_fract_x
_atom_site_fract_y
_atom_site_fract_z
_atom_site_type_symbol
Cu         0.0   0.0329  0.58893    Cu
Cu         0.0   0.4671  0.58893    Cu
Cu         0.0   0.5329  0.41107    Cu
Cu         0.0   0.9671  0.41107    Cu
H       0.0779   0.1915   0.1212     H
H       0.0779   0.3085   0.1212     H
H       0.0779   0.6915   0.8788     H
H       0.0779   0.8085   0.8788     H
O       0.0903  0.06516   0.4924     O
O       0.0903  0.43484   0.4924     O
O       0.0903  0.56516   0.5076     O
O       0.0903  0.93484   0.5076     O
O       0.0927  0.00949    0.348     O
O       0.0927  0.49051    0.348     O
O       0.0927  0.50949    0.652     O
O       0.0927  0.99051    0.652     O
C       0.1173   0.0474   0.3915     C
C       0.1173   0.4526   0.3915     C
C       0.1173   0.5474   0.6085     C
C       0.1173   0.9526   0.6085     C
H       0.1243   0.2175   0.0058     H
H       0.1243   0.2825   0.0058     H
H       0.1243   0.7175   0.9942     H
H       0.1243   0.7825   0.9942     H
C        0.135   0.1983   0.0801     C
C        0.135   0.3017   0.0801     C
C        0.135   0.6983   0.9199     C
C        0.135   0.8017   0.9199     C
H       0.1472   0.1396   0.3731     H
H       0.1472   0.3604   0.3731     H
H       0.1472   0.6396   0.6269     H
H       0.1472   0.8604   0.6269     H
H       0.1638   0.1688   0.0559     H
H       0.1638   0.3312   0.0559     H
H       0.1638   0.6688   0.9441     H
H       0.1638   0.8312   0.9441     H
C        0.187   0.0745   0.3207     C
C        0.187   0.4255   0.3207     C
C        0.187   0.5745   0.6793     C
C        0.187   0.9255   0.6793     C
C       0.1885    0.123   0.3222     C
C       0.1885    0.377   0.3222     C
C       0.1885    0.623   0.6778     C
C       0.1885    0.877   0.6778     C
C       0.1956    0.225   0.1694     C
C       0.1956    0.275   0.1694     C
C       0.1956    0.725   0.8306     C
C       0.1956    0.775   0.8306     C
H         0.25   0.0179     0.25     H
C         0.25   0.0513     0.25     C
C         0.25   0.1482     0.25     C
C         0.25   0.2008     0.25     C
C         0.25   0.2992     0.25     C
C         0.25   0.3518     0.25     C
C         0.25   0.4487     0.25     C
H         0.25   0.4821     0.25     H
H         0.25   0.5179     0.75     H
C         0.25   0.5513     0.75     C
C         0.25   0.6482     0.75     C
C         0.25   0.7008     0.75     C
C         0.25   0.7992     0.75     C
C         0.25   0.8518     0.75     C
C         0.25   0.9487     0.75     C
H         0.25   0.9821     0.75     H
C       0.3044    0.225   0.3306     C
C       0.3044    0.275   0.3306     C
C       0.3044    0.725   0.6694     C
C       0.3044    0.775   0.6694     C
C       0.3115    0.123   0.1778     C
C       0.3115    0.377   0.1778     C
C       0.3115    0.623   0.8222     C
C       0.3115    0.877   0.8222     C
C        0.313   0.0745   0.1793     C
C        0.313   0.4255   0.1793     C
C        0.313   0.5745   0.8207     C
C        0.313   0.9255   0.8207     C
H       0.3362   0.1688   0.4441     H
H       0.3362   0.3312   0.4441     H
H       0.3362   0.6688   0.5559     H
H       0.3362   0.8312   0.5559     H
H       0.3528   0.1396   0.1269     H
H       0.3528   0.3604   0.1269     H
H       0.3528   0.6396   0.8731     H
H       0.3528   0.8604   0.8731     H
C        0.365   0.1983   0.4199     C
C        0.365   0.3017   0.4199     C
C        0.365   0.6983   0.5801     C
C        0.365   0.8017   0.5801     C
H       0.3757   0.2175   0.4942     H
H       0.3757   0.2825   0.4942     H
H       0.3757   0.7175   0.5058     H
H       0.3757   0.7825   0.5058     H
C       0.3827   0.0474   0.1085     C
C       0.3827   0.4526   0.1085     C
C       0.3827   0.5474   0.8915     C
C       0.3827   0.9526   0.8915     C
O       0.4073  0.00949    0.152     O
O       0.4073  0.49051    0.152     O
O       0.4073  0.50949    0.848     O
O       0.4073  0.99051    0.848     O
O       0.4097  0.06516   0.0076     O
O       0.4097  0.43484   0.0076     O
O       0.4097  0.56516   0.9924     O
O       0.4097  0.93484   0.9924     O
H       0.4221   0.1915   0.3788     H
H       0.4221   0.3085   0.3788     H
H       0.4221   0.6915   0.6212     H
H       0.4221   0.8085   0.6212     H
Cu         0.5   0.0329  0.91107    Cu
Cu         0.5   0.4671  0.91107    Cu
Cu         0.5   0.5329  0.08893    Cu
Cu         0.5   0.9671  0.08893    Cu
H       0.5779   0.1915   0.3788     H
H       0.5779   0.3085   0.3788     H
H       0.5779   0.6915   0.6212     H
H       0.5779   0.8085   0.6212     H
O       0.5903  0.06516   0.0076     O
O       0.5903  0.43484   0.0076     O
O       0.5903  0.56516   0.9924     O
O       0.5903  0.93484   0.9924     O
O       0.5927  0.00949    0.152     O
O       0.5927  0.49051    0.152     O
O       0.5927  0.50949    0.848     O
O       0.5927  0.99051    0.848     O
C       0.6173   0.0474   0.1085     C
C       0.6173   0.4526   0.1085     C
C       0.6173   0.5474   0.8915     C
C       0.6173   0.9526   0.8915     C
H       0.6243   0.2175   0.4942     H
H       0.6243   0.2825   0.4942     H
H       0.6243   0.7175   0.5058     H
H       0.6243   0.7825   0.5058     H
C        0.635   0.1983   0.4199     C
C        0.635   0.3017   0.4199     C
C        0.635   0.6983   0.5801     C
C        0.635   0.8017   0.5801     C
H       0.6472   0.1396   0.1269     H
H       0.6472   0.3604   0.1269     H
H       0.6472   0.6396   0.8731     H
H       0.6472   0.8604   0.8731     H
H       0.6638   0.1688   0.4441     H
H       0.6638   0.3312   0.4441     H
H       0.6638   0.6688   0.5559     H
H       0.6638   0.8312   0.5559     H
C        0.687   0.0745   0.1793     C
C        0.687   0.4255   0.1793     C
C        0.687   0.5745   0.8207     C
C        0.687   0.9255   0.8207     C
C       0.6885    0.123   0.1778     C
C       0.6885    0.377   0.1778     C
C       0.6885    0.623   0.8222     C
C       0.6885    0.877   0.8222     C
C       0.6956    0.225   0.3306     C
C       0.6956    0.275   0.3306     C
C       0.6956    0.725   0.6694     C
C       0.6956    0.775   0.6694     C
H         0.75   0.0179     0.25     H
C         0.75   0.0513     0.25     C
C         0.75   0.1482     0.25     C
C         0.75   0.2008     0.25     C
C         0.75   0.2992     0.25     C
C         0.75   0.3518     0.25     C
C         0.75   0.4487     0.25     C
H         0.75   0.4821     0.25     H
H         0.75   0.5179     0.75     H
C         0.75   0.5513     0.75     C
C         0.75   0.6482     0.75     C
C         0.75   0.7008     0.75     C
C         0.75   0.7992     0.75     C
C         0.75   0.8518     0.75     C
C         0.75   0.9487     0.75     C
H         0.75   0.9821     0.75     H
C       0.8044    0.225   0.1694     C
C       0.8044    0.275   0.1694     C
C       0.8044    0.725   0.8306     C
C       0.8044    0.775   0.8306     C
C       0.8115    0.123   0.3222     C
C       0.8115    0.377   0.3222     C
C       0.8115    0.623   0.6778     C
C       0.8115    0.877   0.6778     C
C        0.813   0.0745   0.3207     C
C        0.813   0.4255   0.3207     C
C        0.813   0.5745   0.6793     C
C        0.813   0.9255   0.6793     C
H       0.8362   0.1688   0.0559     H
H       0.8362   0.3312   0.0559     H
H       0.8362   0.6688   0.9441     H
H       0.8362   0.8312   0.9441     H
H       0.8528   0.1396   0.3731     H
H       0.8528   0.3604   0.3731     H
H       0.8528   0.6396   0.6269     H
H       0.8528   0.8604   0.6269     H
C        0.865   0.1983   0.0801     C
C        0.865   0.3017   0.0801     C
C        0.865   0.6983   0.9199     C
C        0.865   0.8017   0.9199     C
H       0.8757   0.2175   0.0058     H
H       0.8757   0.2825   0.0058     H
H       0.8757   0.7175   0.9942     H
H       0.8757   0.7825   0.9942     H
C       0.8827   0.0474   0.3915     C
C       0.8827   0.4526   0.3915     C
C       0.8827   0.5474   0.6085     C
C       0.8827   0.9526   0.6085     C
O       0.9073  0.00949    0.348     O
O       0.9073  0.49051    0.348     O
O       0.9073  0.50949    0.652     O
O       0.9073  0.99051    0.652     O
O       0.9097  0.06516   0.4924     O
O       0.9097  0.43484   0.4924     O
O       0.9097  0.56516   0.5076     O
O       0.9097  0.93484   0.5076     O
H       0.9221   0.1915   0.1212     H
H       0.9221   0.3085   0.1212     H
H       0.9221   0.6915   0.8788     H
H       0.9221   0.8085   0.8788     H
