data_I
_chemical_name_common  '/home/zhangsd/repos/MofS-CGCNN/ML/data/SSD/clean_cifs/NATKIF_clean'
_cell_length_a 22.80500
_cell_length_b 22.80500
_cell_length_c 44.07270
_cell_angle_alpha 90.00000
_cell_angle_beta  90.00000
_cell_angle_gamma 90.00000
_space_group_name_H-M_alt      'P 1'


loop_
_space_group_symop_operation_xyz
  'x, y, z' 

loop_
_atom_site_label
_atom_site_fract_x
_atom_site_fract_y
_atom_site_fract_z
_atom_site_type_symbol
C          0.0      0.5   0.3899     C
C          0.0      0.5   0.8899     C
C       0.0002   0.8072   0.2355     C
C       0.0011   0.1971  0.04027     C
H      0.00647  0.28979  0.28304     H
H      0.00723  0.29362    9e-05     H
C       0.0078   0.3854  0.32625     C
C       0.0087   0.1535   0.2131     C
C       0.0095   0.3809  0.95187     C
C        0.013   0.1576  0.06457     C
Cu     0.01549  0.05582  0.86105    Cu
C       0.0171   0.5517  0.91017     C
C       0.0185   0.5499  0.36772     C
C       0.0198   0.9249   0.0983     C
C       0.0208   0.4291  0.93214     C
C       0.0213   0.4273  0.34542     C
C       0.0227   0.9246  0.17978     C
C       0.0299   0.7169  0.99332     C
C       0.0304    0.881  0.07431     C
H       0.0309  0.22117  0.03302     H
H      0.03115  0.21515  0.24252     H
O       0.0322   0.0704  0.16996     O
O       0.0329   0.0703  0.10794     O
C       0.0335   0.7153   0.2863     C
C       0.0348   0.8785  0.20293     C
H       0.0356  0.37218  0.31241     H
H      0.03775   0.3661  0.96501     H
O      0.04305   0.9387  0.89259     O
O       0.0445   0.9347  0.82993     O
H        0.046    0.149  0.20489     H
C       0.0477   0.6393  0.32654     C
C       0.0484   0.6432   0.9501     C
H      0.04963   0.1575  0.07385     H
C       0.0499   0.4815  0.86772     C
H      0.05125  0.55631  0.43431     H
C       0.0517   0.4829  0.41017     C
C       0.0521   0.7997   0.2476     C
Cu     0.05582  0.01549  0.13895    Cu
C        0.056   0.7994   0.0269     C
H      0.05631  0.44875  0.93431     H
H      0.05687  0.55882   0.8445     H
H      0.05882  0.44313   0.3445     H
H      0.05948  0.39767  0.88023     H
C       0.0597   0.6945    0.971     C
O       0.0613  0.95695  0.10741     O
H      0.06272  0.40075  0.39729     H
N       0.0648   0.7577  0.00407     N
O       0.0653   0.9555  0.17007     O
C       0.0669   0.6845   0.3067     C
N       0.0681   0.7544   0.2716     N
O       0.0703   0.0329  0.89206     O
O       0.0704   0.0322  0.83004     O
C       0.0709   0.5208  0.43214     C
C       0.0713   0.5766  0.91087     C
C       0.0727   0.5213  0.84542     C
C       0.0734   0.5744   0.3675     C
C       0.0744   0.4266   0.8675     C
C       0.0751   0.9802   0.9017     C
C       0.0754   0.9773  0.82022     C
C       0.0766   0.4287  0.41087     C
C       0.0852   0.8782  0.06223     C
C       0.0863   0.6223   0.3481     C
C       0.0876   0.6209  0.93019     C
C       0.0901   0.8716   0.2153     C
C       0.0963    0.838  0.03865     C
H      0.09757  0.88512  0.93059     H
H      0.09925  0.56272  0.89729     H
C       0.1007    0.832   0.2382     C
H      0.10233  0.55948  0.38023     H
H      0.10578  0.87914  0.79206     H
N       0.1085   0.7243   0.9675     N
N       0.1096   0.7663   0.9867     N
C       0.1146   0.5078  0.82625     C
H      0.11488  0.90243  0.06941     H
N       0.1186    0.711    0.306     N
C        0.119   0.9696  0.92569     C
C       0.1191   0.5095  0.45187     C
H      0.12086  0.89422  0.20794     H
C       0.1209   0.4124  0.43019     C
C       0.1215   0.9652  0.79707     C
H      0.12166  0.64219  0.35018     H
C       0.1218   0.9148  0.93777     C
C       0.1223   0.4137   0.8481     C
N       0.1234   0.7523   0.2859     N
H      0.12565  0.63552  0.92959     H
H      0.12782   0.5356  0.81241     H
C       0.1284   0.9099   0.7847     C
H      0.13384  0.83747  0.03044     H
H       0.1339  0.53775  0.46501     H
H      0.13552  0.37435  0.42959     H
H      0.13768  0.82719  0.24672     H
C       0.1393   0.4523  0.82654     C
H      0.14219  0.37834  0.85018     H
C       0.1432   0.4516   0.4501     C
H        0.149    0.046  0.79511     H
C       0.1535   0.0087   0.7869     C
H       0.1575  0.04963  0.92615     H
C       0.1576    0.013  0.93543     C
C        0.162   0.9037  0.96135     C
H      0.16253  0.86616  0.96956     H
C        0.168   0.8993   0.7618     C
H      0.17281  0.86232  0.75328     H
C       0.1845   0.4331   0.8067     C
C       0.1928   0.9998   0.7645     C
C       0.1945   0.4403    0.471     C
C       0.1971   0.0011  0.95973     C
C       0.2003   0.9479   0.7524     C
C       0.2006    0.944   0.9731     C
H      0.20638  0.50723  0.50009     H
H      0.21021  0.50647  0.78304     H
N        0.211   0.3814    0.806     N
H      0.21515  0.03115  0.75748     H
C       0.2153   0.4665   0.7863     C
C       0.2169   0.4701  0.49332     C
H      0.22117   0.0309  0.96698     H
N       0.2243   0.3915   0.4675     N
N       0.2337   0.8904   0.0133     N
N       0.2423   0.9352  0.99593     N
N       0.2456   0.9319   0.7284     N
N       0.2477   0.8766   0.7141     N
N       0.2523   0.3766   0.7859     N
N       0.2544   0.4319   0.7716     N
N       0.2577   0.4352  0.50407     N
N       0.2663   0.3904   0.4867     N
N       0.2757   0.8915   0.0325     N
H      0.27883   0.5309  0.53302     H
C       0.2831   0.9701  0.00668     C
C       0.2847   0.9665   0.7137     C
H      0.28485  0.53115  0.74252     H
N        0.289   0.8814    0.694     N
H      0.28979  0.00647  0.71696     H
H      0.29362  0.00723  0.99991     H
C       0.2994    0.444   0.5269     C
C       0.2997   0.4479   0.7476     C
C       0.3029   0.5011  0.54027     C
C       0.3055   0.9403    0.029     C
C       0.3072   0.4998   0.7355     C
C       0.3155   0.9331   0.6933     C
H      0.32719  0.36232  0.74672     H
C        0.332   0.3993   0.7382     C
H      0.33747  0.36616  0.53044     H
C        0.338   0.4037  0.53865     C
C       0.3424    0.513  0.56457     C
H       0.3425  0.54963  0.57385     H
C       0.3465   0.5087   0.7131     C
H        0.351    0.546  0.70489     H
C       0.3568   0.9516   0.0499     C
H      0.35781  0.87834  0.64982     H
C       0.3607   0.9523  0.67346     C
H      0.36232  0.32719  0.25328     H
H      0.36448  0.87435  0.07041     H
H       0.3661  0.03775  0.03499     H
H      0.36616  0.33747  0.46956     H
C       0.3716   0.4099   0.7153     C
H      0.37218   0.0356  0.68759     H
H      0.37435  0.13552  0.57041     H
N       0.3766   0.2523   0.2141     N
C       0.3777   0.9137   0.6519     C
C       0.3782   0.4148  0.56223     C
H      0.37834  0.14219  0.14982     H
C       0.3785   0.4652  0.70293     C
C       0.3791   0.9124  0.06981     C
H      0.37914  0.39422  0.29206     H
C       0.3809   0.0095  0.04813     C
C        0.381   0.4696  0.57431     C
N       0.3814    0.211    0.194     N
H      0.38512  0.40243  0.43059     H
C       0.3854   0.0078  0.67375     C
N       0.3904   0.2663   0.5133     N
N       0.3915   0.2243   0.5325     N
H      0.39422  0.37914  0.70794     H
H      0.39767  0.05948  0.11977     H
C       0.3993    0.332   0.2618     C
H      0.40075  0.06272  0.60271     H
H      0.40243  0.38512  0.56941     H
C       0.4037    0.338  0.46135     C
C       0.4099   0.3716   0.2847     C
C       0.4124   0.1209  0.56981     C
C       0.4137   0.1223   0.1519     C
C       0.4148   0.3782  0.43777     C
C       0.4234   0.9287  0.08913     C
C       0.4246   0.4773  0.67978     C
C       0.4249   0.4802   0.5983     C
C       0.4256   0.9266   0.6325     C
C       0.4266   0.0744   0.1325     C
C       0.4273   0.0213  0.65458     C
C       0.4287   0.0766  0.58913     C
C       0.4291   0.0208  0.06786     C
O       0.4296   0.5322  0.66996     O
O       0.4297   0.5329  0.60794     O
N       0.4319   0.2544   0.2284     N
C       0.4331   0.1845   0.1933     C
O       0.4347   0.4555  0.32993     O
N       0.4352   0.2577  0.49593     N
H      0.43728  0.90075  0.10271     H
O       0.4387  0.45695  0.39259     O
C       0.4403   0.1945    0.529     C
H      0.44052  0.89767  0.61977     H
H      0.44118  0.94313   0.1555     H
H      0.44313  0.05882   0.6555     H
H      0.44369  0.94875  0.56569     H
C        0.444   0.2994   0.4731     C
Cu     0.44418  0.51549  0.36105    Cu
C       0.4479   0.2997   0.2524     C
C       0.4483   0.9829  0.08983     C
H      0.44875  0.05631  0.06569     H
C       0.4501   0.9815  0.63228     C
H      0.45037   0.6575  0.42615     H
C       0.4516   0.1432   0.5499     C
C       0.4523   0.1393  0.17346     C
H        0.454    0.649  0.29511     H
O       0.4555   0.4347  0.67007     O
O      0.45695   0.4387  0.60741     O
H      0.46225   0.8661  0.53499     H
H       0.4644  0.87218  0.18759     H
C       0.4652   0.3785  0.29707     C
C       0.4665   0.2153   0.2137     C
O       0.4671   0.5703  0.39206     O
O       0.4678   0.5704  0.33004     O
H      0.46885  0.71515  0.25748     H
H       0.4691  0.72117  0.46698     H
C       0.4696    0.381  0.42569     C
C       0.4701   0.2169  0.50668     C
C       0.4773   0.4246  0.32022     C
C       0.4787   0.9273  0.15458     C
C       0.4792   0.9291  0.56786     C
C       0.4802   0.4249   0.4017     C
C       0.4815   0.0499  0.13228     C
C       0.4829   0.0517  0.58983     C
Cu     0.48451  0.55582  0.63895    Cu
C        0.487   0.6576  0.43543     C
C       0.4905   0.8809  0.54813     C
C       0.4913   0.6535   0.2869     C
C       0.4922   0.8854  0.17375     C
H      0.49277  0.79362  0.49991     H
H      0.49353  0.78979  0.21696     H
C       0.4989   0.6971  0.45973     C
C       0.4998   0.3072   0.2645     C
C          0.5      0.0   0.1101     C
C          0.5      0.0   0.6101     C
C       0.5002   0.6928   0.2645     C
C       0.5011   0.3029  0.45973     C
H      0.50647  0.21021  0.21696     H
H      0.50723  0.20638  0.49991     H
C       0.5078   0.1146  0.17375     C
C       0.5087   0.3465   0.2869     C
C       0.5095   0.1191  0.54813     C
C        0.513   0.3424  0.43543     C
Cu     0.51549  0.44418  0.63895    Cu
C       0.5171   0.9483  0.58983     C
C       0.5185   0.9501  0.13228     C
C       0.5198   0.5751   0.4017     C
C       0.5208   0.0709  0.56786     C
C       0.5213   0.0727  0.15458     C
C       0.5227   0.5754  0.32022     C
C       0.5299   0.7831  0.50668     C
C       0.5304    0.619  0.42569     C
H       0.5309  0.27883  0.46698     H
H      0.53115  0.28485  0.25748     H
O       0.5322   0.4296  0.33004     O
O       0.5329   0.4297  0.39206     O
C       0.5335   0.7847   0.2137     C
C       0.5348   0.6215  0.29707     C
H       0.5356  0.12782  0.18759     H
H      0.53775   0.1339  0.53499     H
O      0.54305   0.5613  0.60741     O
O       0.5445   0.5653  0.67007     O
H        0.546    0.351  0.29511     H
C       0.5477   0.8607  0.17346     C
C       0.5484   0.8568   0.5499     C
H      0.54963   0.3425  0.42615     H
C       0.5499   0.0185  0.63228     C
H      0.55125  0.94369  0.06569     H
C       0.5517   0.0171  0.08983     C
C       0.5521   0.7003   0.2524     C
Cu     0.55582  0.48451  0.36105    Cu
C        0.556   0.7006   0.4731     C
H      0.55631  0.05125  0.56569     H
H      0.55687  0.94118   0.6555     H
H      0.55882  0.05687   0.1555     H
H      0.55948  0.10233  0.61977     H
C       0.5597   0.8055    0.529     C
O       0.5613  0.54305  0.39259     O
H      0.56272  0.09925  0.10271     H
N       0.5648   0.7423  0.49593     N
O       0.5653   0.5445  0.32993     O
C       0.5669   0.8155   0.1933     C
N       0.5681   0.7456   0.2284     N
O       0.5703   0.4671  0.60794     O
O       0.5704   0.4678  0.66996     O
C       0.5709   0.9792  0.06786     C
C       0.5713   0.9234  0.58913     C
C       0.5727   0.9787  0.65458     C
C       0.5734   0.9256   0.1325     C
C       0.5744   0.0734   0.6325     C
C       0.5751   0.5198   0.5983     C
C       0.5754   0.5227  0.67978     C
C       0.5766   0.0713  0.08913     C
C       0.5852   0.6218  0.43777     C
C       0.5863   0.8777   0.1519     C
C       0.5876   0.8791  0.56981     C
C       0.5901   0.6284   0.2847     C
C       0.5963    0.662  0.46135     C
H      0.59757  0.61488  0.56941     H
H      0.59925  0.93728  0.60271     H
C       0.6007    0.668   0.2618     C
H      0.60233  0.94052  0.11977     H
H      0.60578  0.62086  0.70794     H
N       0.6085   0.7757   0.5325     N
N       0.6096   0.7337   0.5133     N
C       0.6146   0.9922  0.67375     C
H      0.61488  0.59757  0.43059     H
N       0.6186    0.789    0.194     N
C        0.619   0.5304  0.57431     C
C       0.6191   0.9905  0.04813     C
H      0.62086  0.60578  0.29206     H
C       0.6209   0.0876  0.06981     C
C       0.6215   0.5348  0.70293     C
H      0.62166  0.85781  0.14982     H
C       0.6218   0.5852  0.56223     C
C       0.6223   0.0863   0.6519     C
N       0.6234   0.7477   0.2141     N
H      0.62565  0.86448  0.57041     H
H      0.62782   0.9644  0.68759     H
C       0.6284   0.5901   0.7153     C
H      0.63384  0.66253  0.46956     H
H       0.6339  0.96225  0.03499     H
H      0.63552  0.12565  0.07041     H
H      0.63768  0.67281  0.25328     H
C       0.6393   0.0477  0.67346     C
H      0.64219  0.12166  0.64982     H
C       0.6432   0.0484   0.0499     C
H        0.649    0.454  0.70489     H
C       0.6535   0.4913   0.7131     C
H       0.6575  0.45037  0.57385     H
C       0.6576    0.487  0.56457     C
C        0.662   0.5963  0.53865     C
H      0.66253  0.63384  0.53044     H
C        0.668   0.6007   0.7382     C
H      0.67281  0.63768  0.74672     H
C       0.6845   0.0669   0.6933     C
C       0.6928   0.5002   0.7355     C
C       0.6945   0.0597    0.029     C
C       0.6971   0.4989  0.54027     C
C       0.7003   0.5521   0.7476     C
C       0.7006    0.556   0.5269     C
H      0.70638  0.99277  0.99991     H
H      0.71021  0.99353  0.71696     H
N        0.711   0.1186    0.694     N
H      0.71515  0.46885  0.74252     H
C       0.7153   0.0335   0.7137     C
C       0.7169   0.0299  0.00668     C
H      0.72117   0.4691  0.53302     H
N       0.7243   0.1085   0.0325     N
N       0.7337   0.6096   0.4867     N
N       0.7423   0.5648  0.50407     N
N       0.7456   0.5681   0.7716     N
N       0.7477   0.6234   0.7859     N
N       0.7523   0.1234   0.7141     N
N       0.7544   0.0681   0.7284     N
N       0.7577   0.0648  0.99593     N
N       0.7663   0.1096   0.0133     N
N       0.7757   0.6085   0.4675     N
H      0.77883   0.9691  0.96698     H
C       0.7831   0.5299  0.49332     C
C       0.7847   0.5335   0.7863     C
H      0.78485  0.96885  0.75748     H
N        0.789   0.6186    0.806     N
H      0.78979  0.49353  0.78304     H
H      0.79362  0.49277  0.50009     H
C       0.7994    0.056   0.9731     C
C       0.7997   0.0521   0.7524     C
C       0.8029   0.9989  0.95973     C
C       0.8055   0.5597    0.471     C
C       0.8072   0.0002   0.7645     C
C       0.8155   0.5669   0.8067     C
H      0.82719  0.13768  0.75328     H
C        0.832   0.1007   0.7618     C
H      0.83747  0.13384  0.96956     H
C        0.838   0.0963  0.96135     C
C       0.8424    0.987  0.93543     C
H       0.8425  0.95037  0.92615     H
C       0.8465   0.9913   0.7869     C
H        0.851    0.954  0.79511     H
C       0.8568   0.5484   0.4501     C
H      0.85781  0.62166  0.85018     H
C       0.8607   0.5477  0.82654     C
H      0.86232  0.17281  0.24672     H
H      0.86448  0.62565  0.42959     H
H       0.8661  0.46225  0.46501     H
H      0.86616  0.16253  0.03044     H
C       0.8716   0.0901   0.7847     C
H      0.87218   0.4644  0.81241     H
H      0.87435  0.36448  0.92959     H
N       0.8766   0.2477   0.2859     N
C       0.8777   0.5863   0.8481     C
C       0.8782   0.0852  0.93777     C
H      0.87834  0.35781  0.35018     H
C       0.8785   0.0348  0.79707     C
C       0.8791   0.5876  0.43019     C
H      0.87914  0.10578  0.20794     H
C       0.8809   0.4905  0.45187     C
C        0.881   0.0304  0.92569     C
N       0.8814    0.289    0.306     N
H      0.88512  0.09757  0.06941     H
C       0.8854   0.4922  0.82625     C
N       0.8904   0.2337   0.9867     N
N       0.8915   0.2757   0.9675     N
H      0.89422  0.12086  0.79206     H
H      0.89767  0.44052  0.38023     H
C       0.8993    0.168   0.2382     C
H      0.90075  0.43728  0.89729     H
H      0.90243  0.11488  0.93059     H
C       0.9037    0.162  0.03865     C
C       0.9099   0.1284   0.2153     C
C       0.9124   0.3791  0.93019     C
C       0.9137   0.3777   0.3481     C
C       0.9148   0.1218  0.06223     C
C       0.9234   0.5713  0.41087     C
C       0.9246   0.0227  0.82022     C
C       0.9249   0.0198   0.9017     C
C       0.9256   0.5734   0.8675     C
C       0.9266   0.4256   0.3675     C
C       0.9273   0.4787  0.84542     C
C       0.9287   0.4234  0.91087     C
C       0.9291   0.4792  0.43214     C
O       0.9296   0.9678  0.83004     O
O       0.9297   0.9671  0.89206     O
N       0.9319   0.2456   0.2716     N
C       0.9331   0.3155   0.3067     C
O       0.9347   0.0445  0.17007     O
N       0.9352   0.2423  0.00407     N
H      0.93728  0.59925  0.39729     H
O       0.9387  0.04305  0.10741     O
C       0.9403   0.3055    0.971     C
H      0.94052  0.60233  0.88023     H
H      0.94118  0.55687   0.3445     H
H      0.94313  0.44118   0.8445     H
H      0.94369  0.55125  0.93431     H
C        0.944   0.2006   0.0269     C
Cu     0.94418  0.98451  0.13895    Cu
C       0.9479   0.2003   0.2476     C
C       0.9483   0.5171  0.41017     C
H      0.94875  0.44369  0.43431     H
C       0.9501   0.5185  0.86772     C
H      0.95037   0.8425  0.07385     H
C       0.9516   0.3568   0.9501     C
C       0.9523   0.3607  0.32654     C
H        0.954    0.851  0.20489     H
O       0.9555   0.0653  0.82993     O
O      0.95695   0.0613  0.89259     O
H      0.96225   0.6339  0.96501     H
H       0.9644  0.62782  0.31241     H
C       0.9652   0.1215  0.20293     C
C       0.9665   0.2847   0.2863     C
O       0.9671   0.9297  0.10794     O
O       0.9678   0.9296  0.16996     O
H      0.96885  0.78485  0.24252     H
H       0.9691  0.77883  0.03302     H
C       0.9696    0.119  0.07431     C
C       0.9701   0.2831  0.99332     C
C       0.9773   0.0754  0.17978     C
C       0.9787   0.5727  0.34542     C
C       0.9792   0.5709  0.93214     C
C       0.9802   0.0751   0.0983     C
C       0.9815   0.4501  0.36772     C
C       0.9829   0.4483  0.91017     C
Cu     0.98451  0.94418  0.86105    Cu
C        0.987   0.8424  0.06457     C
C       0.9905   0.6191  0.95187     C
C       0.9913   0.8465   0.2131     C
C       0.9922   0.6146  0.32625     C
H      0.99277  0.70638    9e-05     H
H      0.99353  0.71021  0.28304     H
C       0.9989   0.8029  0.04027     C
C       0.9998   0.1928   0.2355     C
