data_I
_chemical_name_common  '/home/zhangsd/repos/MofS-CGCNN/ML/data/SSD/clean_cifs/NATKOL_clean'
_cell_length_a 16.06040
_cell_length_b 16.06040
_cell_length_c 44.11700
_cell_angle_alpha 90.00000
_cell_angle_beta  90.00000
_cell_angle_gamma 90.00000
_space_group_name_H-M_alt      'P 1'


loop_
_space_group_symop_operation_xyz
  'x, y, z' 

loop_
_atom_site_label
_atom_site_fract_x
_atom_site_fract_y
_atom_site_fract_z
_atom_site_type_symbol
C          0.0      0.5  0.46021     C
C          0.0      0.5  0.96021     C
H      0.00195  0.25921  0.35047     H
H      0.00369  0.40749  0.40952     H
H      0.00663  0.41195  0.01034     H
H      0.01208  0.66755   0.4595     H
O       0.0144   0.6103  0.31959     O
H       0.0161  0.67125  0.96106     H
H      0.01631  0.71908  0.22022     H
C       0.0165   0.3444   0.9446     C
O         0.02   0.6056  0.25694     O
C       0.0203    0.348  0.47603     C
H      0.02686  0.20298  0.17842     H
C        0.033    0.431  0.93915     C
O       0.0334   0.6017   0.8226     O
C       0.0341   0.4302  0.48094     C
C       0.0363   0.2898  0.21204     C
H      0.03817  0.22772  0.92935     H
H      0.04148  0.23066  0.49025     H
Cu     0.04158  0.42949  0.78965    Cu
O       0.0421   0.6052  0.75959     O
C       0.0488   0.2749  0.36144     C
C       0.0491   0.2836  0.92546     C
C       0.0493   0.5805  0.00565     C
C       0.0517   0.5807  0.41391     C
C       0.0524   0.2863  0.49454     C
H      0.05285  0.17508  0.38765     H
C       0.0539   0.4059  0.24886     C
C       0.0566    0.406  0.33013     C
C       0.0621   0.2416  0.18748     C
C        0.069    0.533  0.43915     C
C       0.0698   0.5341  0.98094     C
Cu     0.07051  0.54158  0.28965    Cu
H      0.07427  0.68352  0.86709     H
C       0.0782   0.2261  0.38387     C
C       0.0805   0.4507  0.50565     C
C       0.0807   0.4483  0.91391     C
C       0.0857   0.3493  0.22429     C
H      0.08805  0.50663  0.51034     H
C       0.0901   0.3497  0.35492     C
H      0.09251  0.50369  0.90952     H
H      0.09354  0.65259  0.03977     H
C        0.094   0.5566  0.83013     C
C       0.0941   0.5539  0.74886     C
H      0.09565  0.64233   0.3782     H
C       0.0981   0.3056  0.90033     C
C       0.1003   0.3067  0.51919     C
O       0.1017   0.4666   0.3226     O
O       0.1052   0.4579  0.25959     O
O       0.1056     0.48  0.75694     O
H      0.10595  0.70266   0.7228     H
N       0.1061   0.1611  0.53915     N
C       0.1094   0.6171  0.02416     C
O       0.1103   0.4856  0.81959     O
C       0.1115   0.3884  0.89507     C
C       0.1116   0.6115  0.39507     C
C       0.1171   0.3906  0.52416     C
N       0.1178   0.1451  0.43961     N
N       0.1182   0.1604   0.1354     N
N       0.1237   0.1618   0.8858     N
C       0.1242   0.6568  0.87145     C
C       0.1329    0.243  0.53971     C
C       0.1344   0.2409  0.88081     C
H      0.14233  0.40435   0.8782     H
C       0.1434   0.6664   0.7136     C
C       0.1437    0.254  0.17706     C
C       0.1445     0.25  0.40113     C
N       0.1451   0.1178  0.56039     N
C       0.1503   0.5901  0.85492     C
C       0.1507   0.5857  0.72429     C
C        0.152   0.5203  0.97603     C
H      0.15259  0.40646  0.53977     H
C       0.1556   0.5165   0.4446     C
C       0.1568   0.3758  0.37145     C
H      0.16011  0.72883  0.90787     H
N       0.1604   0.1182   0.8646     N
N       0.1611   0.1061  0.46085     N
N       0.1618   0.1237   0.1142     N
C       0.1664   0.3566   0.2136     C
H      0.16755  0.48792   0.9595     H
H      0.17125   0.4839  0.46106     H
N       0.1724   0.1979  0.42569     N
N       0.1724   0.1989  0.15228     N
H      0.17508  0.05285  0.61235     H
C       0.1763   0.6842  0.89578     C
H      0.18352  0.42573  0.36709     H
C       0.1842   0.2469  0.85708     C
C       0.1842   0.3237  0.39578     C
H      0.18526  0.74814  0.68136     H
C       0.1918   0.6945  0.68895     C
C       0.1919   0.2511  0.56186     C
C       0.1933   0.6003  0.01919     C
C       0.1944   0.5981  0.40033     C
C       0.1945   0.3082  0.18895     C
N       0.1979   0.1724  0.57431     N
N       0.1989   0.1724  0.84772     N
H       0.2013   0.7212  0.06731     H
H      0.20266  0.39405   0.2228     H
H      0.20298  0.02686  0.82158     H
H      0.20414  0.70472  0.34869     H
H      0.20472  0.29586  0.84869     H
C       0.2102   0.5363  0.71204     C
C       0.2137   0.5524  0.99454     C
C       0.2164   0.5491  0.42546     C
H      0.21908  0.48369  0.72022     H
H       0.2212   0.2987  0.56731     H
C       0.2251   0.5488  0.86144     C
C       0.2261   0.0782  0.61613     C
H      0.22772  0.03817  0.07065     H
H      0.22883  0.33989  0.40787     H
H      0.23066  0.04148  0.50975     H
H      0.24079  0.50195  0.85047     H
C       0.2409   0.1344  0.11919     C
C       0.2416   0.0621  0.81252     C
C        0.243   0.1329  0.46029     C
C        0.246   0.6437  0.67706     C
C       0.2469   0.1842  0.14292     C
H      0.24814  0.31474  0.18136     H
C       0.2489   0.6919  0.06186     C
C         0.25   0.1445  0.59887     C
C         0.25   0.6445  0.90113     C
C       0.2511   0.1919  0.43814     C
H      0.25186  0.81474  0.31864     H
C       0.2531   0.6842  0.35708     C
C        0.254   0.1437  0.82294     C
C        0.257   0.6329  0.03971     C
C       0.2584   0.5621  0.68748     C
C       0.2591   0.6344  0.38081     C
H      0.25921  0.00195  0.64953     H
H      0.26934  0.54148  0.99025     H
H      0.27117  0.83989  0.09213     H
H      0.27228  0.53817  0.42935     H
C       0.2739   0.5782  0.88387     C
C       0.2749   0.0488  0.63856     C
H       0.2788   0.7987  0.93269     H
H      0.28092  0.98369  0.77978     H
C       0.2836   0.0491  0.07454     C
C       0.2863   0.0524  0.50546     C
C       0.2898   0.0363  0.78796     C
H      0.29528  0.79586  0.65131     H
H      0.29586  0.20472  0.15131     H
H      0.29702  0.52686  0.67842     H
H      0.29734  0.89405   0.2772     H
H       0.2987   0.2212  0.43269     H
N       0.3011   0.6724  0.65228     N
N       0.3021   0.6724  0.92569     N
C       0.3055   0.8082  0.31105     C
C       0.3056   0.0981  0.09967     C
C       0.3067   0.1003  0.48081     C
C       0.3081   0.7511  0.93814     C
C       0.3082   0.1945  0.81105     C
H      0.31474  0.24814  0.81864     H
C       0.3158   0.7469  0.64292     C
C       0.3158   0.8237  0.10422     C
H      0.31648  0.92573  0.13291     H
C       0.3237   0.1842  0.60422     C
H      0.32492  0.55285  0.88765     H
N       0.3276   0.6979  0.07431     N
N       0.3276   0.6989  0.34772     N
H      0.32875   0.9839  0.03894     H
H      0.33245  0.98792   0.5405     H
C       0.3336   0.8566   0.2864     C
N       0.3382   0.6237   0.3858     N
N       0.3389   0.6061  0.03915     N
N       0.3396   0.6182   0.6354     N
H      0.33989  0.22883  0.59213     H
C       0.3432   0.8758  0.12855     C
C       0.3444   0.0165   0.0554     C
H      0.34741  0.90646  0.96023     H
C        0.348   0.0203  0.52397     C
C       0.3493   0.0857  0.77571     C
C       0.3497   0.0901  0.64508     C
N       0.3549   0.6178  0.93961     N
C       0.3555     0.75  0.09887     C
C       0.3563    0.754  0.32294     C
C       0.3566   0.1664   0.7864     C
H      0.35767  0.90435   0.6218     H
C       0.3656   0.7409  0.61919     C
C       0.3671    0.743  0.96029     C
C       0.3758   0.1568  0.62855     C
N       0.3763   0.6618   0.6142     N
N       0.3818   0.6604   0.3646     N
N       0.3822   0.6451  0.06039     N
C       0.3829   0.8906  0.97584     C
C       0.3884   0.1115  0.10493     C
C       0.3885   0.8884  0.60493     C
O       0.3897   0.9856  0.68041     O
C       0.3906   0.1171  0.47584     C
N       0.3939   0.6611  0.96085     N
H      0.39405  0.20266   0.7772     H
O       0.3944     0.98  0.74306     O
O       0.3948   0.9579  0.24041     O
O       0.3983   0.9666   0.1774     O
C       0.3997   0.8067  0.98081     C
C       0.4019   0.8056  0.59967     C
H      0.40435  0.14233   0.1218     H
C       0.4059   0.0539  0.75114     C
C        0.406   0.0566  0.66987     C
H      0.40646  0.15259  0.46023     H
H      0.40749  0.00369  0.59048     H
C       0.4099   0.8497  0.14508     C
H      0.41195  0.00663  0.98966     H
C       0.4143   0.8493  0.27571     C
C       0.4193   0.9483  0.58609     C
C       0.4195   0.9507  0.99435     C
C       0.4218   0.7261  0.11613     C
H      0.42573  0.18352  0.63291     H
Cu     0.42949  0.04158  0.21035    Cu
C       0.4302   0.0341  0.51906     C
C        0.431    0.033  0.06085     C
C       0.4379   0.7416  0.31252     C
C       0.4434    0.906  0.16987     C
C       0.4461   0.9059  0.25114     C
H      0.44715  0.67508  0.11235     H
C       0.4476   0.7863  0.00546     C
C       0.4483   0.0807  0.08609     C
C       0.4507   0.0805  0.49435     C
C       0.4509   0.7836  0.57454     C
C       0.4512   0.7749  0.13856     C
O       0.4579   0.1052  0.74041     O
Cu     0.45842  0.92949  0.71035    Cu
H      0.45852  0.73066  0.00975     H
H      0.46183  0.72772  0.57065     H
C       0.4637   0.7898  0.28796     C
C       0.4659   0.9302  0.01906     C
O       0.4666   0.1017   0.6774     O
C        0.467    0.931  0.56085     C
H      0.47314  0.70298  0.32158     H
C       0.4797    0.848  0.02397     C
O         0.48   0.1056  0.24306     O
C       0.4835   0.8444   0.5554     C
H      0.48369  0.21908  0.27978     H
H       0.4839  0.17125  0.53894     H
O       0.4856   0.1103  0.18041     O
H      0.48792  0.16755   0.0405     H
H      0.49337  0.91195  0.48966     H
H      0.49631  0.90749  0.09048     H
H      0.49805  0.75921  0.14953     H
C          0.5      0.0  0.03979     C
C          0.5      0.0  0.53979     C
H      0.50195  0.24079  0.14953     H
H      0.50369  0.09251  0.09048     H
H      0.50663  0.08805  0.48966     H
H      0.51208  0.83245   0.0405     H
O       0.5144   0.8897  0.18041     O
H       0.5161  0.82875  0.53894     H
H      0.51631  0.78092  0.27978     H
C       0.5165   0.1556   0.5554     C
O         0.52   0.8944  0.24306     O
C       0.5203    0.152  0.02397     C
H      0.52686  0.29702  0.32158     H
C        0.533    0.069  0.56085     C
O       0.5334   0.8983   0.6774     O
C       0.5341   0.0698  0.01906     C
C       0.5363   0.2102  0.28796     C
H      0.53817  0.27228  0.57065     H
H      0.54148  0.26934  0.00975     H
Cu     0.54158  0.07051  0.71035    Cu
O       0.5421   0.8948  0.74041     O
C       0.5488   0.2251  0.13856     C
C       0.5491   0.2164  0.57454     C
C       0.5493   0.9195  0.49435     C
C       0.5517   0.9193  0.08609     C
C       0.5524   0.2137  0.00546     C
H      0.55285  0.32492  0.11235     H
C       0.5539   0.0941  0.25114     C
C       0.5566    0.094  0.16987     C
C       0.5621   0.2584  0.31252     C
C        0.569    0.967  0.06085     C
C       0.5698   0.9659  0.51906     C
Cu     0.57051  0.95842  0.21035    Cu
H      0.57427  0.81648  0.63291     H
C       0.5782   0.2739  0.11613     C
C       0.5805   0.0493  0.99435     C
C       0.5807   0.0517  0.58609     C
C       0.5857   0.1507  0.27571     C
H      0.58805  0.99337  0.98966     H
C       0.5901   0.1503  0.14508     C
H      0.59251  0.99631  0.59048     H
H      0.59354  0.84741  0.46023     H
C        0.594   0.9434  0.66987     C
C       0.5941   0.9461  0.75114     C
H      0.59565  0.85767   0.1218     H
C       0.5981   0.1944  0.59967     C
C       0.6003   0.1933  0.98081     C
O       0.6017   0.0334   0.1774     O
O       0.6052   0.0421  0.24041     O
O       0.6056     0.02  0.74306     O
H      0.60595  0.79734   0.7772     H
N       0.6061   0.3389  0.96085     N
C       0.6094   0.8829  0.47584     C
O       0.6103   0.0144  0.68041     O
C       0.6115   0.1116  0.60493     C
C       0.6116   0.8885  0.10493     C
C       0.6171   0.1094  0.97584     C
N       0.6178   0.3549  0.06039     N
N       0.6182   0.3396   0.3646     N
N       0.6237   0.3382   0.6142     N
C       0.6242   0.8432  0.62855     C
C       0.6329    0.257  0.96029     C
C       0.6344   0.2591  0.61919     C
H      0.64233  0.09565   0.6218     H
C       0.6434   0.8336   0.7864     C
C       0.6437    0.246  0.32294     C
C       0.6445     0.25  0.09887     C
N       0.6451   0.3822  0.93961     N
C       0.6503   0.9099  0.64508     C
C       0.6507   0.9143  0.77571     C
C        0.652   0.9797  0.52397     C
H      0.65259  0.09354  0.96023     H
C       0.6556   0.9835   0.0554     C
C       0.6568   0.1242  0.12855     C
H      0.66011  0.77117  0.59213     H
N       0.6604   0.3818   0.6354     N
N       0.6611   0.3939  0.03915     N
N       0.6618   0.3763   0.3858     N
C       0.6664   0.1434   0.2864     C
H      0.66755  0.01208   0.5405     H
H      0.67125   0.0161  0.03894     H
N       0.6724   0.3011  0.34772     N
N       0.6724   0.3021  0.07431     N
H      0.67508  0.44715  0.88765     H
C       0.6763   0.8158  0.60422     C
H      0.68352  0.07427  0.13291     H
C       0.6842   0.1763  0.10422     C
C       0.6842   0.2531  0.64292     C
H      0.68526  0.75186  0.81864     H
C       0.6918   0.8055  0.81105     C
C       0.6919   0.2489  0.93814     C
C       0.6933   0.8997  0.48081     C
C       0.6944   0.9019  0.09967     C
C       0.6945   0.1918  0.31105     C
N       0.6979   0.3276  0.92569     N
N       0.6989   0.3276  0.65228     N
H       0.7013   0.7788  0.43269     H
H      0.70266  0.10595   0.2772     H
H      0.70298  0.47314  0.67842     H
H      0.70414  0.79528  0.15131     H
H      0.70472  0.20414  0.65131     H
C       0.7102   0.9637  0.78796     C
C       0.7137   0.9476  0.50546     C
C       0.7164   0.9509  0.07454     C
H      0.71908  0.01631  0.77978     H
H       0.7212   0.2013  0.93269     H
C       0.7251   0.9512  0.63856     C
C       0.7261   0.4218  0.88387     C
H      0.72772  0.46183  0.42935     H
H      0.72883  0.16011  0.09213     H
H      0.73066  0.45852  0.99025     H
H      0.74079  0.99805  0.64953     H
C       0.7409   0.3656  0.38081     C
C       0.7416   0.4379  0.68748     C
C        0.743   0.3671  0.03971     C
C        0.746   0.8563  0.82294     C
C       0.7469   0.3158  0.35708     C
H      0.74814  0.18526  0.31864     H
C       0.7489   0.8081  0.43814     C
C         0.75   0.3555  0.90113     C
C         0.75   0.8555  0.59887     C
C       0.7511   0.3081  0.06186     C
H      0.75186  0.68526  0.18136     H
C       0.7531   0.8158  0.14292     C
C        0.754   0.3563  0.67706     C
C        0.757   0.8671  0.46029     C
C       0.7584   0.9379  0.81252     C
C       0.7591   0.8656  0.11919     C
H      0.75921  0.49805  0.85047     H
H      0.76934  0.95852  0.50975     H
H      0.77117  0.66011  0.40787     H
H      0.77228  0.96183  0.07065     H
C       0.7739   0.9218  0.61613     C
C       0.7749   0.4512  0.86144     C
H       0.7788   0.7013  0.56731     H
H      0.78092  0.51631  0.72022     H
C       0.7836   0.4509  0.42546     C
C       0.7863   0.4476  0.99454     C
C       0.7898   0.4637  0.71204     C
H      0.79528  0.70414  0.84869     H
H      0.79586  0.29528  0.34869     H
H      0.79702  0.97314  0.82158     H
H      0.79734  0.60595   0.2228     H
H       0.7987   0.2788  0.06731     H
N       0.8011   0.8276  0.84772     N
N       0.8021   0.8276  0.57431     N
C       0.8055   0.6918  0.18895     C
C       0.8056   0.4019  0.40033     C
C       0.8067   0.3997  0.01919     C
C       0.8081   0.7489  0.56186     C
C       0.8082   0.3055  0.68895     C
H      0.81474  0.25186  0.68136     H
C       0.8158   0.6763  0.39578     C
C       0.8158   0.7531  0.85708     C
H      0.81648  0.57427  0.36709     H
C       0.8237   0.3158  0.89578     C
H      0.82492  0.94715  0.61235     H
N       0.8276   0.8011  0.15228     N
N       0.8276   0.8021  0.42569     N
H      0.82875   0.5161  0.46106     H
H      0.83245  0.51208   0.9595     H
C       0.8336   0.6434   0.2136     C
N       0.8382   0.8763   0.1142     N
N       0.8389   0.8939  0.46085     N
N       0.8396   0.8818   0.8646     N
H      0.83989  0.27117  0.90787     H
C       0.8432   0.6242  0.37145     C
C       0.8444   0.4835   0.4446     C
H      0.84741  0.59354  0.53977     H
C        0.848   0.4797  0.97603     C
C       0.8493   0.4143  0.72429     C
C       0.8497   0.4099  0.85492     C
N       0.8549   0.8822  0.56039     N
C       0.8555     0.75  0.40113     C
C       0.8563    0.746  0.17706     C
C       0.8566   0.3336   0.7136     C
H      0.85767  0.59565   0.8782     H
C       0.8656   0.7591  0.88081     C
C       0.8671    0.757  0.53971     C
C       0.8758   0.3432  0.87145     C
N       0.8763   0.8382   0.8858     N
N       0.8818   0.8396   0.1354     N
N       0.8822   0.8549  0.43961     N
C       0.8829   0.6094  0.52416     C
C       0.8884   0.3885  0.39507     C
C       0.8885   0.6116  0.89507     C
O       0.8897   0.5144  0.81959     O
C       0.8906   0.3829  0.02416     C
N       0.8939   0.8389  0.53915     N
H      0.89405  0.29734   0.7228     H
O       0.8944     0.52  0.75694     O
O       0.8948   0.5421  0.25959     O
O       0.8983   0.5334   0.3226     O
C       0.8997   0.6933  0.51919     C
C       0.9019   0.6944  0.90033     C
H      0.90435  0.35767   0.3782     H
C       0.9059   0.4461  0.74886     C
C        0.906   0.4434  0.83013     C
H      0.90646  0.34741  0.03977     H
H      0.90749  0.49631  0.90952     H
C       0.9099   0.6503  0.35492     C
H      0.91195  0.49337  0.51034     H
C       0.9143   0.6507  0.22429     C
C       0.9193   0.5517  0.91391     C
C       0.9195   0.5493  0.50565     C
C       0.9218   0.7739  0.38387     C
H      0.92573  0.31648  0.86709     H
Cu     0.92949  0.45842  0.28965    Cu
C       0.9302   0.4659  0.98094     C
C        0.931    0.467  0.43915     C
C       0.9379   0.7584  0.18748     C
C       0.9434    0.594  0.33013     C
C       0.9461   0.5941  0.24886     C
H      0.94715  0.82492  0.38765     H
C       0.9476   0.7137  0.49454     C
C       0.9483   0.4193  0.41391     C
C       0.9507   0.4195  0.00565     C
C       0.9509   0.7164  0.92546     C
C       0.9512   0.7251  0.36144     C
O       0.9579   0.3948  0.75959     O
Cu     0.95842  0.57051  0.78965    Cu
H      0.95852  0.76934  0.49025     H
H      0.96183  0.77228  0.92935     H
C       0.9637   0.7102  0.21204     C
C       0.9659   0.5698  0.48094     C
O       0.9666   0.3983   0.8226     O
C        0.967    0.569  0.93915     C
H      0.97314  0.79702  0.17842     H
C       0.9797    0.652  0.47603     C
O         0.98   0.3944  0.25694     O
C       0.9835   0.6556   0.9446     C
H      0.98369  0.28092  0.22022     H
H       0.9839  0.32875  0.96106     H
O       0.9856   0.3897  0.31959     O
H      0.98792  0.33245   0.4595     H
H      0.99337  0.58805  0.01034     H
H      0.99631  0.59251  0.40952     H
H      0.99805  0.74079  0.35047     H
