data_I
_chemical_name_common  '/home/zhangsd/repos/MofS-CGCNN/ML/data/SSD/clean_cifs/NAWXER_clean'
_cell_length_a 21.98280
_cell_length_b 29.98500
_cell_length_c 10.41460
_cell_angle_alpha 90.00000
_cell_angle_beta  90.00000
_cell_angle_gamma 90.00000
_space_group_name_H-M_alt      'P 1'


loop_
_space_group_symop_operation_xyz
  'x, y, z' 

loop_
_atom_site_label
_atom_site_fract_x
_atom_site_fract_y
_atom_site_fract_z
_atom_site_type_symbol
Zn         0.0  0.01592   0.3661    Zn
Zn         0.0  0.48408   0.3661    Zn
Zn         0.0  0.51592   0.6339    Zn
Zn         0.0  0.98408   0.6339    Zn
O      0.06334   0.0573  0.44432     O
O      0.06334   0.4427  0.44432     O
O      0.06334   0.5573  0.55568     O
O      0.06334   0.9427  0.55568     O
O      0.06395  0.03263  0.64636     O
O      0.06395  0.46737  0.64636     O
O      0.06395  0.53263  0.35364     O
O      0.06395  0.96737  0.35364     O
C      0.07913   0.0593   0.5603     C
C      0.07913   0.4407   0.5603     C
C      0.07913   0.5593   0.4397     C
C      0.07913   0.9407   0.4397     C
C      0.11938  0.09777   0.5981     C
C      0.11938  0.40223   0.5981     C
C      0.11938  0.59777   0.4019     C
C      0.11938  0.90223   0.4019     C
H       0.1194   0.1291    0.427     H
H       0.1194   0.3709    0.427     H
H       0.1194   0.6291    0.573     H
H       0.1194   0.8709    0.573     H
H       0.1327   0.0785   0.7813     H
H       0.1327   0.4215   0.7813     H
H       0.1327   0.5785   0.2187     H
H       0.1327   0.9215   0.2187     H
C      0.13313  0.13114   0.5113     C
C      0.13313  0.36886   0.5113     C
C      0.13313  0.63114   0.4887     C
C      0.13313  0.86886   0.4887     C
C      0.14155  0.10086   0.7222     C
C      0.14155  0.39914   0.7222     C
C      0.14155  0.60086   0.2778     C
C      0.14155  0.89914   0.2778     C
C      0.16729  0.16773   0.5494     C
C      0.16729  0.33227   0.5494     C
C      0.16729  0.66773   0.4506     C
C      0.16729  0.83227   0.4506     C
H       0.1753   0.1905    0.491     H
H       0.1753   0.3095    0.491     H
H       0.1753   0.6905    0.509     H
H       0.1753   0.8095    0.509     H
C      0.17679  0.13693   0.7589     C
C      0.17679  0.36307   0.7589     C
C      0.17679  0.63693   0.2411     C
C      0.17679  0.86307   0.2411     C
C      0.18956  0.17079   0.6731     C
C      0.18956  0.32921   0.6731     C
C      0.18956  0.67079   0.3269     C
C      0.18956  0.82921   0.3269     C
H        0.192   0.1384   0.8421     H
H        0.192   0.3616   0.8421     H
H        0.192   0.6384   0.1579     H
H        0.192   0.8616   0.1579     H
N      0.19807     0.25   0.6753     N
N      0.19807     0.75   0.3247     N
C      0.22332  0.21142   0.7134     C
C      0.22332  0.28858   0.7134     C
C      0.22332  0.71142   0.2866     C
C      0.22332  0.78858   0.2866     C
C      0.27668  0.21142   0.7866     C
C      0.27668  0.28858   0.7866     C
C      0.27668  0.71142   0.2134     C
C      0.27668  0.78858   0.2134     C
N      0.30193     0.25   0.8247     N
N      0.30193     0.75   0.1753     N
H        0.308   0.1384   0.6579     H
H        0.308   0.3616   0.6579     H
H        0.308   0.6384   0.3421     H
H        0.308   0.8616   0.3421     H
C      0.31044  0.17079   0.8269     C
C      0.31044  0.32921   0.8269     C
C      0.31044  0.67079   0.1731     C
C      0.31044  0.82921   0.1731     C
C      0.32321  0.13693   0.7411     C
C      0.32321  0.36307   0.7411     C
C      0.32321  0.63693   0.2589     C
C      0.32321  0.86307   0.2589     C
H       0.3247   0.1905    0.009     H
H       0.3247   0.3095    0.009     H
H       0.3247   0.6905    0.991     H
H       0.3247   0.8095    0.991     H
C      0.33271  0.16773   0.9506     C
C      0.33271  0.33227   0.9506     C
C      0.33271  0.66773   0.0494     C
C      0.33271  0.83227   0.0494     C
C      0.35845  0.10086   0.7778     C
C      0.35845  0.39914   0.7778     C
C      0.35845  0.60086   0.2222     C
C      0.35845  0.89914   0.2222     C
C      0.36687  0.13114   0.9887     C
C      0.36687  0.36886   0.9887     C
C      0.36687  0.63114   0.0113     C
C      0.36687  0.86886   0.0113     C
H       0.3673   0.0785   0.7187     H
H       0.3673   0.4215   0.7187     H
H       0.3673   0.5785   0.2813     H
H       0.3673   0.9215   0.2813     H
H       0.3806   0.1291    0.073     H
H       0.3806   0.3709    0.073     H
H       0.3806   0.6291    0.927     H
H       0.3806   0.8709    0.927     H
C      0.38062  0.09777   0.9019     C
C      0.38062  0.40223   0.9019     C
C      0.38062  0.59777   0.0981     C
C      0.38062  0.90223   0.0981     C
C      0.42087   0.0593   0.9397     C
C      0.42087   0.4407   0.9397     C
C      0.42087   0.5593   0.0603     C
C      0.42087   0.9407   0.0603     C
O      0.43605  0.03263  0.85364     O
O      0.43605  0.46737  0.85364     O
O      0.43605  0.53263  0.14636     O
O      0.43605  0.96737  0.14636     O
O      0.43666   0.0573  0.05568     O
O      0.43666   0.4427  0.05568     O
O      0.43666   0.5573  0.94432     O
O      0.43666   0.9427  0.94432     O
Zn         0.5  0.01592   0.1339    Zn
Zn         0.5  0.48408   0.1339    Zn
Zn         0.5  0.51592   0.8661    Zn
Zn         0.5  0.98408   0.8661    Zn
O      0.56334   0.0573  0.05568     O
O      0.56334   0.4427  0.05568     O
O      0.56334   0.5573  0.94432     O
O      0.56334   0.9427  0.94432     O
O      0.56395  0.03263  0.85364     O
O      0.56395  0.46737  0.85364     O
O      0.56395  0.53263  0.14636     O
O      0.56395  0.96737  0.14636     O
C      0.57913   0.0593   0.9397     C
C      0.57913   0.4407   0.9397     C
C      0.57913   0.5593   0.0603     C
C      0.57913   0.9407   0.0603     C
C      0.61938  0.09777   0.9019     C
C      0.61938  0.40223   0.9019     C
C      0.61938  0.59777   0.0981     C
C      0.61938  0.90223   0.0981     C
H       0.6194   0.1291    0.073     H
H       0.6194   0.3709    0.073     H
H       0.6194   0.6291    0.927     H
H       0.6194   0.8709    0.927     H
H       0.6327   0.0785   0.7187     H
H       0.6327   0.4215   0.7187     H
H       0.6327   0.5785   0.2813     H
H       0.6327   0.9215   0.2813     H
C      0.63313  0.13114   0.9887     C
C      0.63313  0.36886   0.9887     C
C      0.63313  0.63114   0.0113     C
C      0.63313  0.86886   0.0113     C
C      0.64155  0.10086   0.7778     C
C      0.64155  0.39914   0.7778     C
C      0.64155  0.60086   0.2222     C
C      0.64155  0.89914   0.2222     C
C      0.66729  0.16773   0.9506     C
C      0.66729  0.33227   0.9506     C
C      0.66729  0.66773   0.0494     C
C      0.66729  0.83227   0.0494     C
H       0.6753   0.1905    0.009     H
H       0.6753   0.3095    0.009     H
H       0.6753   0.6905    0.991     H
H       0.6753   0.8095    0.991     H
C      0.67679  0.13693   0.7411     C
C      0.67679  0.36307   0.7411     C
C      0.67679  0.63693   0.2589     C
C      0.67679  0.86307   0.2589     C
C      0.68956  0.17079   0.8269     C
C      0.68956  0.32921   0.8269     C
C      0.68956  0.67079   0.1731     C
C      0.68956  0.82921   0.1731     C
H        0.692   0.1384   0.6579     H
H        0.692   0.3616   0.6579     H
H        0.692   0.6384   0.3421     H
H        0.692   0.8616   0.3421     H
N      0.69807     0.25   0.8247     N
N      0.69807     0.75   0.1753     N
C      0.72332  0.21142   0.7866     C
C      0.72332  0.28858   0.7866     C
C      0.72332  0.71142   0.2134     C
C      0.72332  0.78858   0.2134     C
C      0.77668  0.21142   0.7134     C
C      0.77668  0.28858   0.7134     C
C      0.77668  0.71142   0.2866     C
C      0.77668  0.78858   0.2866     C
N      0.80193     0.25   0.6753     N
N      0.80193     0.75   0.3247     N
H        0.808   0.1384   0.8421     H
H        0.808   0.3616   0.8421     H
H        0.808   0.6384   0.1579     H
H        0.808   0.8616   0.1579     H
C      0.81044  0.17079   0.6731     C
C      0.81044  0.32921   0.6731     C
C      0.81044  0.67079   0.3269     C
C      0.81044  0.82921   0.3269     C
C      0.82321  0.13693   0.7589     C
C      0.82321  0.36307   0.7589     C
C      0.82321  0.63693   0.2411     C
C      0.82321  0.86307   0.2411     C
H       0.8247   0.1905    0.491     H
H       0.8247   0.3095    0.491     H
H       0.8247   0.6905    0.509     H
H       0.8247   0.8095    0.509     H
C      0.83271  0.16773   0.5494     C
C      0.83271  0.33227   0.5494     C
C      0.83271  0.66773   0.4506     C
C      0.83271  0.83227   0.4506     C
C      0.85845  0.10086   0.7222     C
C      0.85845  0.39914   0.7222     C
C      0.85845  0.60086   0.2778     C
C      0.85845  0.89914   0.2778     C
C      0.86687  0.13114   0.5113     C
C      0.86687  0.36886   0.5113     C
C      0.86687  0.63114   0.4887     C
C      0.86687  0.86886   0.4887     C
H       0.8673   0.0785   0.7813     H
H       0.8673   0.4215   0.7813     H
H       0.8673   0.5785   0.2187     H
H       0.8673   0.9215   0.2187     H
H       0.8806   0.1291    0.427     H
H       0.8806   0.3709    0.427     H
H       0.8806   0.6291    0.573     H
H       0.8806   0.8709    0.573     H
C      0.88062  0.09777   0.5981     C
C      0.88062  0.40223   0.5981     C
C      0.88062  0.59777   0.4019     C
C      0.88062  0.90223   0.4019     C
C      0.92087   0.0593   0.5603     C
C      0.92087   0.4407   0.5603     C
C      0.92087   0.5593   0.4397     C
C      0.92087   0.9407   0.4397     C
O      0.93605  0.03263  0.64636     O
O      0.93605  0.46737  0.64636     O
O      0.93605  0.53263  0.35364     O
O      0.93605  0.96737  0.35364     O
O      0.93666   0.0573  0.44432     O
O      0.93666   0.4427  0.44432     O
O      0.93666   0.5573  0.55568     O
O      0.93666   0.9427  0.55568     O
