data_I
_chemical_name_common  '/home/zhangsd/repos/MofS-CGCNN/ML/data/SSD/clean_cifs/NEDWIE_clean'
_cell_length_a 15.68020
_cell_length_b 16.61870
_cell_length_c 16.86310
_cell_angle_alpha 98.78200
_cell_angle_beta  109.21500
_cell_angle_gamma 114.85800
_space_group_name_H-M_alt      'P 1'


loop_
_space_group_symop_operation_xyz
  'x, y, z' 

loop_
_atom_site_label
_atom_site_fract_x
_atom_site_fract_y
_atom_site_fract_z
_atom_site_type_symbol
C       0.0336   0.5871   0.1874     C
H       0.0357   0.2657   0.0351     H
H       0.0505   0.6498   0.2224     H
O       0.0607   0.5391   0.2453     O
H       0.0672   0.5573   0.9641     H
H       0.0725   0.5959   0.1506     H
O       0.0745   0.4158   0.9926     O
C       0.0846    0.475   0.8721     C
H       0.0875   0.6025   0.8899     H
H       0.0896   0.2593   0.6612     H
C       0.0979     0.32   0.0799     C
H       0.0999   0.3595   0.8947     H
C       0.1079   0.5683   0.9288     C
H       0.1183   0.7081   0.0273     H
O       0.1192   0.4042   0.7626     O
C       0.1216   0.4231   0.9319     C
H        0.124   0.5284   0.7775     H
C       0.1307   0.4061   0.0677     C
H       0.1319   0.2532   0.1653     H
H       0.1351   0.4721   0.3532     H
C       0.1417   0.3138   0.6586     C
C       0.1447   0.4942   0.8161     C
C       0.1556    0.313   0.1577     C
C        0.164    0.581   0.3029     C
H       0.1678   0.2423   0.5719     H
C       0.1704   0.4022   0.7102     C
H       0.1813   0.8286   0.1538     H
C       0.1864   0.3036   0.6048     C
C       0.1872   0.7332   0.0724     C
C       0.1888   0.5304   0.3576     C
H       0.1988   0.4588   0.9655     H
O       0.2177   0.6236   0.9875     O
H       0.2208    0.533    0.855     H
C       0.2211   0.4841   0.1358     C
H       0.2238   0.6947   0.2674     H
C       0.2242   0.8035   0.1478     C
C       0.2396   0.4778   0.7027     C
C       0.2407    0.662   0.3059     C
C       0.2441   0.3875   0.2229     C
H       0.2452   0.5445   0.1295     H
C       0.2494   0.6969   0.0599     C
H        0.258   0.5388   0.7362     H
C       0.2586   0.3813   0.5974     C
O       0.2645   0.2996   0.3175     O
C       0.2756   0.4734   0.2124     C
C       0.2847   0.4692   0.6475     C
O       0.2882   0.2903   0.4992     O
C       0.2904   0.5652   0.4172     C
O       0.3015   0.9472   0.3067     O
C       0.3061   0.3784   0.3074     C
H       0.3068   0.5318   0.4551     H
C        0.311   0.3713   0.5389     C
C        0.322   0.8403   0.2165     C
Ni     0.33256  0.25061  0.40636    Ni
H       0.3346   0.5241   0.6436     H
H       0.3365   0.5272    0.259     H
C       0.3455   0.6974   0.3662     C
C       0.3491   0.7361   0.1256     C
C       0.3575   0.9099   0.3044     C
C       0.3706     0.65   0.4224     C
O       0.3729   0.4451   0.5354     O
C       0.3855   0.8069    0.202     C
O       0.3931   0.4495   0.3613     O
H       0.3934   0.7136   0.1178     H
H       0.3993   0.7541   0.3684     H
O       0.4386   0.9255   0.3665     O
O       0.4488   0.2322   0.5042     O
H       0.4553   0.8339   0.2461     H
C       0.4803   0.6873   0.4836     C
O       0.4946   0.3635   0.4747     O
Ni         0.5      0.0      0.5    Ni
Mn         0.5      0.5      0.5    Mn
O       0.5054   0.6365   0.5253     O
C       0.5197   0.3127   0.5164     C
H       0.5447   0.1661   0.7539     H
O       0.5512   0.7678   0.4958     O
O       0.5614   0.0745   0.6335     O
H       0.6007   0.2459   0.6316     H
H       0.6066   0.2864   0.8822     H
O       0.6069   0.5505   0.6387     O
C       0.6145   0.1931    0.798     C
O       0.6271   0.5549   0.4646     O
C       0.6294     0.35   0.5776     C
C       0.6425   0.0901   0.6956     C
C       0.6509   0.2639   0.8744     C
C       0.6545   0.3026   0.6338     C
H       0.6635   0.4728    0.741     H
H       0.6654   0.4759   0.3564     H
Ni     0.66744  0.74939  0.59364    Ni
C        0.678   0.1597   0.7835     C
C        0.689   0.6287   0.4611     C
H       0.6932   0.4682   0.5449     H
C       0.6939   0.6216   0.6926     C
O       0.6985   0.0528   0.6933     O
C       0.7096   0.4348   0.5828     C
O       0.7118   0.7097   0.5008     O
C       0.7153   0.5308   0.3525     C
C       0.7244   0.5266   0.7876     C
O       0.7355   0.7004   0.6825     O
C       0.7414   0.6187   0.4026     C
H        0.742   0.4612   0.2638     H
C       0.7506   0.3031   0.9401     C
H       0.7548   0.4555   0.8705     H
C       0.7559   0.6125   0.7771     C
C       0.7593    0.338   0.6941     C
C       0.7604   0.5222   0.2973     C
C       0.7758   0.1965   0.8522     C
H       0.7762   0.3053   0.7326     H
C       0.7789   0.5159   0.8642     C
H       0.7792    0.467    0.145     H
O       0.7823   0.3764   0.0125     O
H       0.8012   0.5412   0.0345     H
C       0.8112   0.4696   0.6424     C
C       0.8128   0.2668   0.9276     C
C       0.8136   0.6964   0.3952     C
H       0.8187   0.1714   0.8462     H
C       0.8296   0.5978   0.2898     C
H       0.8322   0.7577   0.4281     H
C        0.836    0.419   0.6971     C
C       0.8444    0.687   0.8423     C
C       0.8553   0.5058   0.1839     C
C       0.8583   0.6862   0.3414     C
H       0.8649   0.5279   0.6468     H
H       0.8681   0.7468   0.8347     H
C       0.8693   0.5939   0.9323     C
H        0.876   0.4716   0.2225     H
C       0.8784   0.5769   0.0681     C
O       0.8808   0.5958   0.2374     O
H       0.8817   0.2919   0.9727     H
C       0.8921   0.4317   0.0712     C
H       0.9001   0.6405   0.1053     H
C       0.9021     0.68   0.9201     C
H       0.9104   0.7407   0.3388     H
H       0.9125   0.3975   0.1101     H
C       0.9154    0.525   0.1279     C
O       0.9255   0.5842   0.0074     O
H       0.9275   0.4041   0.8494     H
H       0.9328   0.4427   0.0359     H
O       0.9393   0.4609   0.7547     O
H       0.9495   0.3502   0.7776     H
H       0.9643   0.7343   0.9649     H
C       0.9664   0.4129   0.8126     C
