data_I
_chemical_name_common  '/home/zhangsd/repos/MofS-CGCNN/ML/data/SSD/clean_cifs/NEHGEO_clean'
_cell_length_a 22.55970
_cell_length_b 22.55970
_cell_length_c 22.55970
_cell_angle_alpha 90.00000
_cell_angle_beta  90.00000
_cell_angle_gamma 90.00000
_space_group_name_H-M_alt      'P 1'


loop_
_space_group_symop_operation_xyz
  'x, y, z' 

loop_
_atom_site_label
_atom_site_fract_x
_atom_site_fract_y
_atom_site_fract_z
_atom_site_type_symbol
O          0.0      0.0      0.0     O
O          0.0      0.0      0.5     O
O          0.0      0.5      0.0     O
O          0.0      0.5      0.5     O
O      0.00295  0.03413  0.86499     O
O      0.00295  0.46587  0.36499     O
O      0.00295  0.53413  0.13501     O
O      0.00295  0.96587  0.63501     O
Zn     0.01253  0.07225  0.95372    Zn
Zn     0.01253  0.42775  0.45372    Zn
Zn     0.01253  0.57225  0.04628    Zn
Zn     0.01253  0.92775  0.54628    Zn
H       0.0144   0.0757    0.763     H
H       0.0144   0.4243    0.263     H
H       0.0144   0.5757    0.237     H
H       0.0144   0.9243    0.737     H
H        0.015   0.1016   0.1679     H
H        0.015   0.3984   0.6679     H
H        0.015   0.6016   0.8321     H
H        0.015   0.8984   0.3321     H
C      0.02563  0.08022  0.25434     C
C      0.02563  0.41978  0.75434     C
C      0.02563  0.58022  0.74566     C
C      0.02563  0.91978  0.24566     C
O      0.03413  0.13501  0.49705     O
O      0.03413  0.36499  0.99705     O
O      0.03413  0.63501  0.50295     O
O      0.03413  0.86499  0.00295     O
C      0.04323  0.09575  0.19737     C
C      0.04323  0.40425  0.69737     C
C      0.04323  0.59575  0.80263     C
C      0.04323  0.90425  0.30263     C
Zn     0.04628  0.01253  0.57225    Zn
Zn     0.04628  0.48747  0.07225    Zn
Zn     0.04628  0.51253  0.42775    Zn
Zn     0.04628  0.98747  0.92775    Zn
O      0.04689  0.10193  0.58429     O
O      0.04689  0.39807  0.08429     O
O      0.04689  0.60193  0.41571     O
O      0.04689  0.89807  0.91571     O
C      0.04725  0.05077  0.35818     C
C      0.04725  0.44923  0.85818     C
C      0.04725  0.55077  0.64182     C
C      0.04725  0.94923  0.14182     C
C      0.05077  0.14182  0.54725     C
C      0.05077  0.35818  0.04725     C
C      0.05077  0.64182  0.45275     C
C      0.05077  0.85818  0.95275     C
C      0.06787  0.07147  0.29833     C
C      0.06787  0.42853  0.79833     C
C      0.06787  0.57147  0.70167     C
C      0.06787  0.92853  0.20167     C
C      0.07147  0.20167  0.56787     C
C      0.07147  0.29833  0.06787     C
C      0.07147  0.70167  0.43213     C
C      0.07147  0.79833  0.93213     C
Zn     0.07225  0.04628  0.48747    Zn
Zn     0.07225  0.45372  0.98747    Zn
Zn     0.07225  0.54628  0.51253    Zn
Zn     0.07225  0.95372  0.01253    Zn
H       0.0724   0.1852    0.656     H
H       0.0724   0.3148    0.156     H
H       0.0724   0.6852    0.344     H
H       0.0724   0.8148    0.844     H
H       0.0757    0.237   0.4856     H
H       0.0757    0.263   0.9856     H
H       0.0757    0.737   0.5144     H
H       0.0757    0.763   0.0144     H
C      0.07826  0.21465  0.62772     C
C      0.07826  0.28535  0.12772     C
C      0.07826  0.71465  0.37228     C
C      0.07826  0.78535  0.87228     C
C      0.08022  0.24566  0.52563     C
C      0.08022  0.25434  0.02563     C
C      0.08022  0.74566  0.47437     C
C      0.08022  0.75434  0.97437     C
O      0.08429  0.04689  0.39807     O
O      0.08429  0.45311  0.89807     O
O      0.08429  0.54689  0.60193     O
O      0.08429  0.95311  0.10193     O
H       0.0912   0.0912   0.0912     H
H       0.0912   0.4088   0.5912     H
H       0.0912   0.5912   0.9088     H
H       0.0912   0.9088   0.4088     H
C       0.0938  0.22839  0.14532     C
C       0.0938  0.27161  0.64532     C
C       0.0938  0.72839  0.85468     C
C       0.0938  0.77161  0.35468     C
C      0.09575  0.19737  0.04323     C
C      0.09575  0.30263  0.54323     C
C      0.09575  0.69737  0.95677     C
C      0.09575  0.80263  0.45677     C
H       0.0983   0.2197   0.1854     H
H       0.0983   0.2803   0.6854     H
H       0.0983   0.7197   0.8146     H
H       0.0983   0.7803   0.3146     H
H       0.1016   0.1679    0.015     H
H       0.1016   0.3321    0.515     H
H       0.1016   0.6679    0.985     H
H       0.1016   0.8321    0.485     H
O      0.10193  0.08429  0.95311     O
O      0.10193  0.41571  0.45311     O
O      0.10193  0.58429  0.04689     O
O      0.10193  0.91571  0.54689     O
C      0.10255   0.1844  0.10308     C
C      0.10255   0.3156  0.60308     C
C      0.10255   0.6844  0.89692     C
C      0.10255   0.8156  0.39692     C
C      0.10308  0.10255   0.1844     C
C      0.10308  0.39745   0.6844     C
C      0.10308  0.60255   0.8156     C
C      0.10308  0.89745   0.3156     C
C       0.1163   0.1163   0.1163     C
C       0.1163   0.3837   0.6163     C
C       0.1163   0.6163   0.8837     C
C       0.1163   0.8837   0.3837     C
C      0.12772  0.07826  0.28535     C
C      0.12772  0.42174  0.78535     C
C      0.12772  0.57826  0.71465     C
C      0.12772  0.92174  0.21465     C
O      0.13501  0.00295  0.53413     O
O      0.13501  0.49705  0.03413     O
O      0.13501  0.50295  0.46587     O
O      0.13501  0.99705  0.96587     O
C      0.14182  0.04725  0.94923     C
C      0.14182  0.45275  0.44923     C
C      0.14182  0.54725  0.05077     C
C      0.14182  0.95275  0.55077     C
C      0.14532   0.0938  0.22839     C
C      0.14532   0.4062  0.72839     C
C      0.14532   0.5938  0.77161     C
C      0.14532   0.9062  0.27161     C
H        0.156   0.0724   0.3148     H
H        0.156   0.4276   0.8148     H
H        0.156   0.5724   0.6852     H
H        0.156   0.9276   0.1852     H
H       0.1679    0.015   0.1016     H
H       0.1679    0.485   0.6016     H
H       0.1679    0.515   0.8984     H
H       0.1679    0.985   0.3984     H
C       0.1844  0.10308  0.10255     C
C       0.1844  0.39692  0.60255     C
C       0.1844  0.60308  0.89745     C
C       0.1844  0.89692  0.39745     C
H       0.1852    0.156   0.9276     H
H       0.1852    0.344   0.4276     H
H       0.1852    0.656   0.0724     H
H       0.1852    0.844   0.5724     H
H       0.1854   0.0983   0.2197     H
H       0.1854   0.4017   0.7197     H
H       0.1854   0.5983   0.7803     H
H       0.1854   0.9017   0.2803     H
C      0.19737  0.04323  0.09575     C
C      0.19737  0.45677  0.59575     C
C      0.19737  0.54323  0.90425     C
C      0.19737  0.95677  0.40425     C
C      0.20167  0.06787  0.92853     C
C      0.20167  0.43213  0.42853     C
C      0.20167  0.56787  0.07147     C
C      0.20167  0.93213  0.57147     C
C      0.21465  0.12772  0.92174     C
C      0.21465  0.37228  0.42174     C
C      0.21465  0.62772  0.07826     C
C      0.21465  0.87228  0.57826     C
H       0.2197   0.1854   0.0983     H
H       0.2197   0.3146   0.5983     H
H       0.2197   0.6854   0.9017     H
H       0.2197   0.8146   0.4017     H
C      0.22839  0.14532   0.0938     C
C      0.22839  0.35468   0.5938     C
C      0.22839  0.64532   0.9062     C
C      0.22839  0.85468   0.4062     C
H        0.237   0.0144   0.5757     H
H        0.237   0.4856   0.0757     H
H        0.237   0.5144   0.4243     H
H        0.237   0.9856   0.9243     H
C      0.24566  0.02563  0.91978     C
C      0.24566  0.47437  0.41978     C
C      0.24566  0.52563  0.08022     C
C      0.24566  0.97437  0.58022     C
C      0.25434  0.02563  0.08022     C
C      0.25434  0.47437  0.58022     C
C      0.25434  0.52563  0.91978     C
C      0.25434  0.97437  0.41978     C
H        0.263   0.0144   0.4243     H
H        0.263   0.4856   0.9243     H
H        0.263   0.5144   0.5757     H
H        0.263   0.9856   0.0757     H
C      0.27161  0.14532   0.9062     C
C      0.27161  0.35468   0.4062     C
C      0.27161  0.64532   0.0938     C
C      0.27161  0.85468   0.5938     C
H       0.2803   0.1854   0.9017     H
H       0.2803   0.3146   0.4017     H
H       0.2803   0.6854   0.0983     H
H       0.2803   0.8146   0.5983     H
C      0.28535  0.12772  0.07826     C
C      0.28535  0.37228  0.57826     C
C      0.28535  0.62772  0.92174     C
C      0.28535  0.87228  0.42174     C
C      0.29833  0.06787  0.07147     C
C      0.29833  0.43213  0.57147     C
C      0.29833  0.56787  0.92853     C
C      0.29833  0.93213  0.42853     C
C      0.30263  0.04323  0.90425     C
C      0.30263  0.45677  0.40425     C
C      0.30263  0.54323  0.09575     C
C      0.30263  0.95677  0.59575     C
H       0.3146   0.0983   0.7803     H
H       0.3146   0.4017   0.2803     H
H       0.3146   0.5983   0.2197     H
H       0.3146   0.9017   0.7197     H
H       0.3148    0.156   0.0724     H
H       0.3148    0.344   0.5724     H
H       0.3148    0.656   0.9276     H
H       0.3148    0.844   0.4276     H
C       0.3156  0.10308  0.89745     C
C       0.3156  0.39692  0.39745     C
C       0.3156  0.60308  0.10255     C
C       0.3156  0.89692  0.60255     C
H       0.3321    0.015   0.8984     H
H       0.3321    0.485   0.3984     H
H       0.3321    0.515   0.1016     H
H       0.3321    0.985   0.6016     H
H        0.344   0.0724   0.6852     H
H        0.344   0.4276   0.1852     H
H        0.344   0.5724   0.3148     H
H        0.344   0.9276   0.8148     H
C      0.35468   0.0938  0.77161     C
C      0.35468   0.4062  0.27161     C
C      0.35468   0.5938  0.22839     C
C      0.35468   0.9062  0.72839     C
C      0.35818  0.04725  0.05077     C
C      0.35818  0.45275  0.55077     C
C      0.35818  0.54725  0.94923     C
C      0.35818  0.95275  0.44923     C
O      0.36499  0.00295  0.46587     O
O      0.36499  0.49705  0.96587     O
O      0.36499  0.50295  0.53413     O
O      0.36499  0.99705  0.03413     O
C      0.37228  0.07826  0.71465     C
C      0.37228  0.42174  0.21465     C
C      0.37228  0.57826  0.28535     C
C      0.37228  0.92174  0.78535     C
C       0.3837   0.1163   0.8837     C
C       0.3837   0.3837   0.3837     C
C       0.3837   0.6163   0.1163     C
C       0.3837   0.8837   0.6163     C
C      0.39692  0.10255   0.8156     C
C      0.39692  0.39745   0.3156     C
C      0.39692  0.60255   0.1844     C
C      0.39692  0.89745   0.6844     C
C      0.39745   0.1844  0.89692     C
C      0.39745   0.3156  0.39692     C
C      0.39745   0.6844  0.10308     C
C      0.39745   0.8156  0.60308     C
O      0.39807  0.08429  0.04689     O
O      0.39807  0.41571  0.54689     O
O      0.39807  0.58429  0.95311     O
O      0.39807  0.91571  0.45311     O
H       0.3984   0.1679    0.985     H
H       0.3984   0.3321    0.485     H
H       0.3984   0.6679    0.015     H
H       0.3984   0.8321    0.515     H
H       0.4017   0.2197   0.8146     H
H       0.4017   0.2803   0.3146     H
H       0.4017   0.7197   0.1854     H
H       0.4017   0.7803   0.6854     H
C      0.40425  0.19737  0.95677     C
C      0.40425  0.30263  0.45677     C
C      0.40425  0.69737  0.04323     C
C      0.40425  0.80263  0.54323     C
C       0.4062  0.22839  0.85468     C
C       0.4062  0.27161  0.35468     C
C       0.4062  0.72839  0.14532     C
C       0.4062  0.77161  0.64532     C
H       0.4088   0.0912   0.9088     H
H       0.4088   0.4088   0.4088     H
H       0.4088   0.5912   0.0912     H
H       0.4088   0.9088   0.5912     H
O      0.41571  0.04689  0.60193     O
O      0.41571  0.45311  0.10193     O
O      0.41571  0.54689  0.39807     O
O      0.41571  0.95311  0.89807     O
C      0.41978  0.24566  0.47437     C
C      0.41978  0.25434  0.97437     C
C      0.41978  0.74566  0.52563     C
C      0.41978  0.75434  0.02563     C
C      0.42174  0.21465  0.37228     C
C      0.42174  0.28535  0.87228     C
C      0.42174  0.71465  0.62772     C
C      0.42174  0.78535  0.12772     C
H       0.4243    0.237   0.5144     H
H       0.4243    0.263   0.0144     H
H       0.4243    0.737   0.4856     H
H       0.4243    0.763   0.9856     H
H       0.4276   0.1852    0.344     H
H       0.4276   0.3148    0.844     H
H       0.4276   0.6852    0.656     H
H       0.4276   0.8148    0.156     H
Zn     0.42775  0.04628  0.51253    Zn
Zn     0.42775  0.45372  0.01253    Zn
Zn     0.42775  0.54628  0.48747    Zn
Zn     0.42775  0.95372  0.98747    Zn
C      0.42853  0.20167  0.43213     C
C      0.42853  0.29833  0.93213     C
C      0.42853  0.70167  0.56787     C
C      0.42853  0.79833  0.06787     C
C      0.43213  0.07147  0.70167     C
C      0.43213  0.42853  0.20167     C
C      0.43213  0.57147  0.29833     C
C      0.43213  0.92853  0.79833     C
C      0.44923  0.14182  0.45275     C
C      0.44923  0.35818  0.95275     C
C      0.44923  0.64182  0.54725     C
C      0.44923  0.85818  0.04725     C
C      0.45275  0.05077  0.64182     C
C      0.45275  0.44923  0.14182     C
C      0.45275  0.55077  0.35818     C
C      0.45275  0.94923  0.85818     C
O      0.45311  0.10193  0.41571     O
O      0.45311  0.39807  0.91571     O
O      0.45311  0.60193  0.58429     O
O      0.45311  0.89807  0.08429     O
Zn     0.45372  0.01253  0.42775    Zn
Zn     0.45372  0.48747  0.92775    Zn
Zn     0.45372  0.51253  0.57225    Zn
Zn     0.45372  0.98747  0.07225    Zn
C      0.45677  0.09575  0.80263     C
C      0.45677  0.40425  0.30263     C
C      0.45677  0.59575  0.19737     C
C      0.45677  0.90425  0.69737     C
O      0.46587  0.13501  0.50295     O
O      0.46587  0.36499  0.00295     O
O      0.46587  0.63501  0.49705     O
O      0.46587  0.86499  0.99705     O
C      0.47437  0.08022  0.74566     C
C      0.47437  0.41978  0.24566     C
C      0.47437  0.58022  0.25434     C
C      0.47437  0.91978  0.75434     C
H        0.485   0.1016   0.8321     H
H        0.485   0.3984   0.3321     H
H        0.485   0.6016   0.1679     H
H        0.485   0.8984   0.6679     H
H       0.4856   0.0757    0.237     H
H       0.4856   0.4243    0.737     H
H       0.4856   0.5757    0.763     H
H       0.4856   0.9243    0.263     H
Zn     0.48747  0.07225  0.04628    Zn
Zn     0.48747  0.42775  0.54628    Zn
Zn     0.48747  0.57225  0.95372    Zn
Zn     0.48747  0.92775  0.45372    Zn
O      0.49705  0.03413  0.13501     O
O      0.49705  0.46587  0.63501     O
O      0.49705  0.53413  0.86499     O
O      0.49705  0.96587  0.36499     O
O          0.5      0.0      0.0     O
O          0.5      0.0      0.5     O
O          0.5      0.5      0.0     O
O          0.5      0.5      0.5     O
O      0.50295  0.03413  0.63501     O
O      0.50295  0.46587  0.13501     O
O      0.50295  0.53413  0.36499     O
O      0.50295  0.96587  0.86499     O
Zn     0.51253  0.07225  0.54628    Zn
Zn     0.51253  0.42775  0.04628    Zn
Zn     0.51253  0.57225  0.45372    Zn
Zn     0.51253  0.92775  0.95372    Zn
H       0.5144   0.0757    0.737     H
H       0.5144   0.4243    0.237     H
H       0.5144   0.5757    0.263     H
H       0.5144   0.9243    0.763     H
H        0.515   0.1016   0.3321     H
H        0.515   0.3984   0.8321     H
H        0.515   0.6016   0.6679     H
H        0.515   0.8984   0.1679     H
C      0.52563  0.08022  0.24566     C
C      0.52563  0.41978  0.74566     C
C      0.52563  0.58022  0.75434     C
C      0.52563  0.91978  0.25434     C
O      0.53413  0.13501  0.00295     O
O      0.53413  0.36499  0.50295     O
O      0.53413  0.63501  0.99705     O
O      0.53413  0.86499  0.49705     O
C      0.54323  0.09575  0.30263     C
C      0.54323  0.40425  0.80263     C
C      0.54323  0.59575  0.69737     C
C      0.54323  0.90425  0.19737     C
Zn     0.54628  0.01253  0.92775    Zn
Zn     0.54628  0.48747  0.42775    Zn
Zn     0.54628  0.51253  0.07225    Zn
Zn     0.54628  0.98747  0.57225    Zn
O      0.54689  0.10193  0.91571     O
O      0.54689  0.39807  0.41571     O
O      0.54689  0.60193  0.08429     O
O      0.54689  0.89807  0.58429     O
C      0.54725  0.05077  0.14182     C
C      0.54725  0.44923  0.64182     C
C      0.54725  0.55077  0.85818     C
C      0.54725  0.94923  0.35818     C
C      0.55077  0.14182  0.95275     C
C      0.55077  0.35818  0.45275     C
C      0.55077  0.64182  0.04725     C
C      0.55077  0.85818  0.54725     C
C      0.56787  0.07147  0.20167     C
C      0.56787  0.42853  0.70167     C
C      0.56787  0.57147  0.79833     C
C      0.56787  0.92853  0.29833     C
C      0.57147  0.20167  0.93213     C
C      0.57147  0.29833  0.43213     C
C      0.57147  0.70167  0.06787     C
C      0.57147  0.79833  0.56787     C
Zn     0.57225  0.04628  0.01253    Zn
Zn     0.57225  0.45372  0.51253    Zn
Zn     0.57225  0.54628  0.98747    Zn
Zn     0.57225  0.95372  0.48747    Zn
H       0.5724   0.1852    0.844     H
H       0.5724   0.3148    0.344     H
H       0.5724   0.6852    0.156     H
H       0.5724   0.8148    0.656     H
H       0.5757    0.237   0.0144     H
H       0.5757    0.263   0.5144     H
H       0.5757    0.737   0.9856     H
H       0.5757    0.763   0.4856     H
C      0.57826  0.21465  0.87228     C
C      0.57826  0.28535  0.37228     C
C      0.57826  0.71465  0.12772     C
C      0.57826  0.78535  0.62772     C
C      0.58022  0.24566  0.97437     C
C      0.58022  0.25434  0.47437     C
C      0.58022  0.74566  0.02563     C
C      0.58022  0.75434  0.52563     C
O      0.58429  0.04689  0.10193     O
O      0.58429  0.45311  0.60193     O
O      0.58429  0.54689  0.89807     O
O      0.58429  0.95311  0.39807     O
H       0.5912   0.0912   0.4088     H
H       0.5912   0.4088   0.9088     H
H       0.5912   0.5912   0.5912     H
H       0.5912   0.9088   0.0912     H
C       0.5938  0.22839  0.35468     C
C       0.5938  0.27161  0.85468     C
C       0.5938  0.72839  0.64532     C
C       0.5938  0.77161  0.14532     C
C      0.59575  0.19737  0.45677     C
C      0.59575  0.30263  0.95677     C
C      0.59575  0.69737  0.54323     C
C      0.59575  0.80263  0.04323     C
H       0.5983   0.2197   0.3146     H
H       0.5983   0.2803   0.8146     H
H       0.5983   0.7197   0.6854     H
H       0.5983   0.7803   0.1854     H
H       0.6016   0.1679    0.485     H
H       0.6016   0.3321    0.985     H
H       0.6016   0.6679    0.515     H
H       0.6016   0.8321    0.015     H
O      0.60193  0.08429  0.54689     O
O      0.60193  0.41571  0.04689     O
O      0.60193  0.58429  0.45311     O
O      0.60193  0.91571  0.95311     O
C      0.60255   0.1844  0.39692     C
C      0.60255   0.3156  0.89692     C
C      0.60255   0.6844  0.60308     C
C      0.60255   0.8156  0.10308     C
C      0.60308  0.10255   0.3156     C
C      0.60308  0.39745   0.8156     C
C      0.60308  0.60255   0.6844     C
C      0.60308  0.89745   0.1844     C
C       0.6163   0.1163   0.3837     C
C       0.6163   0.3837   0.8837     C
C       0.6163   0.6163   0.6163     C
C       0.6163   0.8837   0.1163     C
C      0.62772  0.07826  0.21465     C
C      0.62772  0.42174  0.71465     C
C      0.62772  0.57826  0.78535     C
C      0.62772  0.92174  0.28535     C
O      0.63501  0.00295  0.96587     O
O      0.63501  0.49705  0.46587     O
O      0.63501  0.50295  0.03413     O
O      0.63501  0.99705  0.53413     O
C      0.64182  0.04725  0.55077     C
C      0.64182  0.45275  0.05077     C
C      0.64182  0.54725  0.44923     C
C      0.64182  0.95275  0.94923     C
C      0.64532   0.0938  0.27161     C
C      0.64532   0.4062  0.77161     C
C      0.64532   0.5938  0.72839     C
C      0.64532   0.9062  0.22839     C
H        0.656   0.0724   0.1852     H
H        0.656   0.4276   0.6852     H
H        0.656   0.5724   0.8148     H
H        0.656   0.9276   0.3148     H
H       0.6679    0.015   0.3984     H
H       0.6679    0.485   0.8984     H
H       0.6679    0.515   0.6016     H
H       0.6679    0.985   0.1016     H
C       0.6844  0.10308  0.39745     C
C       0.6844  0.39692  0.89745     C
C       0.6844  0.60308  0.60255     C
C       0.6844  0.89692  0.10255     C
H       0.6852    0.156   0.5724     H
H       0.6852    0.344   0.0724     H
H       0.6852    0.656   0.4276     H
H       0.6852    0.844   0.9276     H
H       0.6854   0.0983   0.2803     H
H       0.6854   0.4017   0.7803     H
H       0.6854   0.5983   0.7197     H
H       0.6854   0.9017   0.2197     H
C      0.69737  0.04323  0.40425     C
C      0.69737  0.45677  0.90425     C
C      0.69737  0.54323  0.59575     C
C      0.69737  0.95677  0.09575     C
C      0.70167  0.06787  0.57147     C
C      0.70167  0.43213  0.07147     C
C      0.70167  0.56787  0.42853     C
C      0.70167  0.93213  0.92853     C
C      0.71465  0.12772  0.57826     C
C      0.71465  0.37228  0.07826     C
C      0.71465  0.62772  0.42174     C
C      0.71465  0.87228  0.92174     C
H       0.7197   0.1854   0.4017     H
H       0.7197   0.3146   0.9017     H
H       0.7197   0.6854   0.5983     H
H       0.7197   0.8146   0.0983     H
C      0.72839  0.14532   0.4062     C
C      0.72839  0.35468   0.9062     C
C      0.72839  0.64532   0.5938     C
C      0.72839  0.85468   0.0938     C
H        0.737   0.0144   0.9243     H
H        0.737   0.4856   0.4243     H
H        0.737   0.5144   0.0757     H
H        0.737   0.9856   0.5757     H
C      0.74566  0.02563  0.58022     C
C      0.74566  0.47437  0.08022     C
C      0.74566  0.52563  0.41978     C
C      0.74566  0.97437  0.91978     C
C      0.75434  0.02563  0.41978     C
C      0.75434  0.47437  0.91978     C
C      0.75434  0.52563  0.58022     C
C      0.75434  0.97437  0.08022     C
H        0.763   0.0144   0.0757     H
H        0.763   0.4856   0.5757     H
H        0.763   0.5144   0.9243     H
H        0.763   0.9856   0.4243     H
C      0.77161  0.14532   0.5938     C
C      0.77161  0.35468   0.0938     C
C      0.77161  0.64532   0.4062     C
C      0.77161  0.85468   0.9062     C
H       0.7803   0.1854   0.5983     H
H       0.7803   0.3146   0.0983     H
H       0.7803   0.6854   0.4017     H
H       0.7803   0.8146   0.9017     H
C      0.78535  0.12772  0.42174     C
C      0.78535  0.37228  0.92174     C
C      0.78535  0.62772  0.57826     C
C      0.78535  0.87228  0.07826     C
C      0.79833  0.06787  0.42853     C
C      0.79833  0.43213  0.92853     C
C      0.79833  0.56787  0.57147     C
C      0.79833  0.93213  0.07147     C
C      0.80263  0.04323  0.59575     C
C      0.80263  0.45677  0.09575     C
C      0.80263  0.54323  0.40425     C
C      0.80263  0.95677  0.90425     C
H       0.8146   0.0983   0.7197     H
H       0.8146   0.4017   0.2197     H
H       0.8146   0.5983   0.2803     H
H       0.8146   0.9017   0.7803     H
H       0.8148    0.156   0.4276     H
H       0.8148    0.344   0.9276     H
H       0.8148    0.656   0.5724     H
H       0.8148    0.844   0.0724     H
C       0.8156  0.10308  0.60255     C
C       0.8156  0.39692  0.10255     C
C       0.8156  0.60308  0.39745     C
C       0.8156  0.89692  0.89745     C
H       0.8321    0.015   0.6016     H
H       0.8321    0.485   0.1016     H
H       0.8321    0.515   0.3984     H
H       0.8321    0.985   0.8984     H
H        0.844   0.0724   0.8148     H
H        0.844   0.4276   0.3148     H
H        0.844   0.5724   0.1852     H
H        0.844   0.9276   0.6852     H
C      0.85468   0.0938  0.72839     C
C      0.85468   0.4062  0.22839     C
C      0.85468   0.5938  0.27161     C
C      0.85468   0.9062  0.77161     C
C      0.85818  0.04725  0.44923     C
C      0.85818  0.45275  0.94923     C
C      0.85818  0.54725  0.55077     C
C      0.85818  0.95275  0.05077     C
O      0.86499  0.00295  0.03413     O
O      0.86499  0.49705  0.53413     O
O      0.86499  0.50295  0.96587     O
O      0.86499  0.99705  0.46587     O
C      0.87228  0.07826  0.78535     C
C      0.87228  0.42174  0.28535     C
C      0.87228  0.57826  0.21465     C
C      0.87228  0.92174  0.71465     C
C       0.8837   0.1163   0.6163     C
C       0.8837   0.3837   0.1163     C
C       0.8837   0.6163   0.3837     C
C       0.8837   0.8837   0.8837     C
C      0.89692  0.10255   0.6844     C
C      0.89692  0.39745   0.1844     C
C      0.89692  0.60255   0.3156     C
C      0.89692  0.89745   0.8156     C
C      0.89745   0.1844  0.60308     C
C      0.89745   0.3156  0.10308     C
C      0.89745   0.6844  0.39692     C
C      0.89745   0.8156  0.89692     C
O      0.89807  0.08429  0.45311     O
O      0.89807  0.41571  0.95311     O
O      0.89807  0.58429  0.54689     O
O      0.89807  0.91571  0.04689     O
H       0.8984   0.1679    0.515     H
H       0.8984   0.3321    0.015     H
H       0.8984   0.6679    0.485     H
H       0.8984   0.8321    0.985     H
H       0.9017   0.2197   0.6854     H
H       0.9017   0.2803   0.1854     H
H       0.9017   0.7197   0.3146     H
H       0.9017   0.7803   0.8146     H
C      0.90425  0.19737  0.54323     C
C      0.90425  0.30263  0.04323     C
C      0.90425  0.69737  0.45677     C
C      0.90425  0.80263  0.95677     C
C       0.9062  0.22839  0.64532     C
C       0.9062  0.27161  0.14532     C
C       0.9062  0.72839  0.35468     C
C       0.9062  0.77161  0.85468     C
H       0.9088   0.0912   0.5912     H
H       0.9088   0.4088   0.0912     H
H       0.9088   0.5912   0.4088     H
H       0.9088   0.9088   0.9088     H
O      0.91571  0.04689  0.89807     O
O      0.91571  0.45311  0.39807     O
O      0.91571  0.54689  0.10193     O
O      0.91571  0.95311  0.60193     O
C      0.91978  0.24566  0.02563     C
C      0.91978  0.25434  0.52563     C
C      0.91978  0.74566  0.97437     C
C      0.91978  0.75434  0.47437     C
C      0.92174  0.21465  0.12772     C
C      0.92174  0.28535  0.62772     C
C      0.92174  0.71465  0.87228     C
C      0.92174  0.78535  0.37228     C
H       0.9243    0.237   0.9856     H
H       0.9243    0.263   0.4856     H
H       0.9243    0.737   0.0144     H
H       0.9243    0.763   0.5144     H
H       0.9276   0.1852    0.156     H
H       0.9276   0.3148    0.656     H
H       0.9276   0.6852    0.844     H
H       0.9276   0.8148    0.344     H
Zn     0.92775  0.04628  0.98747    Zn
Zn     0.92775  0.45372  0.48747    Zn
Zn     0.92775  0.54628  0.01253    Zn
Zn     0.92775  0.95372  0.51253    Zn
C      0.92853  0.20167  0.06787     C
C      0.92853  0.29833  0.56787     C
C      0.92853  0.70167  0.93213     C
C      0.92853  0.79833  0.43213     C
C      0.93213  0.07147  0.79833     C
C      0.93213  0.42853  0.29833     C
C      0.93213  0.57147  0.20167     C
C      0.93213  0.92853  0.70167     C
C      0.94923  0.14182  0.04725     C
C      0.94923  0.35818  0.54725     C
C      0.94923  0.64182  0.95275     C
C      0.94923  0.85818  0.45275     C
C      0.95275  0.05077  0.85818     C
C      0.95275  0.44923  0.35818     C
C      0.95275  0.55077  0.14182     C
C      0.95275  0.94923  0.64182     C
O      0.95311  0.10193  0.08429     O
O      0.95311  0.39807  0.58429     O
O      0.95311  0.60193  0.91571     O
O      0.95311  0.89807  0.41571     O
Zn     0.95372  0.01253  0.07225    Zn
Zn     0.95372  0.48747  0.57225    Zn
Zn     0.95372  0.51253  0.92775    Zn
Zn     0.95372  0.98747  0.42775    Zn
C      0.95677  0.09575  0.69737     C
C      0.95677  0.40425  0.19737     C
C      0.95677  0.59575  0.30263     C
C      0.95677  0.90425  0.80263     C
O      0.96587  0.13501  0.99705     O
O      0.96587  0.36499  0.49705     O
O      0.96587  0.63501  0.00295     O
O      0.96587  0.86499  0.50295     O
C      0.97437  0.08022  0.75434     C
C      0.97437  0.41978  0.25434     C
C      0.97437  0.58022  0.24566     C
C      0.97437  0.91978  0.74566     C
H        0.985   0.1016   0.6679     H
H        0.985   0.3984   0.1679     H
H        0.985   0.6016   0.3321     H
H        0.985   0.8984   0.8321     H
H       0.9856   0.0757    0.263     H
H       0.9856   0.4243    0.763     H
H       0.9856   0.5757    0.737     H
H       0.9856   0.9243    0.237     H
Zn     0.98747  0.07225  0.45372    Zn
Zn     0.98747  0.42775  0.95372    Zn
Zn     0.98747  0.57225  0.54628    Zn
Zn     0.98747  0.92775  0.04628    Zn
O      0.99705  0.03413  0.36499     O
O      0.99705  0.46587  0.86499     O
O      0.99705  0.53413  0.63501     O
O      0.99705  0.96587  0.13501     O
