data_I
_chemical_name_common  '/home/zhangsd/repos/MofS-CGCNN/ML/data/SSD/clean_cifs/NEHGIS_clean'
_cell_length_a 22.51500
_cell_length_b 22.51500
_cell_length_c 22.51500
_cell_angle_alpha 90.00000
_cell_angle_beta  90.00000
_cell_angle_gamma 90.00000
_space_group_name_H-M_alt      'P 1'


loop_
_space_group_symop_operation_xyz
  'x, y, z' 

loop_
_atom_site_label
_atom_site_fract_x
_atom_site_fract_y
_atom_site_fract_z
_atom_site_type_symbol
C      0.00457  0.16802  0.72303     C
C      0.00457  0.33198  0.22303     C
C      0.00457  0.66802  0.27697     C
C      0.00457  0.83198  0.77697     C
H       0.0135   0.1727   0.7631     H
H       0.0135   0.3273   0.2631     H
H       0.0135   0.6727   0.2369     H
H       0.0135   0.8273   0.7369     H
C      0.02407  0.15461   0.1048     C
C      0.02407  0.34539   0.6048     C
C      0.02407  0.65461   0.8952     C
C      0.02407  0.84539   0.3952     C
C      0.03356  0.16724  0.62104     C
C      0.03356  0.33276  0.12104     C
C      0.03356  0.66724  0.37896     C
C      0.03356  0.83276  0.87896     C
H       0.0338   0.1506   0.0649     H
H       0.0338   0.3494   0.5649     H
H       0.0338   0.6506   0.9351     H
H       0.0338   0.8494   0.4351     H
C      0.04867  0.17495  0.68208     C
C      0.04867  0.32505  0.18208     C
C      0.04867  0.67495  0.31792     C
C      0.04867  0.82505  0.81792     C
C      0.05313  0.15417  0.20662     C
C      0.05313  0.34583  0.70662     C
C      0.05313  0.65417  0.79338     C
C      0.05313  0.84583  0.29338     C
H       0.0628   0.1708    0.592     H
H       0.0628   0.3292    0.092     H
H       0.0628   0.6708    0.408     H
H       0.0628   0.8292    0.908     H
H       0.0649   0.0338   0.1506     H
H       0.0649   0.4662   0.6506     H
H       0.0649   0.5338   0.8494     H
H       0.0649   0.9662   0.3494     H
C      0.06698  0.14794  0.14734     C
C      0.06698  0.35206  0.64734     C
C      0.06698  0.64794  0.85266     C
C      0.06698  0.85206  0.35266     C
H       0.0823   0.1491   0.2354     H
H       0.0823   0.3509   0.7354     H
H       0.0823   0.6491   0.7646     H
H       0.0823   0.8509   0.2646     H
H        0.092   0.0628   0.3292     H
H        0.092   0.4372   0.8292     H
H        0.092   0.5628   0.6708     H
H        0.092   0.9372   0.1708     H
C       0.1048  0.02407  0.15461     C
C       0.1048  0.47593  0.65461     C
C       0.1048  0.52407  0.84539     C
C       0.1048  0.97593  0.34539     C
C      0.10903   0.1957   0.7014     C
C      0.10903   0.3043   0.2014     C
C      0.10903   0.6957   0.2986     C
C      0.10903   0.8043   0.7986     C
O        0.115   0.2052   0.7524     O
O        0.115   0.2948   0.2524     O
O        0.115   0.7052   0.2476     O
O        0.115   0.7948   0.7476     O
C      0.12104  0.03356  0.33276     C
C      0.12104  0.46644  0.83276     C
C      0.12104  0.53356  0.66724     C
C      0.12104  0.96644  0.16724     C
C      0.13546  0.13546  0.13546     C
C      0.13546  0.36454  0.63546     C
C      0.13546  0.63546  0.86454     C
C      0.13546  0.86454  0.36454     C
C      0.14734  0.06698  0.14794     C
C      0.14734  0.43302  0.64794     C
C      0.14734  0.56698  0.85206     C
C      0.14734  0.93302  0.35206     C
C      0.14794  0.14734  0.06698     C
C      0.14794  0.35266  0.56698     C
C      0.14794  0.64734  0.93302     C
C      0.14794  0.85266  0.43302     C
H       0.1491   0.2354   0.0823     H
H       0.1491   0.2646   0.5823     H
H       0.1491   0.7354   0.9177     H
H       0.1491   0.7646   0.4177     H
O      0.15002  0.19876  0.66485     O
O      0.15002  0.30124  0.16485     O
O      0.15002  0.69876  0.33515     O
O      0.15002  0.80124  0.83515     O
H       0.1506   0.0649   0.0338     H
H       0.1506   0.4351   0.5338     H
H       0.1506   0.5649   0.9662     H
H       0.1506   0.9351   0.4662     H
C      0.15417  0.20662  0.05313     C
C      0.15417  0.29338  0.55313     C
C      0.15417  0.70662  0.94687     C
C      0.15417  0.79338  0.44687     C
C      0.15461   0.1048  0.02407     C
C      0.15461   0.3952  0.52407     C
C      0.15461   0.6048  0.97593     C
C      0.15461   0.8952  0.47593     C
H       0.1606   0.1606   0.1606     H
H       0.1606   0.3394   0.6606     H
H       0.1606   0.6606   0.8394     H
H       0.1606   0.8394   0.3394     H
O      0.16485  0.15002  0.30124     O
O      0.16485  0.34998  0.80124     O
O      0.16485  0.65002  0.69876     O
O      0.16485  0.84998  0.19876     O
C      0.16724  0.12104  0.96644     C
C      0.16724  0.37896  0.46644     C
C      0.16724  0.62104  0.03356     C
C      0.16724  0.87896  0.53356     C
C      0.16802  0.22303  0.99543     C
C      0.16802  0.27697  0.49543     C
C      0.16802  0.72303  0.00457     C
C      0.16802  0.77697  0.50457     C
H       0.1708    0.092   0.9372     H
H       0.1708    0.408   0.4372     H
H       0.1708    0.592   0.0628     H
H       0.1708    0.908   0.5628     H
H       0.1727   0.2369   0.4865     H
H       0.1727   0.2631   0.9865     H
H       0.1727   0.7369   0.5135     H
H       0.1727   0.7631   0.0135     H
C      0.17495  0.18208  0.95133     C
C      0.17495  0.31792  0.45133     C
C      0.17495  0.68208  0.04867     C
C      0.17495  0.81792  0.54867     C
Zn     0.17741  0.23739  0.29619    Zn
Zn     0.17741  0.26261  0.79619    Zn
Zn     0.17741  0.73739  0.70381    Zn
Zn     0.17741  0.76261  0.20381    Zn
C      0.18208  0.04867  0.32505     C
C      0.18208  0.45133  0.82505     C
C      0.18208  0.54867  0.67495     C
C      0.18208  0.95133  0.17495     C
C       0.1957   0.2014  0.89097     C
C       0.1957   0.2986  0.39097     C
C       0.1957   0.7014  0.10903     C
C       0.1957   0.7986  0.60903     C
O      0.19876  0.16485  0.84998     O
O      0.19876  0.33515  0.34998     O
O      0.19876  0.66485  0.15002     O
O      0.19876  0.83515  0.65002     O
C       0.2014  0.10903   0.3043     C
C       0.2014  0.39097   0.8043     C
C       0.2014  0.60903   0.6957     C
C       0.2014  0.89097   0.1957     C
Zn     0.20381  0.17741  0.76261    Zn
Zn     0.20381  0.32259  0.26261    Zn
Zn     0.20381  0.67741  0.23739    Zn
Zn     0.20381  0.82259  0.73739    Zn
O       0.2052   0.2476    0.385     O
O       0.2052   0.2524    0.885     O
O       0.2052   0.7476    0.615     O
O       0.2052   0.7524    0.115     O
C      0.20662  0.05313  0.15417     C
C      0.20662  0.44687  0.65417     C
C      0.20662  0.55313  0.84583     C
C      0.20662  0.94687  0.34583     C
C      0.22303  0.00457  0.33198     C
C      0.22303  0.49543  0.83198     C
C      0.22303  0.50457  0.66802     C
C      0.22303  0.99543  0.16802     C
H       0.2354   0.0823   0.1491     H
H       0.2354   0.4177   0.6491     H
H       0.2354   0.5823   0.8509     H
H       0.2354   0.9177   0.3509     H
H       0.2369   0.0135   0.6727     H
H       0.2369   0.4865   0.1727     H
H       0.2369   0.5135   0.3273     H
H       0.2369   0.9865   0.8273     H
Zn     0.23739  0.20381  0.67741    Zn
Zn     0.23739  0.29619  0.17741    Zn
Zn     0.23739  0.70381  0.32259    Zn
Zn     0.23739  0.79619  0.82259    Zn
O       0.2476    0.115   0.7052     O
O       0.2476    0.385   0.2052     O
O       0.2476    0.615   0.2948     O
O       0.2476    0.885   0.7948     O
O         0.25     0.25     0.25     O
O         0.25     0.25     0.75     O
O         0.25     0.75     0.25     O
O         0.25     0.75     0.75     O
O       0.2524    0.115   0.2948     O
O       0.2524    0.385   0.7948     O
O       0.2524    0.615   0.7052     O
O       0.2524    0.885   0.2052     O
Zn     0.26261  0.20381  0.32259    Zn
Zn     0.26261  0.29619  0.82259    Zn
Zn     0.26261  0.70381  0.67741    Zn
Zn     0.26261  0.79619  0.17741    Zn
H       0.2631   0.0135   0.3273     H
H       0.2631   0.4865   0.8273     H
H       0.2631   0.5135   0.6727     H
H       0.2631   0.9865   0.1727     H
H       0.2646   0.0823   0.8509     H
H       0.2646   0.4177   0.3509     H
H       0.2646   0.5823   0.1491     H
H       0.2646   0.9177   0.6491     H
C      0.27697  0.00457  0.66802     C
C      0.27697  0.49543  0.16802     C
C      0.27697  0.50457  0.33198     C
C      0.27697  0.99543  0.83198     C
C      0.29338  0.05313  0.84583     C
C      0.29338  0.44687  0.34583     C
C      0.29338  0.55313  0.15417     C
C      0.29338  0.94687  0.65417     C
O       0.2948   0.2476    0.615     O
O       0.2948   0.2524    0.115     O
O       0.2948   0.7476    0.385     O
O       0.2948   0.7524    0.885     O
Zn     0.29619  0.17741  0.23739    Zn
Zn     0.29619  0.32259  0.73739    Zn
Zn     0.29619  0.67741  0.76261    Zn
Zn     0.29619  0.82259  0.26261    Zn
C       0.2986  0.10903   0.6957     C
C       0.2986  0.39097   0.1957     C
C       0.2986  0.60903   0.3043     C
C       0.2986  0.89097   0.8043     C
O      0.30124  0.16485  0.15002     O
O      0.30124  0.33515  0.65002     O
O      0.30124  0.66485  0.84998     O
O      0.30124  0.83515  0.34998     O
C       0.3043   0.2014  0.10903     C
C       0.3043   0.2986  0.60903     C
C       0.3043   0.7014  0.89097     C
C       0.3043   0.7986  0.39097     C
C      0.31792  0.04867  0.67495     C
C      0.31792  0.45133  0.17495     C
C      0.31792  0.54867  0.32505     C
C      0.31792  0.95133  0.82505     C
Zn     0.32259  0.23739  0.70381    Zn
Zn     0.32259  0.26261  0.20381    Zn
Zn     0.32259  0.73739  0.29619    Zn
Zn     0.32259  0.76261  0.79619    Zn
C      0.32505  0.18208  0.04867     C
C      0.32505  0.31792  0.54867     C
C      0.32505  0.68208  0.95133     C
C      0.32505  0.81792  0.45133     C
H       0.3273   0.2369   0.5135     H
H       0.3273   0.2631   0.0135     H
H       0.3273   0.7369   0.4865     H
H       0.3273   0.7631   0.9865     H
H       0.3292    0.092   0.0628     H
H       0.3292    0.408   0.5628     H
H       0.3292    0.592   0.9372     H
H       0.3292    0.908   0.4372     H
C      0.33198  0.22303  0.00457     C
C      0.33198  0.27697  0.50457     C
C      0.33198  0.72303  0.99543     C
C      0.33198  0.77697  0.49543     C
C      0.33276  0.12104  0.03356     C
C      0.33276  0.37896  0.53356     C
C      0.33276  0.62104  0.96644     C
C      0.33276  0.87896  0.46644     C
O      0.33515  0.15002  0.69876     O
O      0.33515  0.34998  0.19876     O
O      0.33515  0.65002  0.30124     O
O      0.33515  0.84998  0.80124     O
H       0.3394   0.1606   0.8394     H
H       0.3394   0.3394   0.3394     H
H       0.3394   0.6606   0.1606     H
H       0.3394   0.8394   0.6606     H
C      0.34539   0.1048  0.97593     C
C      0.34539   0.3952  0.47593     C
C      0.34539   0.6048  0.02407     C
C      0.34539   0.8952  0.52407     C
C      0.34583  0.20662  0.94687     C
C      0.34583  0.29338  0.44687     C
C      0.34583  0.70662  0.05313     C
C      0.34583  0.79338  0.55313     C
H       0.3494   0.0649   0.9662     H
H       0.3494   0.4351   0.4662     H
H       0.3494   0.5649   0.0338     H
H       0.3494   0.9351   0.5338     H
O      0.34998  0.19876  0.33515     O
O      0.34998  0.30124  0.83515     O
O      0.34998  0.69876  0.66485     O
O      0.34998  0.80124  0.16485     O
H       0.3509   0.2354   0.9177     H
H       0.3509   0.2646   0.4177     H
H       0.3509   0.7354   0.0823     H
H       0.3509   0.7646   0.5823     H
C      0.35206  0.14734  0.93302     C
C      0.35206  0.35266  0.43302     C
C      0.35206  0.64734  0.06698     C
C      0.35206  0.85266  0.56698     C
C      0.35266  0.06698  0.85206     C
C      0.35266  0.43302  0.35206     C
C      0.35266  0.56698  0.14794     C
C      0.35266  0.93302  0.64794     C
C      0.36454  0.13546  0.86454     C
C      0.36454  0.36454  0.36454     C
C      0.36454  0.63546  0.13546     C
C      0.36454  0.86454  0.63546     C
C      0.37896  0.03356  0.66724     C
C      0.37896  0.46644  0.16724     C
C      0.37896  0.53356  0.33276     C
C      0.37896  0.96644  0.83276     C
O        0.385   0.2052   0.2476     O
O        0.385   0.2948   0.7476     O
O        0.385   0.7052   0.7524     O
O        0.385   0.7948   0.2524     O
C      0.39097   0.1957   0.2986     C
C      0.39097   0.3043   0.7986     C
C      0.39097   0.6957   0.7014     C
C      0.39097   0.8043   0.2014     C
C       0.3952  0.02407  0.84539     C
C       0.3952  0.47593  0.34539     C
C       0.3952  0.52407  0.15461     C
C       0.3952  0.97593  0.65461     C
H        0.408   0.0628   0.6708     H
H        0.408   0.4372   0.1708     H
H        0.408   0.5628   0.3292     H
H        0.408   0.9372   0.8292     H
H       0.4177   0.1491   0.7646     H
H       0.4177   0.3509   0.2646     H
H       0.4177   0.6491   0.2354     H
H       0.4177   0.8509   0.7354     H
C      0.43302  0.14794  0.85266     C
C      0.43302  0.35206  0.35266     C
C      0.43302  0.64794  0.14734     C
C      0.43302  0.85206  0.64734     C
H       0.4351   0.0338   0.8494     H
H       0.4351   0.4662   0.3494     H
H       0.4351   0.5338   0.1506     H
H       0.4351   0.9662   0.6506     H
H       0.4372   0.1708    0.408     H
H       0.4372   0.3292    0.908     H
H       0.4372   0.6708    0.592     H
H       0.4372   0.8292    0.092     H
C      0.44687  0.15417  0.79338     C
C      0.44687  0.34583  0.29338     C
C      0.44687  0.65417  0.20662     C
C      0.44687  0.84583  0.70662     C
C      0.45133  0.17495  0.31792     C
C      0.45133  0.32505  0.81792     C
C      0.45133  0.67495  0.68208     C
C      0.45133  0.82505  0.18208     C
H       0.4662   0.1506   0.9351     H
H       0.4662   0.3494   0.4351     H
H       0.4662   0.6506   0.0649     H
H       0.4662   0.8494   0.5649     H
C      0.46644  0.16724  0.37896     C
C      0.46644  0.33276  0.87896     C
C      0.46644  0.66724  0.62104     C
C      0.46644  0.83276  0.12104     C
C      0.47593  0.15461   0.8952     C
C      0.47593  0.34539   0.3952     C
C      0.47593  0.65461   0.1048     C
C      0.47593  0.84539   0.6048     C
H       0.4865   0.1727   0.2369     H
H       0.4865   0.3273   0.7369     H
H       0.4865   0.6727   0.7631     H
H       0.4865   0.8273   0.2631     H
C      0.49543  0.16802  0.27697     C
C      0.49543  0.33198  0.77697     C
C      0.49543  0.66802  0.72303     C
C      0.49543  0.83198  0.22303     C
C      0.50457  0.16802  0.77697     C
C      0.50457  0.33198  0.27697     C
C      0.50457  0.66802  0.22303     C
C      0.50457  0.83198  0.72303     C
H       0.5135   0.1727   0.7369     H
H       0.5135   0.3273   0.2369     H
H       0.5135   0.6727   0.2631     H
H       0.5135   0.8273   0.7631     H
C      0.52407  0.15461   0.3952     C
C      0.52407  0.34539   0.8952     C
C      0.52407  0.65461   0.6048     C
C      0.52407  0.84539   0.1048     C
C      0.53356  0.16724  0.87896     C
C      0.53356  0.33276  0.37896     C
C      0.53356  0.66724  0.12104     C
C      0.53356  0.83276  0.62104     C
H       0.5338   0.1506   0.4351     H
H       0.5338   0.3494   0.9351     H
H       0.5338   0.6506   0.5649     H
H       0.5338   0.8494   0.0649     H
C      0.54867  0.17495  0.81792     C
C      0.54867  0.32505  0.31792     C
C      0.54867  0.67495  0.18208     C
C      0.54867  0.82505  0.68208     C
C      0.55313  0.15417  0.29338     C
C      0.55313  0.34583  0.79338     C
C      0.55313  0.65417  0.70662     C
C      0.55313  0.84583  0.20662     C
H       0.5628   0.1708    0.908     H
H       0.5628   0.3292    0.408     H
H       0.5628   0.6708    0.092     H
H       0.5628   0.8292    0.592     H
H       0.5649   0.0338   0.3494     H
H       0.5649   0.4662   0.8494     H
H       0.5649   0.5338   0.6506     H
H       0.5649   0.9662   0.1506     H
C      0.56698  0.14794  0.35266     C
C      0.56698  0.35206  0.85266     C
C      0.56698  0.64794  0.64734     C
C      0.56698  0.85206  0.14734     C
H       0.5823   0.1491   0.2646     H
H       0.5823   0.3509   0.7646     H
H       0.5823   0.6491   0.7354     H
H       0.5823   0.8509   0.2354     H
H        0.592   0.0628   0.1708     H
H        0.592   0.4372   0.6708     H
H        0.592   0.5628   0.8292     H
H        0.592   0.9372   0.3292     H
C       0.6048  0.02407  0.34539     C
C       0.6048  0.47593  0.84539     C
C       0.6048  0.52407  0.65461     C
C       0.6048  0.97593  0.15461     C
C      0.60903   0.1957   0.7986     C
C      0.60903   0.3043   0.2986     C
C      0.60903   0.6957   0.2014     C
C      0.60903   0.8043   0.7014     C
O        0.615   0.2052   0.7476     O
O        0.615   0.2948   0.2476     O
O        0.615   0.7052   0.2524     O
O        0.615   0.7948   0.7524     O
C      0.62104  0.03356  0.16724     C
C      0.62104  0.46644  0.66724     C
C      0.62104  0.53356  0.83276     C
C      0.62104  0.96644  0.33276     C
C      0.63546  0.13546  0.36454     C
C      0.63546  0.36454  0.86454     C
C      0.63546  0.63546  0.63546     C
C      0.63546  0.86454  0.13546     C
C      0.64734  0.06698  0.35206     C
C      0.64734  0.43302  0.85206     C
C      0.64734  0.56698  0.64794     C
C      0.64734  0.93302  0.14794     C
C      0.64794  0.14734  0.43302     C
C      0.64794  0.35266  0.93302     C
C      0.64794  0.64734  0.56698     C
C      0.64794  0.85266  0.06698     C
H       0.6491   0.2354   0.4177     H
H       0.6491   0.2646   0.9177     H
H       0.6491   0.7354   0.5823     H
H       0.6491   0.7646   0.0823     H
O      0.65002  0.19876  0.83515     O
O      0.65002  0.30124  0.33515     O
O      0.65002  0.69876  0.16485     O
O      0.65002  0.80124  0.66485     O
H       0.6506   0.0649   0.4662     H
H       0.6506   0.4351   0.9662     H
H       0.6506   0.5649   0.5338     H
H       0.6506   0.9351   0.0338     H
C      0.65417  0.20662  0.44687     C
C      0.65417  0.29338  0.94687     C
C      0.65417  0.70662  0.55313     C
C      0.65417  0.79338  0.05313     C
C      0.65461   0.1048  0.47593     C
C      0.65461   0.3952  0.97593     C
C      0.65461   0.6048  0.52407     C
C      0.65461   0.8952  0.02407     C
H       0.6606   0.1606   0.3394     H
H       0.6606   0.3394   0.8394     H
H       0.6606   0.6606   0.6606     H
H       0.6606   0.8394   0.1606     H
O      0.66485  0.15002  0.19876     O
O      0.66485  0.34998  0.69876     O
O      0.66485  0.65002  0.80124     O
O      0.66485  0.84998  0.30124     O
C      0.66724  0.12104  0.53356     C
C      0.66724  0.37896  0.03356     C
C      0.66724  0.62104  0.46644     C
C      0.66724  0.87896  0.96644     C
C      0.66802  0.22303  0.50457     C
C      0.66802  0.27697  0.00457     C
C      0.66802  0.72303  0.49543     C
C      0.66802  0.77697  0.99543     C
H       0.6708    0.092   0.5628     H
H       0.6708    0.408   0.0628     H
H       0.6708    0.592   0.4372     H
H       0.6708    0.908   0.9372     H
H       0.6727   0.2369   0.0135     H
H       0.6727   0.2631   0.5135     H
H       0.6727   0.7369   0.9865     H
H       0.6727   0.7631   0.4865     H
C      0.67495  0.18208  0.54867     C
C      0.67495  0.31792  0.04867     C
C      0.67495  0.68208  0.45133     C
C      0.67495  0.81792  0.95133     C
Zn     0.67741  0.23739  0.20381    Zn
Zn     0.67741  0.26261  0.70381    Zn
Zn     0.67741  0.73739  0.79619    Zn
Zn     0.67741  0.76261  0.29619    Zn
C      0.68208  0.04867  0.17495     C
C      0.68208  0.45133  0.67495     C
C      0.68208  0.54867  0.82505     C
C      0.68208  0.95133  0.32505     C
C       0.6957   0.2014  0.60903     C
C       0.6957   0.2986  0.10903     C
C       0.6957   0.7014  0.39097     C
C       0.6957   0.7986  0.89097     C
O      0.69876  0.16485  0.65002     O
O      0.69876  0.33515  0.15002     O
O      0.69876  0.66485  0.34998     O
O      0.69876  0.83515  0.84998     O
C       0.7014  0.10903   0.1957     C
C       0.7014  0.39097   0.6957     C
C       0.7014  0.60903   0.8043     C
C       0.7014  0.89097   0.3043     C
Zn     0.70381  0.17741  0.73739    Zn
Zn     0.70381  0.32259  0.23739    Zn
Zn     0.70381  0.67741  0.26261    Zn
Zn     0.70381  0.82259  0.76261    Zn
O       0.7052   0.2476    0.115     O
O       0.7052   0.2524    0.615     O
O       0.7052   0.7476    0.885     O
O       0.7052   0.7524    0.385     O
C      0.70662  0.05313  0.34583     C
C      0.70662  0.44687  0.84583     C
C      0.70662  0.55313  0.65417     C
C      0.70662  0.94687  0.15417     C
C      0.72303  0.00457  0.16802     C
C      0.72303  0.49543  0.66802     C
C      0.72303  0.50457  0.83198     C
C      0.72303  0.99543  0.33198     C
H       0.7354   0.0823   0.3509     H
H       0.7354   0.4177   0.8509     H
H       0.7354   0.5823   0.6491     H
H       0.7354   0.9177   0.1491     H
H       0.7369   0.0135   0.8273     H
H       0.7369   0.4865   0.3273     H
H       0.7369   0.5135   0.1727     H
H       0.7369   0.9865   0.6727     H
Zn     0.73739  0.20381  0.82259    Zn
Zn     0.73739  0.29619  0.32259    Zn
Zn     0.73739  0.70381  0.17741    Zn
Zn     0.73739  0.79619  0.67741    Zn
O       0.7476    0.115   0.7948     O
O       0.7476    0.385   0.2948     O
O       0.7476    0.615   0.2052     O
O       0.7476    0.885   0.7052     O
O         0.75     0.25     0.25     O
O         0.75     0.25     0.75     O
O         0.75     0.75     0.25     O
O         0.75     0.75     0.75     O
O       0.7524    0.115   0.2052     O
O       0.7524    0.385   0.7052     O
O       0.7524    0.615   0.7948     O
O       0.7524    0.885   0.2948     O
Zn     0.76261  0.20381  0.17741    Zn
Zn     0.76261  0.29619  0.67741    Zn
Zn     0.76261  0.70381  0.82259    Zn
Zn     0.76261  0.79619  0.32259    Zn
H       0.7631   0.0135   0.1727     H
H       0.7631   0.4865   0.6727     H
H       0.7631   0.5135   0.8273     H
H       0.7631   0.9865   0.3273     H
H       0.7646   0.0823   0.6491     H
H       0.7646   0.4177   0.1491     H
H       0.7646   0.5823   0.3509     H
H       0.7646   0.9177   0.8509     H
C      0.77697  0.00457  0.83198     C
C      0.77697  0.49543  0.33198     C
C      0.77697  0.50457  0.16802     C
C      0.77697  0.99543  0.66802     C
C      0.79338  0.05313  0.65417     C
C      0.79338  0.44687  0.15417     C
C      0.79338  0.55313  0.34583     C
C      0.79338  0.94687  0.84583     C
O       0.7948   0.2476    0.885     O
O       0.7948   0.2524    0.385     O
O       0.7948   0.7476    0.115     O
O       0.7948   0.7524    0.615     O
Zn     0.79619  0.17741  0.26261    Zn
Zn     0.79619  0.32259  0.76261    Zn
Zn     0.79619  0.67741  0.73739    Zn
Zn     0.79619  0.82259  0.23739    Zn
C       0.7986  0.10903   0.8043     C
C       0.7986  0.39097   0.3043     C
C       0.7986  0.60903   0.1957     C
C       0.7986  0.89097   0.6957     C
O      0.80124  0.16485  0.34998     O
O      0.80124  0.33515  0.84998     O
O      0.80124  0.66485  0.65002     O
O      0.80124  0.83515  0.15002     O
C       0.8043   0.2014  0.39097     C
C       0.8043   0.2986  0.89097     C
C       0.8043   0.7014  0.60903     C
C       0.8043   0.7986  0.10903     C
C      0.81792  0.04867  0.82505     C
C      0.81792  0.45133  0.32505     C
C      0.81792  0.54867  0.17495     C
C      0.81792  0.95133  0.67495     C
Zn     0.82259  0.23739  0.79619    Zn
Zn     0.82259  0.26261  0.29619    Zn
Zn     0.82259  0.73739  0.20381    Zn
Zn     0.82259  0.76261  0.70381    Zn
C      0.82505  0.18208  0.45133     C
C      0.82505  0.31792  0.95133     C
C      0.82505  0.68208  0.54867     C
C      0.82505  0.81792  0.04867     C
H       0.8273   0.2369   0.9865     H
H       0.8273   0.2631   0.4865     H
H       0.8273   0.7369   0.0135     H
H       0.8273   0.7631   0.5135     H
H       0.8292    0.092   0.4372     H
H       0.8292    0.408   0.9372     H
H       0.8292    0.592   0.5628     H
H       0.8292    0.908   0.0628     H
C      0.83198  0.22303  0.49543     C
C      0.83198  0.27697  0.99543     C
C      0.83198  0.72303  0.50457     C
C      0.83198  0.77697  0.00457     C
C      0.83276  0.12104  0.46644     C
C      0.83276  0.37896  0.96644     C
C      0.83276  0.62104  0.53356     C
C      0.83276  0.87896  0.03356     C
O      0.83515  0.15002  0.80124     O
O      0.83515  0.34998  0.30124     O
O      0.83515  0.65002  0.19876     O
O      0.83515  0.84998  0.69876     O
H       0.8394   0.1606   0.6606     H
H       0.8394   0.3394   0.1606     H
H       0.8394   0.6606   0.3394     H
H       0.8394   0.8394   0.8394     H
C      0.84539   0.1048  0.52407     C
C      0.84539   0.3952  0.02407     C
C      0.84539   0.6048  0.47593     C
C      0.84539   0.8952  0.97593     C
C      0.84583  0.20662  0.55313     C
C      0.84583  0.29338  0.05313     C
C      0.84583  0.70662  0.44687     C
C      0.84583  0.79338  0.94687     C
H       0.8494   0.0649   0.5338     H
H       0.8494   0.4351   0.0338     H
H       0.8494   0.5649   0.4662     H
H       0.8494   0.9351   0.9662     H
O      0.84998  0.19876  0.16485     O
O      0.84998  0.30124  0.66485     O
O      0.84998  0.69876  0.83515     O
O      0.84998  0.80124  0.33515     O
H       0.8509   0.2354   0.5823     H
H       0.8509   0.2646   0.0823     H
H       0.8509   0.7354   0.4177     H
H       0.8509   0.7646   0.9177     H
C      0.85206  0.14734  0.56698     C
C      0.85206  0.35266  0.06698     C
C      0.85206  0.64734  0.43302     C
C      0.85206  0.85266  0.93302     C
C      0.85266  0.06698  0.64794     C
C      0.85266  0.43302  0.14794     C
C      0.85266  0.56698  0.35206     C
C      0.85266  0.93302  0.85206     C
C      0.86454  0.13546  0.63546     C
C      0.86454  0.36454  0.13546     C
C      0.86454  0.63546  0.36454     C
C      0.86454  0.86454  0.86454     C
C      0.87896  0.03356  0.83276     C
C      0.87896  0.46644  0.33276     C
C      0.87896  0.53356  0.16724     C
C      0.87896  0.96644  0.66724     C
O        0.885   0.2052   0.2524     O
O        0.885   0.2948   0.7524     O
O        0.885   0.7052   0.7476     O
O        0.885   0.7948   0.2476     O
C      0.89097   0.1957   0.2014     C
C      0.89097   0.3043   0.7014     C
C      0.89097   0.6957   0.7986     C
C      0.89097   0.8043   0.2986     C
C       0.8952  0.02407  0.65461     C
C       0.8952  0.47593  0.15461     C
C       0.8952  0.52407  0.34539     C
C       0.8952  0.97593  0.84539     C
H        0.908   0.0628   0.8292     H
H        0.908   0.4372   0.3292     H
H        0.908   0.5628   0.1708     H
H        0.908   0.9372   0.6708     H
H       0.9177   0.1491   0.7354     H
H       0.9177   0.3509   0.2354     H
H       0.9177   0.6491   0.2646     H
H       0.9177   0.8509   0.7646     H
C      0.93302  0.14794  0.64734     C
C      0.93302  0.35206  0.14734     C
C      0.93302  0.64794  0.35266     C
C      0.93302  0.85206  0.85266     C
H       0.9351   0.0338   0.6506     H
H       0.9351   0.4662   0.1506     H
H       0.9351   0.5338   0.3494     H
H       0.9351   0.9662   0.8494     H
H       0.9372   0.1708    0.092     H
H       0.9372   0.3292    0.592     H
H       0.9372   0.6708    0.908     H
H       0.9372   0.8292    0.408     H
C      0.94687  0.15417  0.70662     C
C      0.94687  0.34583  0.20662     C
C      0.94687  0.65417  0.29338     C
C      0.94687  0.84583  0.79338     C
C      0.95133  0.17495  0.18208     C
C      0.95133  0.32505  0.68208     C
C      0.95133  0.67495  0.81792     C
C      0.95133  0.82505  0.31792     C
H       0.9662   0.1506   0.5649     H
H       0.9662   0.3494   0.0649     H
H       0.9662   0.6506   0.4351     H
H       0.9662   0.8494   0.9351     H
C      0.96644  0.16724  0.12104     C
C      0.96644  0.33276  0.62104     C
C      0.96644  0.66724  0.87896     C
C      0.96644  0.83276  0.37896     C
C      0.97593  0.15461   0.6048     C
C      0.97593  0.34539   0.1048     C
C      0.97593  0.65461   0.3952     C
C      0.97593  0.84539   0.8952     C
H       0.9865   0.1727   0.2631     H
H       0.9865   0.3273   0.7631     H
H       0.9865   0.6727   0.7369     H
H       0.9865   0.8273   0.2369     H
C      0.99543  0.16802  0.22303     C
C      0.99543  0.33198  0.72303     C
C      0.99543  0.66802  0.77697     C
C      0.99543  0.83198  0.27697     C
