data_I
_chemical_name_common  '/home/zhangsd/repos/MofS-CGCNN/ML/data/SSD/clean_cifs/NEXVET_clean'
_cell_length_a 25.83800
_cell_length_b 25.83800
_cell_length_c 25.83800
_cell_angle_alpha 90.00000
_cell_angle_beta  90.00000
_cell_angle_gamma 90.00000
_space_group_name_H-M_alt      'P 1'


loop_
_space_group_symop_operation_xyz
  'x, y, z' 

loop_
_atom_site_label
_atom_site_fract_x
_atom_site_fract_y
_atom_site_fract_z
_atom_site_type_symbol
C       0.0271  0.21749  0.21749     C
C       0.0271  0.21749  0.78251     C
C       0.0271  0.28251  0.28251     C
C       0.0271  0.28251  0.71749     C
C       0.0271  0.71749  0.28251     C
C       0.0271  0.71749  0.71749     C
C       0.0271  0.78251  0.21749     C
C       0.0271  0.78251  0.78251     C
H       0.0455    0.195    0.195     H
H       0.0455    0.195    0.805     H
H       0.0455    0.305    0.305     H
H       0.0455    0.305    0.695     H
H       0.0455    0.695    0.305     H
H       0.0455    0.695    0.695     H
H       0.0455    0.805    0.195     H
H       0.0455    0.805    0.805     H
C       0.0532     0.25     0.25     C
C       0.0532     0.25     0.75     C
C       0.0532     0.75     0.25     C
C       0.0532     0.75     0.75     C
C       0.1108     0.25     0.25     C
C       0.1108     0.25     0.75     C
C       0.1108     0.75     0.25     C
C       0.1108     0.75     0.75     C
O      0.13338  0.21893  0.21893     O
O      0.13338  0.21893  0.78107     O
O      0.13338  0.28107  0.28107     O
O      0.13338  0.28107  0.71893     O
O      0.13338  0.71893  0.28107     O
O      0.13338  0.71893  0.71893     O
O      0.13338  0.78107  0.21893     O
O      0.13338  0.78107  0.78107     O
H        0.195   0.0455    0.195     H
H        0.195   0.0455    0.805     H
H        0.195    0.195   0.0455     H
H        0.195    0.195   0.9545     H
H        0.195    0.305   0.4545     H
H        0.195    0.305   0.5455     H
H        0.195   0.4545    0.305     H
H        0.195   0.4545    0.695     H
H        0.195   0.5455    0.305     H
H        0.195   0.5455    0.695     H
H        0.195    0.695   0.4545     H
H        0.195    0.695   0.5455     H
H        0.195    0.805   0.0455     H
H        0.195    0.805   0.9545     H
H        0.195   0.9545    0.195     H
H        0.195   0.9545    0.805     H
Ni     0.20654  0.20654  0.20654    Ni
Ni     0.20654  0.20654  0.79346    Ni
Ni     0.20654  0.29346  0.29346    Ni
Ni     0.20654  0.29346  0.70654    Ni
Ni     0.20654  0.70654  0.29346    Ni
Ni     0.20654  0.70654  0.70654    Ni
Ni     0.20654  0.79346  0.20654    Ni
Ni     0.20654  0.79346  0.79346    Ni
C      0.21749   0.0271  0.21749     C
C      0.21749   0.0271  0.78251     C
C      0.21749  0.21749   0.0271     C
C      0.21749  0.21749   0.9729     C
C      0.21749  0.28251   0.4729     C
C      0.21749  0.28251   0.5271     C
C      0.21749   0.4729  0.28251     C
C      0.21749   0.4729  0.71749     C
C      0.21749   0.5271  0.28251     C
C      0.21749   0.5271  0.71749     C
C      0.21749  0.71749   0.4729     C
C      0.21749  0.71749   0.5271     C
C      0.21749  0.78251   0.0271     C
C      0.21749  0.78251   0.9729     C
C      0.21749   0.9729  0.21749     C
C      0.21749   0.9729  0.78251     C
O      0.21893  0.13338  0.21893     O
O      0.21893  0.13338  0.78107     O
O      0.21893  0.21893  0.13338     O
O      0.21893  0.21893  0.86662     O
O      0.21893  0.28107  0.36662     O
O      0.21893  0.28107  0.63338     O
O      0.21893  0.36662  0.28107     O
O      0.21893  0.36662  0.71893     O
O      0.21893  0.63338  0.28107     O
O      0.21893  0.63338  0.71893     O
O      0.21893  0.71893  0.36662     O
O      0.21893  0.71893  0.63338     O
O      0.21893  0.78107  0.13338     O
O      0.21893  0.78107  0.86662     O
O      0.21893  0.86662  0.21893     O
O      0.21893  0.86662  0.78107     O
C         0.25   0.0532     0.25     C
C         0.25   0.0532     0.75     C
C         0.25   0.1108     0.25     C
C         0.25   0.1108     0.75     C
C         0.25     0.25   0.0532     C
C         0.25     0.25   0.1108     C
O         0.25     0.25     0.25     O
C         0.25     0.25   0.3892     C
C         0.25     0.25   0.4468     C
C         0.25     0.25   0.5532     C
C         0.25     0.25   0.6108     C
O         0.25     0.25     0.75     O
C         0.25     0.25   0.8892     C
C         0.25     0.25   0.9468     C
C         0.25   0.3892     0.25     C
C         0.25   0.3892     0.75     C
C         0.25   0.4468     0.25     C
C         0.25   0.4468     0.75     C
C         0.25   0.5532     0.25     C
C         0.25   0.5532     0.75     C
C         0.25   0.6108     0.25     C
C         0.25   0.6108     0.75     C
C         0.25     0.75   0.0532     C
C         0.25     0.75   0.1108     C
O         0.25     0.75     0.25     O
C         0.25     0.75   0.3892     C
C         0.25     0.75   0.4468     C
C         0.25     0.75   0.5532     C
C         0.25     0.75   0.6108     C
O         0.25     0.75     0.75     O
C         0.25     0.75   0.8892     C
C         0.25     0.75   0.9468     C
C         0.25   0.8892     0.25     C
C         0.25   0.8892     0.75     C
C         0.25   0.9468     0.25     C
C         0.25   0.9468     0.75     C
O      0.28107  0.13338  0.28107     O
O      0.28107  0.13338  0.71893     O
O      0.28107  0.21893  0.36662     O
O      0.28107  0.21893  0.63338     O
O      0.28107  0.28107  0.13338     O
O      0.28107  0.28107  0.86662     O
O      0.28107  0.36662  0.21893     O
O      0.28107  0.36662  0.78107     O
O      0.28107  0.63338  0.21893     O
O      0.28107  0.63338  0.78107     O
O      0.28107  0.71893  0.13338     O
O      0.28107  0.71893  0.86662     O
O      0.28107  0.78107  0.36662     O
O      0.28107  0.78107  0.63338     O
O      0.28107  0.86662  0.28107     O
O      0.28107  0.86662  0.71893     O
C      0.28251   0.0271  0.28251     C
C      0.28251   0.0271  0.71749     C
C      0.28251  0.21749   0.4729     C
C      0.28251  0.21749   0.5271     C
C      0.28251  0.28251   0.0271     C
C      0.28251  0.28251   0.9729     C
C      0.28251   0.4729  0.21749     C
C      0.28251   0.4729  0.78251     C
C      0.28251   0.5271  0.21749     C
C      0.28251   0.5271  0.78251     C
C      0.28251  0.71749   0.0271     C
C      0.28251  0.71749   0.9729     C
C      0.28251  0.78251   0.4729     C
C      0.28251  0.78251   0.5271     C
C      0.28251   0.9729  0.28251     C
C      0.28251   0.9729  0.71749     C
Ni     0.29346  0.20654  0.29346    Ni
Ni     0.29346  0.20654  0.70654    Ni
Ni     0.29346  0.29346  0.20654    Ni
Ni     0.29346  0.29346  0.79346    Ni
Ni     0.29346  0.70654  0.20654    Ni
Ni     0.29346  0.70654  0.79346    Ni
Ni     0.29346  0.79346  0.29346    Ni
Ni     0.29346  0.79346  0.70654    Ni
H        0.305   0.0455    0.305     H
H        0.305   0.0455    0.695     H
H        0.305    0.195   0.4545     H
H        0.305    0.195   0.5455     H
H        0.305    0.305   0.0455     H
H        0.305    0.305   0.9545     H
H        0.305   0.4545    0.195     H
H        0.305   0.4545    0.805     H
H        0.305   0.5455    0.195     H
H        0.305   0.5455    0.805     H
H        0.305    0.695   0.0455     H
H        0.305    0.695   0.9545     H
H        0.305    0.805   0.4545     H
H        0.305    0.805   0.5455     H
H        0.305   0.9545    0.305     H
H        0.305   0.9545    0.695     H
O      0.36662  0.21893  0.28107     O
O      0.36662  0.21893  0.71893     O
O      0.36662  0.28107  0.21893     O
O      0.36662  0.28107  0.78107     O
O      0.36662  0.71893  0.21893     O
O      0.36662  0.71893  0.78107     O
O      0.36662  0.78107  0.28107     O
O      0.36662  0.78107  0.71893     O
C       0.3892     0.25     0.25     C
C       0.3892     0.25     0.75     C
C       0.3892     0.75     0.25     C
C       0.3892     0.75     0.75     C
C       0.4468     0.25     0.25     C
C       0.4468     0.25     0.75     C
C       0.4468     0.75     0.25     C
C       0.4468     0.75     0.75     C
H       0.4545    0.195    0.305     H
H       0.4545    0.195    0.695     H
H       0.4545    0.305    0.195     H
H       0.4545    0.305    0.805     H
H       0.4545    0.695    0.195     H
H       0.4545    0.695    0.805     H
H       0.4545    0.805    0.305     H
H       0.4545    0.805    0.695     H
C       0.4729  0.21749  0.28251     C
C       0.4729  0.21749  0.71749     C
C       0.4729  0.28251  0.21749     C
C       0.4729  0.28251  0.78251     C
C       0.4729  0.71749  0.21749     C
C       0.4729  0.71749  0.78251     C
C       0.4729  0.78251  0.28251     C
C       0.4729  0.78251  0.71749     C
C       0.5271  0.21749  0.28251     C
C       0.5271  0.21749  0.71749     C
C       0.5271  0.28251  0.21749     C
C       0.5271  0.28251  0.78251     C
C       0.5271  0.71749  0.21749     C
C       0.5271  0.71749  0.78251     C
C       0.5271  0.78251  0.28251     C
C       0.5271  0.78251  0.71749     C
H       0.5455    0.195    0.305     H
H       0.5455    0.195    0.695     H
H       0.5455    0.305    0.195     H
H       0.5455    0.305    0.805     H
H       0.5455    0.695    0.195     H
H       0.5455    0.695    0.805     H
H       0.5455    0.805    0.305     H
H       0.5455    0.805    0.695     H
C       0.5532     0.25     0.25     C
C       0.5532     0.25     0.75     C
C       0.5532     0.75     0.25     C
C       0.5532     0.75     0.75     C
C       0.6108     0.25     0.25     C
C       0.6108     0.25     0.75     C
C       0.6108     0.75     0.25     C
C       0.6108     0.75     0.75     C
O      0.63338  0.21893  0.28107     O
O      0.63338  0.21893  0.71893     O
O      0.63338  0.28107  0.21893     O
O      0.63338  0.28107  0.78107     O
O      0.63338  0.71893  0.21893     O
O      0.63338  0.71893  0.78107     O
O      0.63338  0.78107  0.28107     O
O      0.63338  0.78107  0.71893     O
H        0.695   0.0455    0.305     H
H        0.695   0.0455    0.695     H
H        0.695    0.195   0.4545     H
H        0.695    0.195   0.5455     H
H        0.695    0.305   0.0455     H
H        0.695    0.305   0.9545     H
H        0.695   0.4545    0.195     H
H        0.695   0.4545    0.805     H
H        0.695   0.5455    0.195     H
H        0.695   0.5455    0.805     H
H        0.695    0.695   0.0455     H
H        0.695    0.695   0.9545     H
H        0.695    0.805   0.4545     H
H        0.695    0.805   0.5455     H
H        0.695   0.9545    0.305     H
H        0.695   0.9545    0.695     H
Ni     0.70654  0.20654  0.29346    Ni
Ni     0.70654  0.20654  0.70654    Ni
Ni     0.70654  0.29346  0.20654    Ni
Ni     0.70654  0.29346  0.79346    Ni
Ni     0.70654  0.70654  0.20654    Ni
Ni     0.70654  0.70654  0.79346    Ni
Ni     0.70654  0.79346  0.29346    Ni
Ni     0.70654  0.79346  0.70654    Ni
C      0.71749   0.0271  0.28251     C
C      0.71749   0.0271  0.71749     C
C      0.71749  0.21749   0.4729     C
C      0.71749  0.21749   0.5271     C
C      0.71749  0.28251   0.0271     C
C      0.71749  0.28251   0.9729     C
C      0.71749   0.4729  0.21749     C
C      0.71749   0.4729  0.78251     C
C      0.71749   0.5271  0.21749     C
C      0.71749   0.5271  0.78251     C
C      0.71749  0.71749   0.0271     C
C      0.71749  0.71749   0.9729     C
C      0.71749  0.78251   0.4729     C
C      0.71749  0.78251   0.5271     C
C      0.71749   0.9729  0.28251     C
C      0.71749   0.9729  0.71749     C
O      0.71893  0.13338  0.28107     O
O      0.71893  0.13338  0.71893     O
O      0.71893  0.21893  0.36662     O
O      0.71893  0.21893  0.63338     O
O      0.71893  0.28107  0.13338     O
O      0.71893  0.28107  0.86662     O
O      0.71893  0.36662  0.21893     O
O      0.71893  0.36662  0.78107     O
O      0.71893  0.63338  0.21893     O
O      0.71893  0.63338  0.78107     O
O      0.71893  0.71893  0.13338     O
O      0.71893  0.71893  0.86662     O
O      0.71893  0.78107  0.36662     O
O      0.71893  0.78107  0.63338     O
O      0.71893  0.86662  0.28107     O
O      0.71893  0.86662  0.71893     O
C         0.75   0.0532     0.25     C
C         0.75   0.0532     0.75     C
C         0.75   0.1108     0.25     C
C         0.75   0.1108     0.75     C
C         0.75     0.25   0.0532     C
C         0.75     0.25   0.1108     C
O         0.75     0.25     0.25     O
C         0.75     0.25   0.3892     C
C         0.75     0.25   0.4468     C
C         0.75     0.25   0.5532     C
C         0.75     0.25   0.6108     C
O         0.75     0.25     0.75     O
C         0.75     0.25   0.8892     C
C         0.75     0.25   0.9468     C
C         0.75   0.3892     0.25     C
C         0.75   0.3892     0.75     C
C         0.75   0.4468     0.25     C
C         0.75   0.4468     0.75     C
C         0.75   0.5532     0.25     C
C         0.75   0.5532     0.75     C
C         0.75   0.6108     0.25     C
C         0.75   0.6108     0.75     C
C         0.75     0.75   0.0532     C
C         0.75     0.75   0.1108     C
O         0.75     0.75     0.25     O
C         0.75     0.75   0.3892     C
C         0.75     0.75   0.4468     C
C         0.75     0.75   0.5532     C
C         0.75     0.75   0.6108     C
O         0.75     0.75     0.75     O
C         0.75     0.75   0.8892     C
C         0.75     0.75   0.9468     C
C         0.75   0.8892     0.25     C
C         0.75   0.8892     0.75     C
C         0.75   0.9468     0.25     C
C         0.75   0.9468     0.75     C
O      0.78107  0.13338  0.21893     O
O      0.78107  0.13338  0.78107     O
O      0.78107  0.21893  0.13338     O
O      0.78107  0.21893  0.86662     O
O      0.78107  0.28107  0.36662     O
O      0.78107  0.28107  0.63338     O
O      0.78107  0.36662  0.28107     O
O      0.78107  0.36662  0.71893     O
O      0.78107  0.63338  0.28107     O
O      0.78107  0.63338  0.71893     O
O      0.78107  0.71893  0.36662     O
O      0.78107  0.71893  0.63338     O
O      0.78107  0.78107  0.13338     O
O      0.78107  0.78107  0.86662     O
O      0.78107  0.86662  0.21893     O
O      0.78107  0.86662  0.78107     O
C      0.78251   0.0271  0.21749     C
C      0.78251   0.0271  0.78251     C
C      0.78251  0.21749   0.0271     C
C      0.78251  0.21749   0.9729     C
C      0.78251  0.28251   0.4729     C
C      0.78251  0.28251   0.5271     C
C      0.78251   0.4729  0.28251     C
C      0.78251   0.4729  0.71749     C
C      0.78251   0.5271  0.28251     C
C      0.78251   0.5271  0.71749     C
C      0.78251  0.71749   0.4729     C
C      0.78251  0.71749   0.5271     C
C      0.78251  0.78251   0.0271     C
C      0.78251  0.78251   0.9729     C
C      0.78251   0.9729  0.21749     C
C      0.78251   0.9729  0.78251     C
Ni     0.79346  0.20654  0.20654    Ni
Ni     0.79346  0.20654  0.79346    Ni
Ni     0.79346  0.29346  0.29346    Ni
Ni     0.79346  0.29346  0.70654    Ni
Ni     0.79346  0.70654  0.29346    Ni
Ni     0.79346  0.70654  0.70654    Ni
Ni     0.79346  0.79346  0.20654    Ni
Ni     0.79346  0.79346  0.79346    Ni
H        0.805   0.0455    0.195     H
H        0.805   0.0455    0.805     H
H        0.805    0.195   0.0455     H
H        0.805    0.195   0.9545     H
H        0.805    0.305   0.4545     H
H        0.805    0.305   0.5455     H
H        0.805   0.4545    0.305     H
H        0.805   0.4545    0.695     H
H        0.805   0.5455    0.305     H
H        0.805   0.5455    0.695     H
H        0.805    0.695   0.4545     H
H        0.805    0.695   0.5455     H
H        0.805    0.805   0.0455     H
H        0.805    0.805   0.9545     H
H        0.805   0.9545    0.195     H
H        0.805   0.9545    0.805     H
O      0.86662  0.21893  0.21893     O
O      0.86662  0.21893  0.78107     O
O      0.86662  0.28107  0.28107     O
O      0.86662  0.28107  0.71893     O
O      0.86662  0.71893  0.28107     O
O      0.86662  0.71893  0.71893     O
O      0.86662  0.78107  0.21893     O
O      0.86662  0.78107  0.78107     O
C       0.8892     0.25     0.25     C
C       0.8892     0.25     0.75     C
C       0.8892     0.75     0.25     C
C       0.8892     0.75     0.75     C
C       0.9468     0.25     0.25     C
C       0.9468     0.25     0.75     C
C       0.9468     0.75     0.25     C
C       0.9468     0.75     0.75     C
H       0.9545    0.195    0.195     H
H       0.9545    0.195    0.805     H
H       0.9545    0.305    0.305     H
H       0.9545    0.305    0.695     H
H       0.9545    0.695    0.305     H
H       0.9545    0.695    0.695     H
H       0.9545    0.805    0.195     H
H       0.9545    0.805    0.805     H
C       0.9729  0.21749  0.21749     C
C       0.9729  0.21749  0.78251     C
C       0.9729  0.28251  0.28251     C
C       0.9729  0.28251  0.71749     C
C       0.9729  0.71749  0.28251     C
C       0.9729  0.71749  0.71749     C
C       0.9729  0.78251  0.21749     C
C       0.9729  0.78251  0.78251     C
