data_I
_chemical_name_common  '/home/zhangsd/repos/MofS-CGCNN/ML/data/SSD/clean_cifs/NEZWOG01_clean'
_cell_length_a 11.11550
_cell_length_b 13.46790
_cell_length_c 16.01680
_cell_angle_alpha 114.86200
_cell_angle_beta  110.30400
_cell_angle_gamma 90.00000
_space_group_name_H-M_alt      'P 1'


loop_
_space_group_symop_operation_xyz
  'x, y, z' 

loop_
_atom_site_label
_atom_site_fract_x
_atom_site_fract_y
_atom_site_fract_z
_atom_site_type_symbol
La     0.01731  0.92931  0.55862    La
P       0.0185   0.8832   0.1872     P
C       0.0386   0.1349   0.4648     C
O        0.042   0.9194   0.7326     O
O       0.0565   0.0492   0.8736     O
C       0.0738   0.6701   0.5352     C
O       0.0982   0.0621   0.4852     O
O       0.1073   0.2041   0.4592     O
O        0.112   0.7986   0.1658     O
O        0.113   0.5769   0.5148     O
C       0.1249   0.0151   0.2738     C
O       0.1481   0.7449   0.5408     O
O       0.1527   0.3636    0.408     O
O       0.1829   0.9508   0.1264     O
O       0.1938   0.6277   0.7596     O
C        0.197   0.0233   0.2126     C
O       0.2127   0.9973   0.3524     O
O       0.2447   0.9556    0.592     O
O       0.2678     0.36   0.2898     O
P       0.2774   0.3942   0.3968     P
O       0.3094   0.0806   0.2674     O
O       0.3132   0.5222   0.4466     O
P       0.3313    0.696   0.8128     P
O       0.3354   0.2427   0.4548     O
O       0.3417   0.7999   0.9074     O
C       0.3511   0.7413   0.7262     C
O       0.3603   0.6449   0.6476     O
O       0.3666   0.0756   0.5534     O
O       0.3806   0.7879   0.5452     O
P       0.3806   0.9974   0.6032     P
C       0.4009   0.3317   0.4562     C
O       0.4342   0.3723   0.2404     O
O       0.4343   0.2001   0.0926     O
C       0.4447   0.8755   0.5438     C
O       0.4462   0.6328   0.8342     O
La      0.4536      0.0     -0.0    La
La     0.45869  0.07069  0.44138    La
O        0.478   0.0702   0.7102     O
C       0.4844   0.8107   0.7874     C
La     0.51731  0.62931  0.55862    La
P       0.5185    0.304   0.1872     P
C       0.5386   0.3299   0.4648     C
O        0.542   0.8132   0.7326     O
O       0.5565   0.8244   0.8736     O
C       0.5738   0.8651   0.5352     C
O       0.5982   0.4231   0.4852     O
O       0.6073   0.2551   0.4592     O
O        0.612   0.3672   0.1658     O
O        0.613   0.9379   0.5148     O
C       0.6249   0.2587   0.2738     C
O       0.6481   0.7959   0.5408     O
O       0.6527   0.0444    0.408     O
O       0.6829   0.1756   0.1264     O
O       0.6938   0.1319   0.7596     O
C        0.697   0.1893   0.2126     C
O       0.7127   0.3551   0.3524     O
O       0.7447   0.6364    0.592     O
O       0.7678   0.9298   0.2898     O
P       0.7774   0.0026   0.3968     P
O       0.8094   0.1868   0.2674     O
O       0.8132   0.9244   0.4466     O
P       0.8313   0.1168   0.8128     P
O       0.8354   0.2121   0.4548     O
O       0.8417   0.1075   0.9074     O
C       0.8511   0.9849   0.7262     C
O       0.8603   0.0027   0.6476     O
O       0.8666   0.4778   0.5534     O
P       0.8806   0.6058   0.6032     P
O       0.8806   0.7573   0.5452     O
C       0.9009   0.1245   0.4562     C
O       0.9342   0.8681   0.2404     O
O       0.9343   0.8925   0.0926     O
C       0.9447   0.6683   0.5438     C
O       0.9462   0.2014   0.8342     O
La      0.9536      0.0     -0.0    La
La     0.95869  0.37069  0.44138    La
O        0.978     0.64   0.7102     O
C       0.9844   0.9767   0.7874     C
