data_I
_chemical_name_common  '/home/zhangsd/repos/MofS-CGCNN/ML/data/SSD/clean_cifs/NIBHOW_clean'
_cell_length_a 32.97660
_cell_length_b 32.97660
_cell_length_c 32.97660
_cell_angle_alpha 60.00000
_cell_angle_beta  60.00000
_cell_angle_gamma 60.00000
_space_group_name_H-M_alt      'P 1'


loop_
_space_group_symop_operation_xyz
  'x, y, z' 

loop_
_atom_site_label
_atom_site_fract_x
_atom_site_fract_y
_atom_site_fract_z
_atom_site_type_symbol
H       0.0039   0.1267   0.3455     H
H       0.0039   0.1267   0.5239     H
H       0.0039   0.3455   0.1267     H
H       0.0039   0.3455   0.5239     H
H       0.0039   0.5239   0.1267     H
H       0.0039   0.5239   0.3455     H
O      0.00444  0.48706  0.57208     O
O      0.00444  0.48706  0.93642     O
O      0.00444  0.57208  0.48706     O
O      0.00444  0.57208  0.93642     O
O      0.00444  0.93642  0.48706     O
O      0.00444  0.93642  0.57208     O
C      0.03693  0.11021  0.32923     C
C      0.03693  0.11021  0.52363     C
C      0.03693  0.32923  0.11021     C
C      0.03693  0.32923  0.52363     C
C      0.03693  0.52363  0.11021     C
C      0.03693  0.52363  0.32923     C
C       0.0382   0.0382  0.41046     C
C       0.0382   0.0382  0.51314     C
C       0.0382  0.41046   0.0382     C
C       0.0382  0.41046  0.51314     C
C       0.0382  0.51314   0.0382     C
C       0.0382  0.51314  0.41046     C
Cu     0.04027      0.5      0.5    Cu
Cu     0.04027      0.5  0.95973    Cu
Cu     0.04027  0.95973      0.5    Cu
H       0.0439   0.1657   0.2627     H
H       0.0439   0.1657   0.5277     H
H       0.0439   0.2627   0.1657     H
H       0.0439   0.2627   0.5277     H
H       0.0439   0.5277   0.1657     H
H       0.0439   0.5277   0.2627     H
C      0.06057  0.13315  0.27957     C
C      0.06057  0.13315  0.52671     C
C      0.06057  0.27957  0.13315     C
C      0.06057  0.27957  0.52671     C
C      0.06057  0.52671  0.13315     C
C      0.06057  0.52671  0.27957     C
C      0.06255  0.06255  0.35493     C
C      0.06255  0.06255  0.51997     C
C      0.06255  0.35493  0.06255     C
C      0.06255  0.35493  0.51997     C
C      0.06255  0.51997  0.06255     C
C      0.06255  0.51997  0.35493     C
O      0.06358  0.42792  0.51294     O
O      0.06358  0.42792  0.99556     O
O      0.06358  0.51294  0.42792     O
O      0.06358  0.51294  0.99556     O
O      0.06358  0.99556  0.42792     O
O      0.06358  0.99556  0.51294     O
C      0.10834  0.10834  0.25486     C
C      0.10834  0.10834  0.52846     C
C      0.10834  0.25486  0.10834     C
C      0.10834  0.25486  0.52846     C
C      0.10834  0.52846  0.10834     C
C      0.10834  0.52846  0.25486     C
N      0.10856     0.18     0.18     N
N      0.10856     0.18  0.53144     N
N      0.10856  0.53144     0.18     N
C      0.11021  0.03693  0.32923     C
C      0.11021  0.03693  0.52363     C
C      0.11021  0.32923  0.03693     C
C      0.11021  0.32923  0.52363     C
C      0.11021  0.52363  0.03693     C
C      0.11021  0.52363  0.32923     C
H       0.1267   0.0039   0.3455     H
H       0.1267   0.0039   0.5239     H
H       0.1267   0.3455   0.0039     H
H       0.1267   0.3455   0.5239     H
H       0.1267   0.5239   0.0039     H
H       0.1267   0.5239   0.3455     H
C      0.13315  0.06057  0.27957     C
C      0.13315  0.06057  0.52671     C
C      0.13315  0.27957  0.06057     C
C      0.13315  0.27957  0.52671     C
C      0.13315  0.52671  0.06057     C
C      0.13315  0.52671  0.27957     C
C      0.13362  0.13362  0.20096     C
C      0.13362  0.13362   0.5318     C
C      0.13362  0.20096  0.13362     C
C      0.13362  0.20096   0.5318     C
C      0.13362   0.5318  0.13362     C
C      0.13362   0.5318  0.20096     C
H       0.1657   0.0439   0.2627     H
H       0.1657   0.0439   0.5277     H
H       0.1657   0.2627   0.0439     H
H       0.1657   0.2627   0.5277     H
H       0.1657   0.5277   0.0439     H
H       0.1657   0.5277   0.2627     H
N         0.18  0.10856     0.18     N
N         0.18  0.10856  0.53144     N
N         0.18     0.18  0.10856     N
N         0.18     0.18  0.53144     N
N         0.18  0.53144  0.10856     N
N         0.18  0.53144     0.18     N
C      0.20096  0.13362  0.13362     C
C      0.20096  0.13362   0.5318     C
C      0.20096   0.5318  0.13362     C
C      0.25486  0.10834  0.10834     C
C      0.25486  0.10834  0.52846     C
C      0.25486  0.52846  0.10834     C
H       0.2627   0.0439   0.1657     H
H       0.2627   0.0439   0.5277     H
H       0.2627   0.1657   0.0439     H
H       0.2627   0.1657   0.5277     H
H       0.2627   0.5277   0.0439     H
H       0.2627   0.5277   0.1657     H
C      0.27957  0.06057  0.13315     C
C      0.27957  0.06057  0.52671     C
C      0.27957  0.13315  0.06057     C
C      0.27957  0.13315  0.52671     C
C      0.27957  0.52671  0.06057     C
C      0.27957  0.52671  0.13315     C
C      0.32923  0.03693  0.11021     C
C      0.32923  0.03693  0.52363     C
C      0.32923  0.11021  0.03693     C
C      0.32923  0.11021  0.52363     C
C      0.32923  0.52363  0.03693     C
C      0.32923  0.52363  0.11021     C
H       0.3455   0.0039   0.1267     H
H       0.3455   0.0039   0.5239     H
H       0.3455   0.1267   0.0039     H
H       0.3455   0.1267   0.5239     H
H       0.3455   0.5239   0.0039     H
H       0.3455   0.5239   0.1267     H
C      0.35493  0.06255  0.06255     C
C      0.35493  0.06255  0.51997     C
C      0.35493  0.51997  0.06255     C
C      0.41046   0.0382   0.0382     C
C      0.41046   0.0382  0.51314     C
C      0.41046  0.51314   0.0382     C
O      0.42792  0.06358  0.51294     O
O      0.42792  0.06358  0.99556     O
O      0.42792  0.51294  0.06358     O
O      0.42792  0.51294  0.99556     O
O      0.42792  0.99556  0.06358     O
O      0.42792  0.99556  0.51294     O
C       0.4682  0.79904  0.86638     C
C       0.4682  0.86638  0.79904     C
C       0.4682  0.86638  0.86638     C
N      0.46856     0.82     0.82     N
N      0.46856     0.82  0.89144     N
N      0.46856  0.89144     0.82     N
C      0.47154  0.74514  0.89166     C
C      0.47154  0.89166  0.74514     C
C      0.47154  0.89166  0.89166     C
H       0.4723   0.7373   0.8343     H
H       0.4723   0.7373   0.9561     H
H       0.4723   0.8343   0.7373     H
H       0.4723   0.8343   0.9561     H
H       0.4723   0.9561   0.7373     H
H       0.4723   0.9561   0.8343     H
C      0.47329  0.72043  0.86685     C
C      0.47329  0.72043  0.93943     C
C      0.47329  0.86685  0.72043     C
C      0.47329  0.86685  0.93943     C
C      0.47329  0.93943  0.72043     C
C      0.47329  0.93943  0.86685     C
H       0.4761   0.6545   0.8733     H
H       0.4761   0.6545   0.9961     H
H       0.4761   0.8733   0.6545     H
H       0.4761   0.8733   0.9961     H
H       0.4761   0.9961   0.6545     H
H       0.4761   0.9961   0.8733     H
C      0.47637  0.67077  0.88979     C
C      0.47637  0.67077  0.96307     C
C      0.47637  0.88979  0.67077     C
C      0.47637  0.88979  0.96307     C
C      0.47637  0.96307  0.67077     C
C      0.47637  0.96307  0.88979     C
C      0.48003  0.64507  0.93745     C
C      0.48003  0.93745  0.64507     C
C      0.48003  0.93745  0.93745     C
C      0.48686  0.58954   0.9618     C
C      0.48686   0.9618  0.58954     C
C      0.48686   0.9618   0.9618     C
O      0.48706  0.00444  0.57208     O
O      0.48706  0.00444  0.93642     O
O      0.48706  0.57208  0.00444     O
O      0.48706  0.57208  0.93642     O
O      0.48706  0.93642  0.00444     O
O      0.48706  0.93642  0.57208     O
Cu         0.5  0.04027      0.5    Cu
Cu         0.5  0.04027  0.95973    Cu
Cu         0.5      0.5  0.04027    Cu
Cu         0.5      0.5  0.95973    Cu
Cu         0.5  0.95973  0.04027    Cu
Cu         0.5  0.95973      0.5    Cu
O      0.51294  0.06358  0.42792     O
O      0.51294  0.06358  0.99556     O
O      0.51294  0.42792  0.06358     O
O      0.51294  0.42792  0.99556     O
O      0.51294  0.99556  0.06358     O
O      0.51294  0.99556  0.42792     O
C      0.51314   0.0382   0.0382     C
C      0.51314   0.0382  0.41046     C
C      0.51314  0.41046   0.0382     C
C      0.51997  0.06255  0.06255     C
C      0.51997  0.06255  0.35493     C
C      0.51997  0.35493  0.06255     C
C      0.52363  0.03693  0.11021     C
C      0.52363  0.03693  0.32923     C
C      0.52363  0.11021  0.03693     C
C      0.52363  0.11021  0.32923     C
C      0.52363  0.32923  0.03693     C
C      0.52363  0.32923  0.11021     C
H       0.5239   0.0039   0.1267     H
H       0.5239   0.0039   0.3455     H
H       0.5239   0.1267   0.0039     H
H       0.5239   0.1267   0.3455     H
H       0.5239   0.3455   0.0039     H
H       0.5239   0.3455   0.1267     H
C      0.52671  0.06057  0.13315     C
C      0.52671  0.06057  0.27957     C
C      0.52671  0.13315  0.06057     C
C      0.52671  0.13315  0.27957     C
C      0.52671  0.27957  0.06057     C
C      0.52671  0.27957  0.13315     C
H       0.5277   0.0439   0.1657     H
H       0.5277   0.0439   0.2627     H
H       0.5277   0.1657   0.0439     H
H       0.5277   0.1657   0.2627     H
H       0.5277   0.2627   0.0439     H
H       0.5277   0.2627   0.1657     H
C      0.52846  0.10834  0.10834     C
C      0.52846  0.10834  0.25486     C
C      0.52846  0.25486  0.10834     C
N      0.53144  0.10856     0.18     N
N      0.53144     0.18  0.10856     N
N      0.53144     0.18     0.18     N
C       0.5318  0.13362  0.13362     C
C       0.5318  0.13362  0.20096     C
C       0.5318  0.20096  0.13362     C
O      0.57208  0.00444  0.48706     O
O      0.57208  0.00444  0.93642     O
O      0.57208  0.48706  0.00444     O
O      0.57208  0.48706  0.93642     O
O      0.57208  0.93642  0.00444     O
O      0.57208  0.93642  0.48706     O
C      0.58954  0.48686   0.9618     C
C      0.58954   0.9618  0.48686     C
C      0.58954   0.9618   0.9618     C
C      0.64507  0.48003  0.93745     C
C      0.64507  0.93745  0.48003     C
C      0.64507  0.93745  0.93745     C
H       0.6545   0.4761   0.8733     H
H       0.6545   0.4761   0.9961     H
H       0.6545   0.8733   0.4761     H
H       0.6545   0.8733   0.9961     H
H       0.6545   0.9961   0.4761     H
H       0.6545   0.9961   0.8733     H
C      0.67077  0.47637  0.88979     C
C      0.67077  0.47637  0.96307     C
C      0.67077  0.88979  0.47637     C
C      0.67077  0.88979  0.96307     C
C      0.67077  0.96307  0.47637     C
C      0.67077  0.96307  0.88979     C
C      0.72043  0.47329  0.86685     C
C      0.72043  0.47329  0.93943     C
C      0.72043  0.86685  0.47329     C
C      0.72043  0.86685  0.93943     C
C      0.72043  0.93943  0.47329     C
C      0.72043  0.93943  0.86685     C
H       0.7373   0.4723   0.8343     H
H       0.7373   0.4723   0.9561     H
H       0.7373   0.8343   0.4723     H
H       0.7373   0.8343   0.9561     H
H       0.7373   0.9561   0.4723     H
H       0.7373   0.9561   0.8343     H
C      0.74514  0.47154  0.89166     C
C      0.74514  0.89166  0.47154     C
C      0.74514  0.89166  0.89166     C
C      0.79904   0.4682  0.86638     C
C      0.79904  0.86638   0.4682     C
C      0.79904  0.86638  0.86638     C
N         0.82  0.46856     0.82     N
N         0.82  0.46856  0.89144     N
N         0.82     0.82  0.46856     N
N         0.82     0.82  0.89144     N
N         0.82  0.89144  0.46856     N
N         0.82  0.89144     0.82     N
H       0.8343   0.4723   0.7373     H
H       0.8343   0.4723   0.9561     H
H       0.8343   0.7373   0.4723     H
H       0.8343   0.7373   0.9561     H
H       0.8343   0.9561   0.4723     H
H       0.8343   0.9561   0.7373     H
C      0.86638   0.4682  0.79904     C
C      0.86638   0.4682  0.86638     C
C      0.86638  0.79904   0.4682     C
C      0.86638  0.79904  0.86638     C
C      0.86638  0.86638   0.4682     C
C      0.86638  0.86638  0.79904     C
C      0.86685  0.47329  0.72043     C
C      0.86685  0.47329  0.93943     C
C      0.86685  0.72043  0.47329     C
C      0.86685  0.72043  0.93943     C
C      0.86685  0.93943  0.47329     C
C      0.86685  0.93943  0.72043     C
H       0.8733   0.4761   0.6545     H
H       0.8733   0.4761   0.9961     H
H       0.8733   0.6545   0.4761     H
H       0.8733   0.6545   0.9961     H
H       0.8733   0.9961   0.4761     H
H       0.8733   0.9961   0.6545     H
C      0.88979  0.47637  0.67077     C
C      0.88979  0.47637  0.96307     C
C      0.88979  0.67077  0.47637     C
C      0.88979  0.67077  0.96307     C
C      0.88979  0.96307  0.47637     C
C      0.88979  0.96307  0.67077     C
N      0.89144  0.46856     0.82     N
N      0.89144     0.82  0.46856     N
N      0.89144     0.82     0.82     N
C      0.89166  0.47154  0.74514     C
C      0.89166  0.47154  0.89166     C
C      0.89166  0.74514  0.47154     C
C      0.89166  0.74514  0.89166     C
C      0.89166  0.89166  0.47154     C
C      0.89166  0.89166  0.74514     C
O      0.93642  0.00444  0.48706     O
O      0.93642  0.00444  0.57208     O
O      0.93642  0.48706  0.00444     O
O      0.93642  0.48706  0.57208     O
O      0.93642  0.57208  0.00444     O
O      0.93642  0.57208  0.48706     O
C      0.93745  0.48003  0.64507     C
C      0.93745  0.48003  0.93745     C
C      0.93745  0.64507  0.48003     C
C      0.93745  0.64507  0.93745     C
C      0.93745  0.93745  0.48003     C
C      0.93745  0.93745  0.64507     C
C      0.93943  0.47329  0.72043     C
C      0.93943  0.47329  0.86685     C
C      0.93943  0.72043  0.47329     C
C      0.93943  0.72043  0.86685     C
C      0.93943  0.86685  0.47329     C
C      0.93943  0.86685  0.72043     C
H       0.9561   0.4723   0.7373     H
H       0.9561   0.4723   0.8343     H
H       0.9561   0.7373   0.4723     H
H       0.9561   0.7373   0.8343     H
H       0.9561   0.8343   0.4723     H
H       0.9561   0.8343   0.7373     H
Cu     0.95973  0.04027      0.5    Cu
Cu     0.95973      0.5  0.04027    Cu
Cu     0.95973      0.5      0.5    Cu
C       0.9618  0.48686  0.58954     C
C       0.9618  0.48686   0.9618     C
C       0.9618  0.58954  0.48686     C
C       0.9618  0.58954   0.9618     C
C       0.9618   0.9618  0.48686     C
C       0.9618   0.9618  0.58954     C
C      0.96307  0.47637  0.67077     C
C      0.96307  0.47637  0.88979     C
C      0.96307  0.67077  0.47637     C
C      0.96307  0.67077  0.88979     C
C      0.96307  0.88979  0.47637     C
C      0.96307  0.88979  0.67077     C
O      0.99556  0.06358  0.42792     O
O      0.99556  0.06358  0.51294     O
O      0.99556  0.42792  0.06358     O
O      0.99556  0.42792  0.51294     O
O      0.99556  0.51294  0.06358     O
O      0.99556  0.51294  0.42792     O
H       0.9961   0.4761   0.6545     H
H       0.9961   0.4761   0.8733     H
H       0.9961   0.6545   0.4761     H
H       0.9961   0.6545   0.8733     H
H       0.9961   0.8733   0.4761     H
H       0.9961   0.8733   0.6545     H
