data_I
_chemical_name_common  '/home/zhangsd/repos/MofS-CGCNN/ML/data/SSD/clean_cifs/NIBJAK_clean'
_cell_length_a 37.47170
_cell_length_b 37.47170
_cell_length_c 37.47170
_cell_angle_alpha 60.00000
_cell_angle_beta  60.00000
_cell_angle_gamma 60.00000
_space_group_name_H-M_alt      'P 1'


loop_
_space_group_symop_operation_xyz
  'x, y, z' 

loop_
_atom_site_label
_atom_site_fract_x
_atom_site_fract_y
_atom_site_fract_z
_atom_site_type_symbol
O      0.00359  0.48883   0.5632     O
O      0.00359  0.48883  0.94438     O
O      0.00359   0.5632  0.48883     O
O      0.00359   0.5632  0.94438     O
O      0.00359  0.94438  0.48883     O
O      0.00359  0.94438   0.5632     O
H       0.0049   0.1093   0.3633     H
H       0.0049   0.1093   0.5225     H
H       0.0049   0.3633   0.1093     H
H       0.0049   0.3633   0.5225     H
H       0.0049   0.5225   0.1093     H
H       0.0049   0.5225   0.3633     H
C       0.0333    0.095   0.3486     C
C       0.0333    0.095   0.5231     C
C       0.0333   0.3486    0.095     C
C       0.0333   0.3486   0.5231     C
C       0.0333   0.5231    0.095     C
C       0.0333   0.5231   0.3486     C
C      0.03336  0.03336  0.42036     C
C      0.03336  0.03336  0.51292     C
C      0.03336  0.42036  0.03336     C
C      0.03336  0.42036  0.51292     C
C      0.03336  0.51292  0.03336     C
C      0.03336  0.51292  0.42036     C
Cu     0.03549      0.5      0.5    Cu
Cu     0.03549      0.5  0.96451    Cu
Cu     0.03549  0.96451      0.5    Cu
H       0.0371   0.1445   0.2907     H
H       0.0371   0.1445   0.5277     H
H       0.0371   0.2907   0.1445     H
H       0.0371   0.2907   0.5277     H
H       0.0371   0.5277   0.1445     H
H       0.0371   0.5277   0.2907     H
C      0.05221  0.11621  0.30485     C
C      0.05221  0.11621  0.52673     C
C      0.05221  0.30485  0.11621     C
C      0.05221  0.30485  0.52673     C
C      0.05221  0.52673  0.11621     C
C      0.05221  0.52673  0.30485     C
C      0.05451  0.05451  0.37049     C
C      0.05451  0.05451  0.52049     C
C      0.05451  0.37049  0.05451     C
C      0.05451  0.37049  0.52049     C
C      0.05451  0.52049  0.05451     C
C      0.05451  0.52049  0.37049     C
O      0.05562   0.4368  0.51117     O
O      0.05562   0.4368  0.99641     O
O      0.05562  0.51117   0.4368     O
O      0.05562  0.51117  0.99641     O
O      0.05562  0.99641   0.4368     O
O      0.05562  0.99641  0.51117     O
N      0.09257  0.15663  0.21821     N
N      0.09257  0.15663  0.53259     N
N      0.09257  0.21821  0.15663     N
N      0.09257  0.21821  0.53259     N
N      0.09257  0.53259  0.15663     N
N      0.09257  0.53259  0.21821     N
C      0.09426  0.09426  0.28248     C
C      0.09426  0.09426    0.529     C
C      0.09426  0.28248  0.09426     C
C      0.09426  0.28248    0.529     C
C      0.09426    0.529  0.09426     C
C      0.09426    0.529  0.28248     C
C        0.095   0.0333   0.3486     C
C        0.095   0.0333   0.5231     C
C        0.095   0.3486   0.0333     C
C        0.095   0.3486   0.5231     C
C        0.095   0.5231   0.0333     C
C        0.095   0.5231   0.3486     C
H       0.1093   0.0049   0.3633     H
H       0.1093   0.0049   0.5225     H
H       0.1093   0.3633   0.0049     H
H       0.1093   0.3633   0.5225     H
H       0.1093   0.5225   0.0049     H
H       0.1093   0.5225   0.3633     H
C      0.11245  0.17693  0.17693     C
C      0.11245  0.17693  0.53369     C
C      0.11245  0.53369  0.17693     C
C      0.11502  0.11502  0.23704     C
C      0.11502  0.11502  0.53292     C
C      0.11502  0.23704  0.11502     C
C      0.11502  0.23704  0.53292     C
C      0.11502  0.53292  0.11502     C
C      0.11502  0.53292  0.23704     C
C      0.11621  0.05221  0.30485     C
C      0.11621  0.05221  0.52673     C
C      0.11621  0.30485  0.05221     C
C      0.11621  0.30485  0.52673     C
C      0.11621  0.52673  0.05221     C
C      0.11621  0.52673  0.30485     C
H       0.1445   0.0371   0.2907     H
H       0.1445   0.0371   0.5277     H
H       0.1445   0.2907   0.0371     H
H       0.1445   0.2907   0.5277     H
H       0.1445   0.5277   0.0371     H
H       0.1445   0.5277   0.2907     H
N      0.15522  0.15522  0.15522     N
N      0.15522  0.15522  0.53434     N
N      0.15522  0.53434  0.15522     N
N      0.15663  0.09257  0.21821     N
N      0.15663  0.09257  0.53259     N
N      0.15663  0.21821  0.09257     N
N      0.15663  0.21821  0.53259     N
N      0.15663  0.53259  0.09257     N
N      0.15663  0.53259  0.21821     N
C      0.17693  0.11245  0.17693     C
C      0.17693  0.11245  0.53369     C
C      0.17693  0.17693  0.11245     C
C      0.17693  0.17693  0.53369     C
C      0.17693  0.53369  0.11245     C
C      0.17693  0.53369  0.17693     C
N      0.21821  0.09257  0.15663     N
N      0.21821  0.09257  0.53259     N
N      0.21821  0.15663  0.09257     N
N      0.21821  0.15663  0.53259     N
N      0.21821  0.53259  0.09257     N
N      0.21821  0.53259  0.15663     N
C      0.23704  0.11502  0.11502     C
C      0.23704  0.11502  0.53292     C
C      0.23704  0.53292  0.11502     C
C      0.28248  0.09426  0.09426     C
C      0.28248  0.09426    0.529     C
C      0.28248    0.529  0.09426     C
H       0.2907   0.0371   0.1445     H
H       0.2907   0.0371   0.5277     H
H       0.2907   0.1445   0.0371     H
H       0.2907   0.1445   0.5277     H
H       0.2907   0.5277   0.0371     H
H       0.2907   0.5277   0.1445     H
C      0.30485  0.05221  0.11621     C
C      0.30485  0.05221  0.52673     C
C      0.30485  0.11621  0.05221     C
C      0.30485  0.11621  0.52673     C
C      0.30485  0.52673  0.05221     C
C      0.30485  0.52673  0.11621     C
C       0.3486   0.0333    0.095     C
C       0.3486   0.0333   0.5231     C
C       0.3486    0.095   0.0333     C
C       0.3486    0.095   0.5231     C
C       0.3486   0.5231   0.0333     C
C       0.3486   0.5231    0.095     C
H       0.3633   0.0049   0.1093     H
H       0.3633   0.0049   0.5225     H
H       0.3633   0.1093   0.0049     H
H       0.3633   0.1093   0.5225     H
H       0.3633   0.5225   0.0049     H
H       0.3633   0.5225   0.1093     H
C      0.37049  0.05451  0.05451     C
C      0.37049  0.05451  0.52049     C
C      0.37049  0.52049  0.05451     C
C      0.42036  0.03336  0.03336     C
C      0.42036  0.03336  0.51292     C
C      0.42036  0.51292  0.03336     C
O       0.4368  0.05562  0.51117     O
O       0.4368  0.05562  0.99641     O
O       0.4368  0.51117  0.05562     O
O       0.4368  0.51117  0.99641     O
O       0.4368  0.99641  0.05562     O
O       0.4368  0.99641  0.51117     O
N      0.46566  0.84478  0.84478     N
C      0.46631  0.82307  0.82307     C
C      0.46631  0.82307  0.88755     C
C      0.46631  0.88755  0.82307     C
C      0.46708  0.76296  0.88498     C
C      0.46708  0.88498  0.76296     C
C      0.46708  0.88498  0.88498     C
N      0.46741  0.78179  0.84337     N
N      0.46741  0.78179  0.90743     N
N      0.46741  0.84337  0.78179     N
N      0.46741  0.84337  0.90743     N
N      0.46741  0.90743  0.78179     N
N      0.46741  0.90743  0.84337     N
C        0.471  0.71752  0.90574     C
C        0.471  0.90574  0.71752     C
C        0.471  0.90574  0.90574     C
H       0.4723   0.7093   0.8555     H
H       0.4723   0.7093   0.9629     H
H       0.4723   0.8555   0.7093     H
H       0.4723   0.8555   0.9629     H
H       0.4723   0.9629   0.7093     H
H       0.4723   0.9629   0.8555     H
C      0.47327  0.69515  0.88379     C
C      0.47327  0.69515  0.94779     C
C      0.47327  0.88379  0.69515     C
C      0.47327  0.88379  0.94779     C
C      0.47327  0.94779  0.69515     C
C      0.47327  0.94779  0.88379     C
C       0.4769   0.6514    0.905     C
C       0.4769   0.6514   0.9667     C
C       0.4769    0.905   0.6514     C
C       0.4769    0.905   0.9667     C
C       0.4769   0.9667   0.6514     C
C       0.4769   0.9667    0.905     C
H       0.4775   0.6367   0.8907     H
H       0.4775   0.6367   0.9951     H
H       0.4775   0.8907   0.6367     H
H       0.4775   0.8907   0.9951     H
H       0.4775   0.9951   0.6367     H
H       0.4775   0.9951   0.8907     H
C      0.47951  0.62951  0.94549     C
C      0.47951  0.94549  0.62951     C
C      0.47951  0.94549  0.94549     C
C      0.48708  0.57964  0.96664     C
C      0.48708  0.96664  0.57964     C
C      0.48708  0.96664  0.96664     C
O      0.48883  0.00359   0.5632     O
O      0.48883  0.00359  0.94438     O
O      0.48883   0.5632  0.00359     O
O      0.48883   0.5632  0.94438     O
O      0.48883  0.94438  0.00359     O
O      0.48883  0.94438   0.5632     O
Cu         0.5  0.03549      0.5    Cu
Cu         0.5  0.03549  0.96451    Cu
Cu         0.5      0.5  0.03549    Cu
Cu         0.5      0.5  0.96451    Cu
Cu         0.5  0.96451  0.03549    Cu
Cu         0.5  0.96451      0.5    Cu
O      0.51117  0.05562   0.4368     O
O      0.51117  0.05562  0.99641     O
O      0.51117   0.4368  0.05562     O
O      0.51117   0.4368  0.99641     O
O      0.51117  0.99641  0.05562     O
O      0.51117  0.99641   0.4368     O
C      0.51292  0.03336  0.03336     C
C      0.51292  0.03336  0.42036     C
C      0.51292  0.42036  0.03336     C
C      0.52049  0.05451  0.05451     C
C      0.52049  0.05451  0.37049     C
C      0.52049  0.37049  0.05451     C
H       0.5225   0.0049   0.1093     H
H       0.5225   0.0049   0.3633     H
H       0.5225   0.1093   0.0049     H
H       0.5225   0.1093   0.3633     H
H       0.5225   0.3633   0.0049     H
H       0.5225   0.3633   0.1093     H
C       0.5231   0.0333    0.095     C
C       0.5231   0.0333   0.3486     C
C       0.5231    0.095   0.0333     C
C       0.5231    0.095   0.3486     C
C       0.5231   0.3486   0.0333     C
C       0.5231   0.3486    0.095     C
C      0.52673  0.05221  0.11621     C
C      0.52673  0.05221  0.30485     C
C      0.52673  0.11621  0.05221     C
C      0.52673  0.11621  0.30485     C
C      0.52673  0.30485  0.05221     C
C      0.52673  0.30485  0.11621     C
H       0.5277   0.0371   0.1445     H
H       0.5277   0.0371   0.2907     H
H       0.5277   0.1445   0.0371     H
H       0.5277   0.1445   0.2907     H
H       0.5277   0.2907   0.0371     H
H       0.5277   0.2907   0.1445     H
C        0.529  0.09426  0.09426     C
C        0.529  0.09426  0.28248     C
C        0.529  0.28248  0.09426     C
N      0.53259  0.09257  0.15663     N
N      0.53259  0.09257  0.21821     N
N      0.53259  0.15663  0.09257     N
N      0.53259  0.15663  0.21821     N
N      0.53259  0.21821  0.09257     N
N      0.53259  0.21821  0.15663     N
C      0.53292  0.11502  0.11502     C
C      0.53292  0.11502  0.23704     C
C      0.53292  0.23704  0.11502     C
C      0.53369  0.11245  0.17693     C
C      0.53369  0.17693  0.11245     C
C      0.53369  0.17693  0.17693     C
N      0.53434  0.15522  0.15522     N
O       0.5632  0.00359  0.48883     O
O       0.5632  0.00359  0.94438     O
O       0.5632  0.48883  0.00359     O
O       0.5632  0.48883  0.94438     O
O       0.5632  0.94438  0.00359     O
O       0.5632  0.94438  0.48883     O
C      0.57964  0.48708  0.96664     C
C      0.57964  0.96664  0.48708     C
C      0.57964  0.96664  0.96664     C
C      0.62951  0.47951  0.94549     C
C      0.62951  0.94549  0.47951     C
C      0.62951  0.94549  0.94549     C
H       0.6367   0.4775   0.8907     H
H       0.6367   0.4775   0.9951     H
H       0.6367   0.8907   0.4775     H
H       0.6367   0.8907   0.9951     H
H       0.6367   0.9951   0.4775     H
H       0.6367   0.9951   0.8907     H
C       0.6514   0.4769    0.905     C
C       0.6514   0.4769   0.9667     C
C       0.6514    0.905   0.4769     C
C       0.6514    0.905   0.9667     C
C       0.6514   0.9667   0.4769     C
C       0.6514   0.9667    0.905     C
C      0.69515  0.47327  0.88379     C
C      0.69515  0.47327  0.94779     C
C      0.69515  0.88379  0.47327     C
C      0.69515  0.88379  0.94779     C
C      0.69515  0.94779  0.47327     C
C      0.69515  0.94779  0.88379     C
H       0.7093   0.4723   0.8555     H
H       0.7093   0.4723   0.9629     H
H       0.7093   0.8555   0.4723     H
H       0.7093   0.8555   0.9629     H
H       0.7093   0.9629   0.4723     H
H       0.7093   0.9629   0.8555     H
C      0.71752    0.471  0.90574     C
C      0.71752  0.90574    0.471     C
C      0.71752  0.90574  0.90574     C
C      0.76296  0.46708  0.88498     C
C      0.76296  0.88498  0.46708     C
C      0.76296  0.88498  0.88498     C
N      0.78179  0.46741  0.84337     N
N      0.78179  0.46741  0.90743     N
N      0.78179  0.84337  0.46741     N
N      0.78179  0.84337  0.90743     N
N      0.78179  0.90743  0.46741     N
N      0.78179  0.90743  0.84337     N
C      0.82307  0.46631  0.82307     C
C      0.82307  0.46631  0.88755     C
C      0.82307  0.82307  0.46631     C
C      0.82307  0.82307  0.88755     C
C      0.82307  0.88755  0.46631     C
C      0.82307  0.88755  0.82307     C
N      0.84337  0.46741  0.78179     N
N      0.84337  0.46741  0.90743     N
N      0.84337  0.78179  0.46741     N
N      0.84337  0.78179  0.90743     N
N      0.84337  0.90743  0.46741     N
N      0.84337  0.90743  0.78179     N
N      0.84478  0.46566  0.84478     N
N      0.84478  0.84478  0.46566     N
N      0.84478  0.84478  0.84478     N
H       0.8555   0.4723   0.7093     H
H       0.8555   0.4723   0.9629     H
H       0.8555   0.7093   0.4723     H
H       0.8555   0.7093   0.9629     H
H       0.8555   0.9629   0.4723     H
H       0.8555   0.9629   0.7093     H
C      0.88379  0.47327  0.69515     C
C      0.88379  0.47327  0.94779     C
C      0.88379  0.69515  0.47327     C
C      0.88379  0.69515  0.94779     C
C      0.88379  0.94779  0.47327     C
C      0.88379  0.94779  0.69515     C
C      0.88498  0.46708  0.76296     C
C      0.88498  0.46708  0.88498     C
C      0.88498  0.76296  0.46708     C
C      0.88498  0.76296  0.88498     C
C      0.88498  0.88498  0.46708     C
C      0.88498  0.88498  0.76296     C
C      0.88755  0.46631  0.82307     C
C      0.88755  0.82307  0.46631     C
C      0.88755  0.82307  0.82307     C
H       0.8907   0.4775   0.6367     H
H       0.8907   0.4775   0.9951     H
H       0.8907   0.6367   0.4775     H
H       0.8907   0.6367   0.9951     H
H       0.8907   0.9951   0.4775     H
H       0.8907   0.9951   0.6367     H
C        0.905   0.4769   0.6514     C
C        0.905   0.4769   0.9667     C
C        0.905   0.6514   0.4769     C
C        0.905   0.6514   0.9667     C
C        0.905   0.9667   0.4769     C
C        0.905   0.9667   0.6514     C
C      0.90574    0.471  0.71752     C
C      0.90574    0.471  0.90574     C
C      0.90574  0.71752    0.471     C
C      0.90574  0.71752  0.90574     C
C      0.90574  0.90574    0.471     C
C      0.90574  0.90574  0.71752     C
N      0.90743  0.46741  0.78179     N
N      0.90743  0.46741  0.84337     N
N      0.90743  0.78179  0.46741     N
N      0.90743  0.78179  0.84337     N
N      0.90743  0.84337  0.46741     N
N      0.90743  0.84337  0.78179     N
O      0.94438  0.00359  0.48883     O
O      0.94438  0.00359   0.5632     O
O      0.94438  0.48883  0.00359     O
O      0.94438  0.48883   0.5632     O
O      0.94438   0.5632  0.00359     O
O      0.94438   0.5632  0.48883     O
C      0.94549  0.47951  0.62951     C
C      0.94549  0.47951  0.94549     C
C      0.94549  0.62951  0.47951     C
C      0.94549  0.62951  0.94549     C
C      0.94549  0.94549  0.47951     C
C      0.94549  0.94549  0.62951     C
C      0.94779  0.47327  0.69515     C
C      0.94779  0.47327  0.88379     C
C      0.94779  0.69515  0.47327     C
C      0.94779  0.69515  0.88379     C
C      0.94779  0.88379  0.47327     C
C      0.94779  0.88379  0.69515     C
H       0.9629   0.4723   0.7093     H
H       0.9629   0.4723   0.8555     H
H       0.9629   0.7093   0.4723     H
H       0.9629   0.7093   0.8555     H
H       0.9629   0.8555   0.4723     H
H       0.9629   0.8555   0.7093     H
Cu     0.96451  0.03549      0.5    Cu
Cu     0.96451      0.5  0.03549    Cu
Cu     0.96451      0.5      0.5    Cu
C      0.96664  0.48708  0.57964     C
C      0.96664  0.48708  0.96664     C
C      0.96664  0.57964  0.48708     C
C      0.96664  0.57964  0.96664     C
C      0.96664  0.96664  0.48708     C
C      0.96664  0.96664  0.57964     C
C       0.9667   0.4769   0.6514     C
C       0.9667   0.4769    0.905     C
C       0.9667   0.6514   0.4769     C
C       0.9667   0.6514    0.905     C
C       0.9667    0.905   0.4769     C
C       0.9667    0.905   0.6514     C
H       0.9951   0.4775   0.6367     H
H       0.9951   0.4775   0.8907     H
H       0.9951   0.6367   0.4775     H
H       0.9951   0.6367   0.8907     H
H       0.9951   0.8907   0.4775     H
H       0.9951   0.8907   0.6367     H
O      0.99641  0.05562   0.4368     O
O      0.99641  0.05562  0.51117     O
O      0.99641   0.4368  0.05562     O
O      0.99641   0.4368  0.51117     O
O      0.99641  0.51117  0.05562     O
O      0.99641  0.51117   0.4368     O
