data_I
_chemical_name_common  '/home/zhangsd/repos/MofS-CGCNN/ML/data/SSD/clean_cifs/NIGGEQ_clean'
_cell_length_a 10.86620
_cell_length_b 10.86620
_cell_length_c 19.63200
_cell_angle_alpha 75.61050
_cell_angle_beta  75.61050
_cell_angle_gamma 64.47650
_space_group_name_H-M_alt      'P 1'


loop_
_space_group_symop_operation_xyz
  'x, y, z' 

loop_
_atom_site_label
_atom_site_fract_x
_atom_site_fract_y
_atom_site_fract_z
_atom_site_type_symbol
H       0.0186   0.8452   0.8275     H
O       0.0275   0.9203   0.9337     O
C       0.0448   0.2044    0.283     C
C        0.071   0.1518   0.1608     C
O       0.0768   0.7836   0.7034     O
O       0.0797   0.9725   0.5663     O
O       0.0813   0.1497    0.481     O
C       0.0849   0.0913   0.0438     C
O       0.0909   0.5573   0.5528     O
C       0.0913   0.0849   0.5438     C
Tm      0.0958  0.75436  0.58307    Tm
H       0.0984   0.3324    0.532     H
O       0.1038   0.2082   0.3302     O
C       0.1177   0.2813   0.5765     C
C       0.1218   0.1476   0.5952     C
C       0.1282    0.178   0.2104     C
C       0.1318   0.4846   0.6079     C
C        0.143   0.3366   0.6254     C
C       0.1476   0.1218   0.0952     C
O       0.1497   0.0813    0.981     O
C       0.1518    0.071   0.6608     C
H       0.1548   0.9814   0.6725     H
O       0.1688   0.5294   0.6488     O
C        0.174   0.2598   0.6913     C
C        0.178   0.1282   0.7104     C
H       0.1923   0.2983   0.7231     H
C       0.2044   0.0448    0.783     C
O       0.2082   0.1038   0.8302     O
O       0.2164   0.9232   0.7966     O
Tm     0.24564   0.9042  0.91693    Tm
C       0.2598    0.174   0.1913     C
C       0.2813   0.1177   0.0765     C
H       0.2983   0.1923   0.2231     H
H       0.3324   0.0984    0.032     H
C       0.3366    0.143   0.1254     C
O       0.4427   0.9091   0.9472     O
O       0.4706   0.8312   0.8512     O
C       0.4846   0.1318   0.1079     C
C       0.5154   0.8682   0.8921     C
O       0.5294   0.1688   0.1488     O
O       0.5573   0.0909   0.0528     O
C       0.6634    0.857   0.8746     C
H       0.6676   0.9016    0.968     H
H       0.7017   0.8077   0.7769     H
C       0.7187   0.8823   0.9235     C
C       0.7402    0.826   0.8087     C
Tm     0.75436   0.0958  0.08307    Tm
O       0.7836   0.0768   0.2034     O
O       0.7918   0.8962   0.1698     O
C       0.7956   0.9552    0.217     C
H       0.8077   0.7017   0.2769     H
C        0.822   0.8718   0.2896     C
C        0.826   0.7402   0.3087     C
O       0.8312   0.4706   0.3512     O
H       0.8452   0.0186   0.3275     H
C       0.8482    0.929   0.3392     C
O       0.8503   0.9187    0.019     O
C       0.8524   0.8782   0.9048     C
C        0.857   0.6634   0.3746     C
C       0.8682   0.5154   0.3921     C
C       0.8718    0.822   0.7896     C
C       0.8782   0.8524   0.4048     C
C       0.8823   0.7187   0.4235     C
O       0.8962   0.7918   0.6698     O
H       0.9016   0.6676    0.468     H
Tm      0.9042  0.24564  0.41693    Tm
C       0.9087   0.9151   0.4562     C
O       0.9091   0.4427   0.4472     O
C       0.9151   0.9087   0.9562     C
O       0.9187   0.8503    0.519     O
O       0.9203   0.0275   0.4337     O
O       0.9232   0.2164   0.2966     O
C        0.929   0.8482   0.8392     C
C       0.9552   0.7956    0.717     C
O       0.9725   0.0797   0.0663     O
H       0.9814   0.1548   0.1725     H
