data_I
_chemical_name_common  '/home/zhangsd/repos/MofS-CGCNN/ML/data/SSD/clean_cifs/NIJZIP01_clean'
_cell_length_a 14.75100
_cell_length_b 15.06450
_cell_length_c 15.06450
_cell_angle_alpha 120.00000
_cell_angle_beta  90.00000
_cell_angle_gamma 90.00000
_space_group_name_H-M_alt      'P 1'


loop_
_space_group_symop_operation_xyz
  'x, y, z' 

loop_
_atom_site_label
_atom_site_fract_x
_atom_site_fract_y
_atom_site_fract_z
_atom_site_type_symbol
Cu         0.0      0.0      0.5    Cu
Cu         0.0      0.5     -0.0    Cu
O       0.0924    0.049   0.4419     O
O       0.0924   0.3929    0.951     O
O       0.0924   0.4419   0.3929     O
O       0.0924   0.5581   0.6071     O
O       0.0924   0.6071    0.049     O
O       0.0924    0.951   0.5581     O
C       0.1399   0.1278   0.4842     C
C       0.1399   0.3564   0.8722     C
C       0.1399   0.4842   0.3564     C
C       0.1399   0.5158   0.6436     C
C       0.1399   0.6436   0.1278     C
C       0.1399   0.8722   0.5158     C
O       0.1411   0.1925   0.5781     O
O       0.1411   0.3856   0.8075     O
O       0.1411   0.4219   0.6144     O
O       0.1411   0.5781   0.3856     O
O       0.1411   0.6144   0.1925     O
O       0.1411   0.8075   0.4219     O
H       0.1627   0.1526   0.3644     H
H       0.1627   0.2118   0.8474     H
H       0.1627   0.3644   0.2118     H
H       0.1627   0.6356   0.7882     H
H       0.1627   0.7882   0.1526     H
H       0.1627   0.8474   0.6356     H
C       0.1996    0.146   0.4141     C
C       0.1996   0.2681    0.854     C
C       0.1996   0.4141   0.2681     C
C       0.1996   0.5859   0.7319     C
C       0.1996   0.7319    0.146     C
C       0.1996    0.854   0.5859     C
H       0.2403   0.0883   0.3773     H
H       0.2403    0.289   0.9117     H
H       0.2403   0.3773    0.289     H
H       0.2403   0.6227    0.711     H
H       0.2403    0.711   0.0883     H
H       0.2403   0.9117   0.6227     H
O         0.25  0.23625   0.4725     O
O         0.25  0.23625  0.76375     O
Nd        0.25  0.33333  0.66666    Nd
O         0.25   0.4725  0.23625     O
O         0.25   0.5275  0.76375     O
Nd        0.25  0.66667  0.33334    Nd
O         0.25  0.76375  0.23625     O
O         0.25  0.76375   0.5275     O
H       0.2597   0.0883    0.711     H
H       0.2597    0.289   0.3773     H
H       0.2597   0.3773   0.0883     H
H       0.2597   0.6227   0.9117     H
H       0.2597    0.711   0.6227     H
H       0.2597   0.9117    0.289     H
C       0.3004    0.146   0.7319     C
C       0.3004   0.2681   0.4141     C
C       0.3004   0.4141    0.146     C
C       0.3004   0.5859    0.854     C
C       0.3004   0.7319   0.5859     C
C       0.3004    0.854   0.2681     C
H       0.3373   0.1526   0.7882     H
H       0.3373   0.2118   0.3644     H
H       0.3373   0.3644   0.1526     H
H       0.3373   0.6356   0.8474     H
H       0.3373   0.7882   0.6356     H
H       0.3373   0.8474   0.2118     H
O       0.3589   0.1925   0.6144     O
O       0.3589   0.3856   0.5781     O
O       0.3589   0.4219   0.8075     O
O       0.3589   0.5781   0.1925     O
O       0.3589   0.6144   0.4219     O
O       0.3589   0.8075   0.3856     O
C       0.3601   0.1278   0.6436     C
C       0.3601   0.3564   0.4842     C
C       0.3601   0.4842   0.1278     C
C       0.3601   0.5158   0.8722     C
C       0.3601   0.6436   0.5158     C
C       0.3601   0.8722   0.3564     C
O       0.4076    0.049   0.6071     O
O       0.4076   0.3929   0.4419     O
O       0.4076   0.4419    0.049     O
O       0.4076   0.5581    0.951     O
O       0.4076   0.6071   0.5581     O
O       0.4076    0.951   0.3929     O
Cu         0.5      0.0      0.5    Cu
Cu         0.5      0.5      0.0    Cu
Cu         0.5      0.5      0.5    Cu
O       0.5924    0.049   0.6071     O
O       0.5924   0.3929   0.4419     O
O       0.5924   0.4419    0.049     O
O       0.5924   0.5581    0.951     O
O       0.5924   0.6071   0.5581     O
O       0.5924    0.951   0.3929     O
C       0.6399   0.1278   0.6436     C
C       0.6399   0.3564   0.4842     C
C       0.6399   0.4842   0.1278     C
C       0.6399   0.5158   0.8722     C
C       0.6399   0.6436   0.5158     C
C       0.6399   0.8722   0.3564     C
O       0.6411   0.1925   0.6144     O
O       0.6411   0.3856   0.5781     O
O       0.6411   0.4219   0.8075     O
O       0.6411   0.5781   0.1925     O
O       0.6411   0.6144   0.4219     O
O       0.6411   0.8075   0.3856     O
H       0.6627   0.1526   0.7882     H
H       0.6627   0.2118   0.3644     H
H       0.6627   0.3644   0.1526     H
H       0.6627   0.6356   0.8474     H
H       0.6627   0.7882   0.6356     H
H       0.6627   0.8474   0.2118     H
C       0.6996    0.146   0.7319     C
C       0.6996   0.2681   0.4141     C
C       0.6996   0.4141    0.146     C
C       0.6996   0.5859    0.854     C
C       0.6996   0.7319   0.5859     C
C       0.6996    0.854   0.2681     C
H       0.7403   0.0883    0.711     H
H       0.7403    0.289   0.3773     H
H       0.7403   0.3773   0.0883     H
H       0.7403   0.6227   0.9117     H
H       0.7403    0.711   0.6227     H
H       0.7403   0.9117    0.289     H
O         0.75  0.23625   0.4725     O
O         0.75  0.23625  0.76375     O
Nd        0.75  0.33333  0.66666    Nd
O         0.75   0.4725  0.23625     O
O         0.75   0.5275  0.76375     O
Nd        0.75  0.66667  0.33334    Nd
O         0.75  0.76375  0.23625     O
O         0.75  0.76375   0.5275     O
H       0.7597   0.0883   0.3773     H
H       0.7597    0.289   0.9117     H
H       0.7597   0.3773    0.289     H
H       0.7597   0.6227    0.711     H
H       0.7597    0.711   0.0883     H
H       0.7597   0.9117   0.6227     H
C       0.8004    0.146   0.4141     C
C       0.8004   0.2681    0.854     C
C       0.8004   0.4141   0.2681     C
C       0.8004   0.5859   0.7319     C
C       0.8004   0.7319    0.146     C
C       0.8004    0.854   0.5859     C
H       0.8373   0.1526   0.3644     H
H       0.8373   0.2118   0.8474     H
H       0.8373   0.3644   0.2118     H
H       0.8373   0.6356   0.7882     H
H       0.8373   0.7882   0.1526     H
H       0.8373   0.8474   0.6356     H
O       0.8589   0.1925   0.5781     O
O       0.8589   0.3856   0.8075     O
O       0.8589   0.4219   0.6144     O
O       0.8589   0.5781   0.3856     O
O       0.8589   0.6144   0.1925     O
O       0.8589   0.8075   0.4219     O
C       0.8601   0.1278   0.4842     C
C       0.8601   0.3564   0.8722     C
C       0.8601   0.4842   0.3564     C
C       0.8601   0.5158   0.6436     C
C       0.8601   0.6436   0.1278     C
C       0.8601   0.8722   0.5158     C
O       0.9076    0.049   0.4419     O
O       0.9076   0.3929    0.951     O
O       0.9076   0.4419   0.3929     O
O       0.9076   0.5581   0.6071     O
O       0.9076   0.6071    0.049     O
O       0.9076    0.951   0.5581     O
Cu         1.0      0.5      0.5    Cu
