data_I
_chemical_name_common  '/home/zhangsd/repos/MofS-CGCNN/ML/data/SSD/clean_cifs/NIRDEX_clean'
_cell_length_a  8.47470
_cell_length_b  8.98730
_cell_length_c  8.98730
_cell_angle_alpha 77.15370
_cell_angle_beta  61.86950
_cell_angle_gamma 61.86950
_space_group_name_H-M_alt      'P 1'


loop_
_space_group_symop_operation_xyz
  'x, y, z' 

loop_
_atom_site_label
_atom_site_fract_x
_atom_site_fract_y
_atom_site_fract_z
_atom_site_type_symbol
O        0.004   0.6152   0.6152     O
C       0.0398   0.7712   0.7712     C
Cd      0.0752      0.0      0.0    Cd
O       0.2205   0.6861   0.6861     O
O       0.2344   0.3848   0.3848     O
O        0.254   0.3136   0.6864     O
O        0.254   0.6864   0.3136     O
O       0.3158   0.1982   0.1982     O
O        0.321   0.1215   0.8785     O
O        0.321   0.8785   0.1215     O
Zr      0.3277      0.5      0.5    Zr
C        0.346   0.2287   0.7713     C
C        0.346   0.7713   0.2287     C
C       0.3643   0.2707   0.2707     C
C        0.523   0.2702   0.7298     C
C        0.523   0.7298   0.2702     C
O       0.5384   0.3864   0.6136     O
O       0.5384   0.6136   0.3864     O
Cd     0.57664      0.0      0.0    Cd
C       0.5822   0.2288   0.2288     C
O       0.5927   0.3139   0.3139     O
O        0.648   0.1967   0.8033     O
O        0.648   0.8033   0.1967     O
O       0.7122   0.8018   0.8018     O
O       0.7212   0.1218   0.1218     O
C       0.9057   0.7293   0.7293     C
O       0.9648   0.8782   0.8782     O
