data_I
_chemical_name_common  '/home/zhangsd/repos/MofS-CGCNN/ML/data/SSD/clean_cifs/NIZZOM_clean'
_cell_length_a 14.01200
_cell_length_b 28.28000
_cell_length_c 44.90700
_cell_angle_alpha 90.00000
_cell_angle_beta  90.00000
_cell_angle_gamma 90.00000
_space_group_name_H-M_alt      'P 1'


loop_
_space_group_symop_operation_xyz
  'x, y, z' 

loop_
_atom_site_label
_atom_site_fract_x
_atom_site_fract_y
_atom_site_fract_z
_atom_site_type_symbol
C        0.005   0.1995  0.34948     C
C        0.005   0.6995  0.15052     C
C       0.0057    0.217  0.19074     C
C       0.0057    0.717  0.30926     C
C       0.0112   0.1518  0.39304     C
C       0.0112   0.6518  0.10696     C
H       0.0117   0.2085   0.7258     H
H       0.0117   0.7085   0.7742     H
C       0.0135   0.0759  0.48912     C
C       0.0135   0.5759  0.01088     C
N       0.0136   0.1126  0.44079     N
N       0.0136   0.6126  0.05921     N
N       0.0138   0.0492  0.92273     N
N       0.0138   0.5492  0.57727     N
N       0.0172   0.1745  0.17887     N
N       0.0172   0.6745  0.32113     N
N       0.0174   0.2579  0.17651     N
N       0.0174   0.7579  0.32349     N
C       0.0184   0.0509  0.53965     C
C       0.0184   0.5509  0.96035     C
H       0.0222   0.3425   0.1661     H
H       0.0222   0.8425   0.3339     H
C       0.0258   0.2795  0.72215     C
C       0.0258   0.7795  0.77785     C
H        0.026   0.0291    0.965     H
H        0.026   0.5291    0.535     H
H       0.0289   0.0764   0.8826     H
H       0.0289   0.5764   0.6174     H
C       0.0317   0.2362  0.73603     C
C       0.0317   0.7362  0.76397     C
H       0.0375   0.2169   0.3345     H
H       0.0375   0.7169   0.1655     H
C       0.0428    0.342  0.14592     C
C       0.0428    0.842  0.35408     C
C       0.0431   0.1749  0.14966     C
C       0.0431   0.6749  0.35034     C
C       0.0432   0.2543  0.14797     C
C       0.0432   0.7543  0.35203     C
H       0.0442   0.0876   0.1713     H
H       0.0442   0.5876   0.3287     H
I      0.04522  0.01207  0.38593     I
I      0.04522  0.51207  0.11407     I
H       0.0469   0.4124   0.1412     H
H       0.0469   0.9124   0.3588     H
H       0.0477   0.3495   0.7294     H
H       0.0477   0.8495   0.7706     H
C       0.0531   0.3189  0.73799     C
C       0.0531   0.8189  0.76201     C
H       0.0549   0.0402   0.5561     H
H       0.0549   0.5402   0.9439     H
C        0.055   0.0875  0.15046     C
C        0.055   0.5875  0.34954     C
C       0.0556   0.1291  0.13443     C
C       0.0556   0.6291  0.36557     C
N       0.0563   0.2142  0.13348     N
N       0.0563   0.7142  0.36652     N
C       0.0575   0.2994  0.13168     C
C       0.0575   0.7994  0.36832     C
C        0.058   0.1768   0.3707     C
C        0.058   0.3835  0.13104     C
C        0.058   0.6768   0.1293     C
C        0.058   0.8835  0.36896     C
C        0.059   0.0439  0.94904     C
C        0.059   0.5439  0.55096     C
C       0.0608   0.0713  0.90095     C
C       0.0608   0.5713  0.59905     C
C       0.0635   0.0895  0.46142     C
C       0.0635   0.5895  0.03858     C
C       0.0642   0.1264  0.41703     C
C       0.0642   0.6264  0.08297     C
C       0.0652    0.061  0.51356     C
C       0.0652    0.561  0.98644     C
H       0.0656   0.1553   0.0927     H
H       0.0656   0.6553   0.4073     H
C       0.0662   0.2329  0.76456     C
C       0.0662   0.7329  0.73544     C
C       0.0676   0.1272  0.10422     C
C       0.0676   0.6272  0.39578     C
H       0.0693   0.2027   0.7738     H
H       0.0693   0.7027   0.7262     H
H       0.0705   0.0166   0.1461     H
C       0.0705   0.0454   0.1352     C
H       0.0705   0.5166   0.3539     H
C       0.0705   0.5454   0.3648     C
N        0.076   0.4446  0.04302     N
N        0.076   0.9446  0.45698     N
C       0.0827   0.0837   0.0905     C
C       0.0827   0.5837   0.4095     C
C       0.0844   0.4223   0.9912     C
C       0.0844   0.9223   0.5088     C
C       0.0846   0.3003  0.10223     C
C       0.0846   0.8003  0.39777     C
N       0.0856   0.0437  0.10568     N
N       0.0856   0.5437  0.39432     N
C       0.0876   0.3502  0.89216     C
C       0.0876   0.8502  0.60784     C
N       0.0877   0.3851  0.10271     N
N       0.0877   0.8851  0.39729     N
C       0.0888   0.3134  0.76674     C
C       0.0888   0.8134  0.73326     C
N       0.0908   0.3018  0.84884     N
N       0.0908   0.8018  0.65116     N
H       0.0912   0.0828   0.0695     H
H       0.0912   0.5828   0.4305     H
H       0.0928   0.2718   0.0913     H
H       0.0928   0.7718   0.4087     H
N       0.0957   0.2708  0.77982     N
N       0.0957   0.7708  0.72018     N
C       0.0998   0.3443  0.08868     C
C       0.0998   0.8443  0.41132     C
H       0.1089   0.3407   0.7774     H
H       0.1089   0.8407   0.7226     H
Zn     0.11692  0.48042  0.41512    Zn
Zn     0.11692  0.98042  0.08488    Zn
H       0.1198   0.3449   0.0685     H
H       0.1198   0.8449   0.4315     H
H       0.1221   0.3679   0.9065     H
H       0.1221   0.8679   0.5935     H
H       0.1226   0.4142   0.9745     H
H       0.1226   0.9142   0.5255     H
H       0.1257    0.178   0.3701     H
H       0.1257    0.678   0.1299     H
C       0.1261   0.4327  0.01872     C
C       0.1261   0.9327  0.48128     C
H       0.1326   0.0577   0.5123     H
H       0.1326   0.5577   0.9877     H
Zn     0.13288  0.44838  0.08489    Zn
Zn     0.13288  0.94838  0.41511    Zn
C       0.1351   0.3258  0.86979     C
C       0.1351   0.8258  0.63021     C
C       0.1511   0.0591  0.95356     C
C       0.1511   0.5591  0.54644     C
C        0.153   0.0872  0.90378     C
C        0.153   0.5872  0.59622     C
N       0.1548   0.0787  0.45919     N
N       0.1548   0.5787  0.04081     N
N       0.1572   0.1189  0.41289     N
N       0.1572   0.6189  0.08711     N
I      0.16464  0.17723  0.83512     I
I      0.16464  0.67723  0.66488     I
Zn     0.16869   0.2634  0.81894    Zn
Zn     0.16869   0.7634  0.68106    Zn
I      0.16895  0.30328  0.31244     I
I      0.16895  0.80328  0.18756     I
H       0.1808   0.0548   0.9724     H
H       0.1808   0.5548   0.5276     H
H       0.1841   0.1023   0.8876     H
H       0.1841   0.6023   0.6124     H
I      0.18713  0.44183  0.58225     I
I      0.18713  0.94183  0.91775     I
I      0.19254   0.4991  0.46563     I
I      0.19254   0.9991  0.03437     I
H       0.1936   0.4313   0.0203     H
H       0.1936   0.9313   0.4797     H
C       0.1985   0.0941  0.43457     C
C       0.1985   0.5941  0.06543     C
C       0.2001   0.0808   0.9307     C
C       0.2001   0.5808   0.5693     C
I      0.20276  0.42937  0.37773     I
I      0.20276  0.92937  0.12227     I
H       0.2029   0.3264   0.8696     H
H       0.2029   0.8264   0.6304     H
H       0.2971   0.3264   0.3696     H
H       0.2971   0.8264   0.1304     H
I      0.29724  0.42937  0.87773     I
I      0.29724  0.92937  0.62227     I
C       0.2999   0.0808   0.4307     C
C       0.2999   0.5808   0.0693     C
C       0.3015   0.0941  0.93457     C
C       0.3015   0.5941  0.56543     C
H       0.3064   0.4313   0.5203     H
H       0.3064   0.9313   0.9797     H
I      0.30746   0.4991  0.96563     I
I      0.30746   0.9991  0.53437     I
I      0.31287  0.44183  0.08225     I
I      0.31287  0.94183  0.41775     I
H       0.3159   0.1023   0.3876     H
H       0.3159   0.6023   0.1124     H
H       0.3192   0.0548   0.4724     H
H       0.3192   0.5548   0.0276     H
I      0.33105  0.30328  0.81244     I
I      0.33105  0.80328  0.68756     I
Zn     0.33131   0.2634  0.31894    Zn
Zn     0.33131   0.7634  0.18106    Zn
I      0.33536  0.17723  0.33512     I
I      0.33536  0.67723  0.16488     I
N       0.3428   0.1189  0.91289     N
N       0.3428   0.6189  0.58711     N
N       0.3452   0.0787  0.95919     N
N       0.3452   0.5787  0.54081     N
C        0.347   0.0872  0.40378     C
C        0.347   0.5872  0.09622     C
C       0.3489   0.0591  0.45356     C
C       0.3489   0.5591  0.04644     C
C       0.3649   0.3258  0.36979     C
C       0.3649   0.8258  0.13021     C
Zn     0.36712  0.44838  0.58489    Zn
Zn     0.36712  0.94838  0.91511    Zn
H       0.3674   0.0577   0.0123     H
H       0.3674   0.5577   0.4877     H
C       0.3739   0.4327  0.51872     C
C       0.3739   0.9327  0.98128     C
H       0.3743    0.178   0.8701     H
H       0.3743    0.678   0.6299     H
H       0.3774   0.4142   0.4745     H
H       0.3774   0.9142   0.0255     H
H       0.3779   0.3679   0.4065     H
H       0.3779   0.8679   0.0935     H
H       0.3802   0.3449   0.5685     H
H       0.3802   0.8449   0.9315     H
Zn     0.38308  0.48042  0.91512    Zn
Zn     0.38308  0.98042  0.58488    Zn
H       0.3911   0.3407   0.2774     H
H       0.3911   0.8407   0.2226     H
C       0.4002   0.3443  0.58868     C
C       0.4002   0.8443  0.91132     C
N       0.4043   0.2708  0.27982     N
N       0.4043   0.7708  0.22018     N
H       0.4072   0.2718   0.5913     H
H       0.4072   0.7718   0.9087     H
H       0.4088   0.0828   0.5695     H
H       0.4088   0.5828   0.9305     H
N       0.4092   0.3018  0.34884     N
N       0.4092   0.8018  0.15116     N
C       0.4112   0.3134  0.26674     C
C       0.4112   0.8134  0.23326     C
N       0.4123   0.3851  0.60271     N
N       0.4123   0.8851  0.89729     N
C       0.4124   0.3502  0.39216     C
C       0.4124   0.8502  0.10784     C
N       0.4144   0.0437  0.60568     N
N       0.4144   0.5437  0.89432     N
C       0.4154   0.3003  0.60223     C
C       0.4154   0.8003  0.89777     C
C       0.4156   0.4223   0.4912     C
C       0.4156   0.9223   0.0088     C
C       0.4173   0.0837   0.5905     C
C       0.4173   0.5837   0.9095     C
N        0.424   0.4446  0.54302     N
N        0.424   0.9446  0.95698     N
H       0.4295   0.0166   0.6461     H
C       0.4295   0.0454   0.6352     C
H       0.4295   0.5166   0.8539     H
C       0.4295   0.5454   0.8648     C
H       0.4307   0.2027   0.2738     H
H       0.4307   0.7027   0.2262     H
C       0.4324   0.1272  0.60422     C
C       0.4324   0.6272  0.89578     C
C       0.4338   0.2329  0.26456     C
C       0.4338   0.7329  0.23544     C
H       0.4344   0.1553   0.5927     H
H       0.4344   0.6553   0.9073     H
C       0.4348    0.061  0.01356     C
C       0.4348    0.561  0.48644     C
C       0.4358   0.1264  0.91703     C
C       0.4358   0.6264  0.58297     C
C       0.4365   0.0895  0.96142     C
C       0.4365   0.5895  0.53858     C
C       0.4392   0.0713  0.40095     C
C       0.4392   0.5713  0.09905     C
C        0.441   0.0439  0.44904     C
C        0.441   0.5439  0.05096     C
C        0.442   0.1768   0.8707     C
C        0.442   0.3835  0.63104     C
C        0.442   0.6768   0.6293     C
C        0.442   0.8835  0.86896     C
C       0.4425   0.2994  0.63168     C
C       0.4425   0.7994  0.86832     C
N       0.4437   0.2142  0.63348     N
N       0.4437   0.7142  0.86652     N
C       0.4444   0.1291  0.63443     C
C       0.4444   0.6291  0.86557     C
C        0.445   0.0875  0.65046     C
C        0.445   0.5875  0.84954     C
H       0.4451   0.0402   0.0561     H
H       0.4451   0.5402   0.4439     H
C       0.4469   0.3189  0.23799     C
C       0.4469   0.8189  0.26201     C
H       0.4523   0.3495   0.2294     H
H       0.4523   0.8495   0.2706     H
H       0.4531   0.4124   0.6412     H
H       0.4531   0.9124   0.8588     H
I      0.45478  0.01207  0.88593     I
I      0.45478  0.51207  0.61407     I
H       0.4558   0.0876   0.6713     H
H       0.4558   0.5876   0.8287     H
C       0.4568   0.2543  0.64797     C
C       0.4568   0.7543  0.85203     C
C       0.4569   0.1749  0.64966     C
C       0.4569   0.6749  0.85034     C
C       0.4572    0.342  0.64592     C
C       0.4572    0.842  0.85408     C
H       0.4625   0.2169   0.8345     H
H       0.4625   0.7169   0.6655     H
C       0.4683   0.2362  0.23603     C
C       0.4683   0.7362  0.26397     C
H       0.4711   0.0764   0.3826     H
H       0.4711   0.5764   0.1174     H
H        0.474   0.0291    0.465     H
H        0.474   0.5291    0.035     H
C       0.4742   0.2795  0.22215     C
C       0.4742   0.7795  0.27785     C
H       0.4778   0.3425   0.6661     H
H       0.4778   0.8425   0.8339     H
C       0.4816   0.0509  0.03965     C
C       0.4816   0.5509  0.46035     C
N       0.4826   0.2579  0.67651     N
N       0.4826   0.7579  0.82349     N
N       0.4828   0.1745  0.67887     N
N       0.4828   0.6745  0.82113     N
N       0.4862   0.0492  0.42273     N
N       0.4862   0.5492  0.07727     N
N       0.4864   0.1126  0.94079     N
N       0.4864   0.6126  0.55921     N
C       0.4865   0.0759  0.98912     C
C       0.4865   0.5759  0.51088     C
H       0.4883   0.2085   0.2258     H
H       0.4883   0.7085   0.2742     H
C       0.4888   0.1518  0.89304     C
C       0.4888   0.6518  0.60696     C
C       0.4943    0.217  0.69074     C
C       0.4943    0.717  0.80926     C
C        0.495   0.1995  0.84948     C
C        0.495   0.6995  0.65052     C
C        0.505   0.3005  0.34948     C
C        0.505   0.8005  0.15052     C
C       0.5057    0.283  0.19074     C
C       0.5057    0.783  0.30926     C
C       0.5112   0.3482  0.39304     C
C       0.5112   0.8482  0.10696     C
H       0.5117   0.2915   0.7258     H
H       0.5117   0.7915   0.7742     H
C       0.5135   0.4241  0.48912     C
C       0.5135   0.9241  0.01088     C
N       0.5136   0.3874  0.44079     N
N       0.5136   0.8874  0.05921     N
N       0.5138   0.4508  0.92273     N
N       0.5138   0.9508  0.57727     N
N       0.5172   0.3255  0.17887     N
N       0.5172   0.8255  0.32113     N
N       0.5174   0.2421  0.17651     N
N       0.5174   0.7421  0.32349     N
C       0.5184   0.4491  0.53965     C
C       0.5184   0.9491  0.96035     C
H       0.5222   0.1575   0.1661     H
H       0.5222   0.6575   0.3339     H
C       0.5258   0.2205  0.72215     C
C       0.5258   0.7205  0.77785     C
H        0.526   0.4709    0.965     H
H        0.526   0.9709    0.535     H
H       0.5289   0.4236   0.8826     H
H       0.5289   0.9236   0.6174     H
C       0.5317   0.2638  0.73603     C
C       0.5317   0.7638  0.76397     C
H       0.5375   0.2831   0.3345     H
H       0.5375   0.7831   0.1655     H
C       0.5428    0.158  0.14592     C
C       0.5428    0.658  0.35408     C
C       0.5431   0.3251  0.14966     C
C       0.5431   0.8251  0.35034     C
C       0.5432   0.2457  0.14797     C
C       0.5432   0.7457  0.35203     C
H       0.5442   0.4124   0.1713     H
H       0.5442   0.9124   0.3287     H
I      0.54522  0.48793  0.38593     I
I      0.54522  0.98793  0.11407     I
H       0.5469   0.0876   0.1412     H
H       0.5469   0.5876   0.3588     H
H       0.5477   0.1505   0.7294     H
H       0.5477   0.6505   0.7706     H
C       0.5531   0.1811  0.73799     C
C       0.5531   0.6811  0.76201     C
H       0.5549   0.4598   0.5561     H
H       0.5549   0.9598   0.9439     H
C        0.555   0.4125  0.15046     C
C        0.555   0.9125  0.34954     C
C       0.5556   0.3709  0.13443     C
C       0.5556   0.8709  0.36557     C
N       0.5563   0.2858  0.13348     N
N       0.5563   0.7858  0.36652     N
C       0.5575   0.2006  0.13168     C
C       0.5575   0.7006  0.36832     C
C        0.558   0.1165  0.13104     C
C        0.558   0.3232   0.3707     C
C        0.558   0.6165  0.36896     C
C        0.558   0.8232   0.1293     C
C        0.559   0.4561  0.94904     C
C        0.559   0.9561  0.55096     C
C       0.5608   0.4287  0.90095     C
C       0.5608   0.9287  0.59905     C
C       0.5635   0.4105  0.46142     C
C       0.5635   0.9105  0.03858     C
C       0.5642   0.3736  0.41703     C
C       0.5642   0.8736  0.08297     C
C       0.5652    0.439  0.51356     C
C       0.5652    0.939  0.98644     C
H       0.5656   0.3447   0.0927     H
H       0.5656   0.8447   0.4073     H
C       0.5662   0.2671  0.76456     C
C       0.5662   0.7671  0.73544     C
C       0.5676   0.3728  0.10422     C
C       0.5676   0.8728  0.39578     C
H       0.5693   0.2973   0.7738     H
H       0.5693   0.7973   0.7262     H
C       0.5705   0.4546   0.1352     C
H       0.5705   0.4834   0.1461     H
C       0.5705   0.9546   0.3648     C
H       0.5705   0.9834   0.3539     H
N        0.576   0.0554  0.04302     N
N        0.576   0.5554  0.45698     N
C       0.5827   0.4163   0.0905     C
C       0.5827   0.9163   0.4095     C
C       0.5844   0.0777   0.9912     C
C       0.5844   0.5777   0.5088     C
C       0.5846   0.1997  0.10223     C
C       0.5846   0.6997  0.39777     C
N       0.5856   0.4563  0.10568     N
N       0.5856   0.9563  0.39432     N
C       0.5876   0.1498  0.89216     C
C       0.5876   0.6498  0.60784     C
N       0.5877   0.1149  0.10271     N
N       0.5877   0.6149  0.39729     N
C       0.5888   0.1866  0.76674     C
C       0.5888   0.6866  0.73326     C
N       0.5908   0.1982  0.84884     N
N       0.5908   0.6982  0.65116     N
H       0.5912   0.4172   0.0695     H
H       0.5912   0.9172   0.4305     H
H       0.5928   0.2282   0.0913     H
H       0.5928   0.7282   0.4087     H
N       0.5957   0.2292  0.77982     N
N       0.5957   0.7292  0.72018     N
C       0.5998   0.1557  0.08868     C
C       0.5998   0.6557  0.41132     C
H       0.6089   0.1593   0.7774     H
H       0.6089   0.6593   0.7226     H
Zn     0.61692  0.01958  0.41512    Zn
Zn     0.61692  0.51958  0.08488    Zn
H       0.6198   0.1551   0.0685     H
H       0.6198   0.6551   0.4315     H
H       0.6221   0.1321   0.9065     H
H       0.6221   0.6321   0.5935     H
H       0.6226   0.0858   0.9745     H
H       0.6226   0.5858   0.5255     H
H       0.6257    0.322   0.3701     H
H       0.6257    0.822   0.1299     H
C       0.6261   0.0673  0.01872     C
C       0.6261   0.5673  0.48128     C
H       0.6326   0.4423   0.5123     H
H       0.6326   0.9423   0.9877     H
Zn     0.63288  0.05162  0.08489    Zn
Zn     0.63288  0.55162  0.41511    Zn
C       0.6351   0.1742  0.86979     C
C       0.6351   0.6742  0.63021     C
C       0.6511   0.4409  0.95356     C
C       0.6511   0.9409  0.54644     C
C        0.653   0.4128  0.90378     C
C        0.653   0.9128  0.59622     C
N       0.6548   0.4213  0.45919     N
N       0.6548   0.9213  0.04081     N
N       0.6572   0.3811  0.41289     N
N       0.6572   0.8811  0.08711     N
I      0.66464  0.32277  0.83512     I
I      0.66464  0.82277  0.66488     I
Zn     0.66869   0.2366  0.81894    Zn
Zn     0.66869   0.7366  0.68106    Zn
I      0.66895  0.19672  0.31244     I
I      0.66895  0.69672  0.18756     I
H       0.6808   0.4452   0.9724     H
H       0.6808   0.9452   0.5276     H
H       0.6841   0.3977   0.8876     H
H       0.6841   0.8977   0.6124     H
I      0.68713  0.05817  0.58225     I
I      0.68713  0.55817  0.91775     I
I      0.69254   0.0009  0.46563     I
I      0.69254   0.5009  0.03437     I
H       0.6936   0.0687   0.0203     H
H       0.6936   0.5687   0.4797     H
C       0.6985   0.4059  0.43457     C
C       0.6985   0.9059  0.06543     C
C       0.7001   0.4192   0.9307     C
C       0.7001   0.9192   0.5693     C
I      0.70276  0.07063  0.37773     I
I      0.70276  0.57063  0.12227     I
H       0.7029   0.1736   0.8696     H
H       0.7029   0.6736   0.6304     H
H       0.7971   0.1736   0.3696     H
H       0.7971   0.6736   0.1304     H
I      0.79724  0.07063  0.87773     I
I      0.79724  0.57063  0.62227     I
C       0.7999   0.4192   0.4307     C
C       0.7999   0.9192   0.0693     C
C       0.8015   0.4059  0.93457     C
C       0.8015   0.9059  0.56543     C
H       0.8064   0.0687   0.5203     H
H       0.8064   0.5687   0.9797     H
I      0.80746   0.0009  0.96563     I
I      0.80746   0.5009  0.53437     I
I      0.81287  0.05817  0.08225     I
I      0.81287  0.55817  0.41775     I
H       0.8159   0.3977   0.3876     H
H       0.8159   0.8977   0.1124     H
H       0.8192   0.4452   0.4724     H
H       0.8192   0.9452   0.0276     H
I      0.83105  0.19672  0.81244     I
I      0.83105  0.69672  0.68756     I
Zn     0.83131   0.2366  0.31894    Zn
Zn     0.83131   0.7366  0.18106    Zn
I      0.83536  0.32277  0.33512     I
I      0.83536  0.82277  0.16488     I
N       0.8428   0.3811  0.91289     N
N       0.8428   0.8811  0.58711     N
N       0.8452   0.4213  0.95919     N
N       0.8452   0.9213  0.54081     N
C        0.847   0.4128  0.40378     C
C        0.847   0.9128  0.09622     C
C       0.8489   0.4409  0.45356     C
C       0.8489   0.9409  0.04644     C
C       0.8649   0.1742  0.36979     C
C       0.8649   0.6742  0.13021     C
Zn     0.86712  0.05162  0.58489    Zn
Zn     0.86712  0.55162  0.91511    Zn
H       0.8674   0.4423   0.0123     H
H       0.8674   0.9423   0.4877     H
C       0.8739   0.0673  0.51872     C
C       0.8739   0.5673  0.98128     C
H       0.8743    0.322   0.8701     H
H       0.8743    0.822   0.6299     H
H       0.8774   0.0858   0.4745     H
H       0.8774   0.5858   0.0255     H
H       0.8779   0.1321   0.4065     H
H       0.8779   0.6321   0.0935     H
H       0.8802   0.1551   0.5685     H
H       0.8802   0.6551   0.9315     H
Zn     0.88308  0.01958  0.91512    Zn
Zn     0.88308  0.51958  0.58488    Zn
H       0.8911   0.1593   0.2774     H
H       0.8911   0.6593   0.2226     H
C       0.9002   0.1557  0.58868     C
C       0.9002   0.6557  0.91132     C
N       0.9043   0.2292  0.27982     N
N       0.9043   0.7292  0.22018     N
H       0.9072   0.2282   0.5913     H
H       0.9072   0.7282   0.9087     H
H       0.9088   0.4172   0.5695     H
H       0.9088   0.9172   0.9305     H
N       0.9092   0.1982  0.34884     N
N       0.9092   0.6982  0.15116     N
C       0.9112   0.1866  0.26674     C
C       0.9112   0.6866  0.23326     C
N       0.9123   0.1149  0.60271     N
N       0.9123   0.6149  0.89729     N
C       0.9124   0.1498  0.39216     C
C       0.9124   0.6498  0.10784     C
N       0.9144   0.4563  0.60568     N
N       0.9144   0.9563  0.89432     N
C       0.9154   0.1997  0.60223     C
C       0.9154   0.6997  0.89777     C
C       0.9156   0.0777   0.4912     C
C       0.9156   0.5777   0.0088     C
C       0.9173   0.4163   0.5905     C
C       0.9173   0.9163   0.9095     C
N        0.924   0.0554  0.54302     N
N        0.924   0.5554  0.95698     N
C       0.9295   0.4546   0.6352     C
H       0.9295   0.4834   0.6461     H
C       0.9295   0.9546   0.8648     C
H       0.9295   0.9834   0.8539     H
H       0.9307   0.2973   0.2738     H
H       0.9307   0.7973   0.2262     H
C       0.9324   0.3728  0.60422     C
C       0.9324   0.8728  0.89578     C
C       0.9338   0.2671  0.26456     C
C       0.9338   0.7671  0.23544     C
H       0.9344   0.3447   0.5927     H
H       0.9344   0.8447   0.9073     H
C       0.9348    0.439  0.01356     C
C       0.9348    0.939  0.48644     C
C       0.9358   0.3736  0.91703     C
C       0.9358   0.8736  0.58297     C
C       0.9365   0.4105  0.96142     C
C       0.9365   0.9105  0.53858     C
C       0.9392   0.4287  0.40095     C
C       0.9392   0.9287  0.09905     C
C        0.941   0.4561  0.44904     C
C        0.941   0.9561  0.05096     C
C        0.942   0.1165  0.63104     C
C        0.942   0.3232   0.8707     C
C        0.942   0.6165  0.86896     C
C        0.942   0.8232   0.6293     C
C       0.9425   0.2006  0.63168     C
C       0.9425   0.7006  0.86832     C
N       0.9437   0.2858  0.63348     N
N       0.9437   0.7858  0.86652     N
C       0.9444   0.3709  0.63443     C
C       0.9444   0.8709  0.86557     C
C        0.945   0.4125  0.65046     C
C        0.945   0.9125  0.84954     C
H       0.9451   0.4598   0.0561     H
H       0.9451   0.9598   0.4439     H
C       0.9469   0.1811  0.23799     C
C       0.9469   0.6811  0.26201     C
H       0.9523   0.1505   0.2294     H
H       0.9523   0.6505   0.2706     H
H       0.9531   0.0876   0.6412     H
H       0.9531   0.5876   0.8588     H
I      0.95478  0.48793  0.88593     I
I      0.95478  0.98793  0.61407     I
H       0.9558   0.4124   0.6713     H
H       0.9558   0.9124   0.8287     H
C       0.9568   0.2457  0.64797     C
C       0.9568   0.7457  0.85203     C
C       0.9569   0.3251  0.64966     C
C       0.9569   0.8251  0.85034     C
C       0.9572    0.158  0.64592     C
C       0.9572    0.658  0.85408     C
H       0.9625   0.2831   0.8345     H
H       0.9625   0.7831   0.6655     H
C       0.9683   0.2638  0.23603     C
C       0.9683   0.7638  0.26397     C
H       0.9711   0.4236   0.3826     H
H       0.9711   0.9236   0.1174     H
H        0.974   0.4709    0.465     H
H        0.974   0.9709    0.035     H
C       0.9742   0.2205  0.22215     C
C       0.9742   0.7205  0.27785     C
H       0.9778   0.1575   0.6661     H
H       0.9778   0.6575   0.8339     H
C       0.9816   0.4491  0.03965     C
C       0.9816   0.9491  0.46035     C
N       0.9826   0.2421  0.67651     N
N       0.9826   0.7421  0.82349     N
N       0.9828   0.3255  0.67887     N
N       0.9828   0.8255  0.82113     N
N       0.9862   0.4508  0.42273     N
N       0.9862   0.9508  0.07727     N
N       0.9864   0.3874  0.94079     N
N       0.9864   0.8874  0.55921     N
C       0.9865   0.4241  0.98912     C
C       0.9865   0.9241  0.51088     C
H       0.9883   0.2915   0.2258     H
H       0.9883   0.7915   0.2742     H
C       0.9888   0.3482  0.89304     C
C       0.9888   0.8482  0.60696     C
C       0.9943    0.283  0.69074     C
C       0.9943    0.783  0.80926     C
C        0.995   0.3005  0.84948     C
C        0.995   0.8005  0.65052     C
