data_I
_chemical_name_common  '/home/zhangsd/repos/MofS-CGCNN/ML/data/SSD/clean_cifs/NIZZIG_clean'
_cell_length_a 14.02200
_cell_length_b 28.14000
_cell_length_c 44.48000
_cell_angle_alpha 90.00000
_cell_angle_beta  90.00000
_cell_angle_gamma 90.00000
_space_group_name_H-M_alt      'P 1'


loop_
_space_group_symop_operation_xyz
  'x, y, z' 

loop_
_atom_site_label
_atom_site_fract_x
_atom_site_fract_y
_atom_site_fract_z
_atom_site_type_symbol
C        0.002   0.3023   0.8494     C
C        0.002   0.8023   0.6506     C
H       0.0026   0.2904   0.2262     H
H       0.0026   0.7904   0.2738     H
C       0.0064   0.2841   0.6903     C
C       0.0064   0.7841   0.8097     C
N       0.0097   0.3867   0.9422     N
C       0.0097    0.424   0.9907     C
N       0.0097   0.8867   0.5578     N
C       0.0097    0.924   0.5093     C
C         0.01    0.347   0.8938     C
C         0.01    0.847   0.6062     C
C       0.0118   0.4553   0.0403     C
C       0.0118   0.9553   0.4597     C
N       0.0158   0.4476   0.4236     N
N       0.0158   0.9476   0.0764     N
N       0.0167   0.3273   0.6783     N
N       0.0167   0.8273   0.8217     N
N       0.0213   0.2433  0.67636     N
N       0.0213   0.7433  0.82364     N
H       0.0219   0.4666   0.4658     H
H       0.0219   0.9666   0.0342     H
C       0.0263   0.2631   0.2363     C
C       0.0263   0.7631   0.2637     C
C       0.0268   0.2193   0.2217     C
C       0.0268   0.7193   0.2783     C
H       0.0309   0.1589   0.6672     H
H       0.0309   0.6589   0.8328     H
H       0.0341   0.2861   0.8336     H
H       0.0341   0.7861   0.6664     H
H       0.0349   0.4145   0.6701     H
H       0.0349   0.9145   0.8299     H
H       0.0361   0.4242   0.3819     H
H       0.0361   0.9242   0.1181     H
C       0.0452   0.3263   0.6493     C
C       0.0452   0.8263   0.8507     C
H       0.0462   0.4701   0.0561     H
H       0.0462   0.9701   0.4439     H
C       0.0474   0.2465   0.6478     C
C       0.0474   0.7465   0.8522     C
C       0.0503   0.4145   0.6494     C
C       0.0503   0.9145   0.8506     C
C       0.0508   0.1589   0.6468     C
C       0.0508   0.6589   0.8532     C
H       0.0557    0.088   0.6427     H
H       0.0557    0.588   0.8573     H
H        0.056   0.2968   0.2751     H
H        0.056   0.7968   0.2249     H
C       0.0562   0.3255   0.8709     C
C       0.0562   0.8255   0.6291     C
I      0.05651  0.48634  0.88351     I
I      0.05651  0.98634  0.61649     I
C        0.057   0.4523   0.4499     C
C        0.057   0.9523   0.0501     C
C       0.0576   0.3727    0.634     C
C       0.0576   0.8727    0.866     C
C       0.0581   0.4446   0.0142     C
C       0.0581   0.9446   0.4858     C
H       0.0586   0.1501   0.2294     H
H       0.0586   0.6501   0.2706     H
C       0.0598   0.2669   0.2652     C
C       0.0598   0.7669   0.2348     C
C       0.0606   0.4093   0.9631     C
C       0.0606   0.9093   0.5369     C
C       0.0608    0.181   0.2379     C
C       0.0608    0.681   0.2621     C
H       0.0609   0.4862    0.645     H
H       0.0609   0.9862    0.855     H
N       0.0612   0.2873    0.633     N
N       0.0612   0.7873    0.867     N
C       0.0621   0.3719   0.9185     C
C       0.0621   0.8719   0.5815     C
C       0.0636   0.2011   0.6318     C
C       0.0636   0.7011   0.8682     C
C       0.0656   0.4277    0.401     C
C       0.0656   0.9277    0.099     C
C       0.0659   0.4572   0.6342     C
C       0.0659   0.9572   0.8658     C
C       0.0668   0.1169   0.6322     C
C       0.0668   0.6169   0.8678     C
C       0.0798   0.3754   0.6041     C
C       0.0798   0.8754   0.8959     C
N       0.0826   0.0548   0.5444     N
N       0.0826   0.5548   0.9556     N
H       0.0849    0.347   0.5926     H
H       0.0849    0.847   0.9074     H
N       0.0876   0.4588   0.6051     N
N       0.0876   0.9588   0.8949     N
C        0.088   0.0845   0.4938     C
C        0.088   0.5845   0.0062     C
C       0.0894   0.1561   0.3942     C
C       0.0894   0.6561   0.1058     C
N       0.0922   0.1985   0.3497     N
N       0.0922   0.6985   0.1503     N
C       0.0928      0.2   0.6018     C
C       0.0928      0.7   0.8982     C
C        0.095   0.4184   0.5903     C
C        0.095   0.9184   0.9097     C
N       0.0972   0.1145  0.60372     N
N       0.0972   0.6145  0.89628     N
N       0.0975   0.2301  0.27976     N
N       0.0975   0.7301  0.22024     N
C       0.0981   0.1874   0.2665     C
C       0.0981   0.6874   0.2335     C
H       0.1005   0.2284   0.5905     H
H       0.1005   0.7284   0.9095     H
C       0.1101   0.1554   0.5892     C
C       0.1101   0.6554   0.9108     C
H       0.1113   0.4191   0.5695     H
H       0.1113   0.9191   0.9305     H
Zn     0.11707  0.02323  0.91502    Zn
Zn     0.11707  0.52323  0.58498    Zn
H       0.1238   0.3263   0.8695     H
H       0.1238   0.8263   0.6305     H
H        0.124   0.1427   0.4105     H
H        0.124   0.6427   0.0895     H
H       0.1242   0.0974   0.4776     H
H       0.1242   0.4514   0.0122     H
H       0.1242   0.5974   0.0224     H
H       0.1242   0.9514   0.4878     H
H       0.1245    0.161   0.2769     H
H       0.1245    0.661   0.2231     H
C       0.1301   0.0738   0.5208     C
C       0.1301   0.5738   0.9792     C
H       0.1323   0.1541    0.569     H
H       0.1323   0.6541    0.931     H
C       0.1367   0.1778   0.3716     C
C       0.1367   0.6778   0.1284     C
Zn     0.14194  0.05027  0.58635    Zn
Zn     0.14194  0.55027  0.91365    Zn
C       0.1513   0.4372   0.4556     C
C       0.1513   0.9372   0.0444     C
N       0.1535   0.4207    0.961     N
N       0.1535   0.9207    0.539     N
N       0.1556   0.3786   0.9145     N
N       0.1556   0.8786   0.5855     N
C       0.1575   0.4124   0.4046     C
C       0.1575   0.9124   0.0954     C
I      0.15761   0.3259  0.33572     I
I      0.15761   0.8259  0.16428     I
I      0.16594  0.20196   0.8129     I
I      0.16594  0.70196   0.6871     I
Zn     0.16955  0.23924  0.31945    Zn
Zn     0.16955  0.73924  0.18055    Zn
I      0.17771  0.05735  0.08301     I
I      0.17771  0.55735  0.41699     I
H       0.1791   0.4403    0.475     H
H       0.1791   0.9403    0.025     H
H       0.1904   0.3983   0.3882     H
H       0.1904   0.8983   0.1118     H
I      0.19537  0.00601  0.96588     I
I      0.19537  0.50601  0.53412     I
C       0.1956   0.4044   0.9366     C
C       0.1956   0.9044   0.5634     C
I      0.19599  0.07478  0.87583     I
I      0.19599  0.57478  0.62417     I
H       0.1963   0.0801   0.5231     H
H       0.1963   0.5801   0.9769     H
C       0.2023   0.4173   0.4317     C
C       0.2023   0.9173   0.0683     C
H       0.2045   0.1779   0.3718     H
H       0.2045   0.6779   0.1282     H
H       0.2955   0.1779   0.8718     H
H       0.2955   0.6779   0.6282     H
C       0.2977   0.4173   0.9317     C
C       0.2977   0.9173   0.5683     C
H       0.3037   0.0801   0.0231     H
H       0.3037   0.5801   0.4769     H
I      0.30401  0.07478  0.37583     I
I      0.30401  0.57478  0.12417     I
C       0.3044   0.4044   0.4366     C
C       0.3044   0.9044   0.0634     C
I      0.30463  0.00601  0.46588     I
I      0.30463  0.50601  0.03412     I
H       0.3096   0.3983   0.8882     H
H       0.3096   0.8983   0.6118     H
H       0.3209   0.4403    0.975     H
H       0.3209   0.9403    0.525     H
I      0.32229  0.05735  0.58301     I
I      0.32229  0.55735  0.91699     I
Zn     0.33045  0.23924  0.81945    Zn
Zn     0.33045  0.73924  0.68055    Zn
I      0.33406  0.20196   0.3129     I
I      0.33406  0.70196   0.1871     I
I      0.34239   0.3259  0.83572     I
I      0.34239   0.8259  0.66428     I
C       0.3425   0.4124   0.9046     C
C       0.3425   0.9124   0.5954     C
N       0.3444   0.3786   0.4145     N
N       0.3444   0.8786   0.0855     N
N       0.3465   0.4207    0.461     N
N       0.3465   0.9207    0.039     N
C       0.3487   0.4372   0.9556     C
C       0.3487   0.9372   0.5444     C
Zn     0.35806  0.05027  0.08635    Zn
Zn     0.35806  0.55027  0.41365    Zn
C       0.3633   0.1778   0.8716     C
C       0.3633   0.6778   0.6284     C
H       0.3677   0.1541    0.069     H
H       0.3677   0.6541    0.431     H
C       0.3699   0.0738   0.0208     C
C       0.3699   0.5738   0.4792     C
H       0.3755    0.161   0.7769     H
H       0.3755    0.661   0.7231     H
H       0.3758   0.0974   0.9776     H
H       0.3758   0.4514   0.5122     H
H       0.3758   0.5974   0.5224     H
H       0.3758   0.9514   0.9878     H
H        0.376   0.1427   0.9105     H
H        0.376   0.6427   0.5895     H
H       0.3762   0.3263   0.3695     H
H       0.3762   0.8263   0.1305     H
Zn     0.38293  0.02323  0.41502    Zn
Zn     0.38293  0.52323  0.08498    Zn
H       0.3887   0.4191   0.0695     H
H       0.3887   0.9191   0.4305     H
C       0.3899   0.1554   0.0892     C
C       0.3899   0.6554   0.4108     C
H       0.3995   0.2284   0.0905     H
H       0.3995   0.7284   0.4095     H
C       0.4019   0.1874   0.7665     C
C       0.4019   0.6874   0.7335     C
N       0.4025   0.2301  0.77976     N
N       0.4025   0.7301  0.72024     N
N       0.4028   0.1145  0.10372     N
N       0.4028   0.6145  0.39628     N
C        0.405   0.4184   0.0903     C
C        0.405   0.9184   0.4097     C
C       0.4072      0.2   0.1018     C
C       0.4072      0.7   0.3982     C
N       0.4078   0.1985   0.8497     N
N       0.4078   0.6985   0.6503     N
C       0.4106   0.1561   0.8942     C
C       0.4106   0.6561   0.6058     C
C        0.412   0.0845   0.9938     C
C        0.412   0.5845   0.5062     C
N       0.4124   0.4588   0.1051     N
N       0.4124   0.9588   0.3949     N
H       0.4151    0.347   0.0926     H
H       0.4151    0.847   0.4074     H
N       0.4174   0.0548   0.0444     N
N       0.4174   0.5548   0.4556     N
C       0.4202   0.3754   0.1041     C
C       0.4202   0.8754   0.3959     C
C       0.4332   0.1169   0.1322     C
C       0.4332   0.6169   0.3678     C
C       0.4341   0.4572   0.1342     C
C       0.4341   0.9572   0.3658     C
C       0.4344   0.4277    0.901     C
C       0.4344   0.9277    0.599     C
C       0.4364   0.2011   0.1318     C
C       0.4364   0.7011   0.3682     C
C       0.4379   0.3719   0.4185     C
C       0.4379   0.8719   0.0815     C
N       0.4388   0.2873    0.133     N
N       0.4388   0.7873    0.367     N
H       0.4391   0.4862    0.145     H
H       0.4391   0.9862    0.355     H
C       0.4392    0.181   0.7379     C
C       0.4392    0.681   0.7621     C
C       0.4394   0.4093   0.4631     C
C       0.4394   0.9093   0.0369     C
C       0.4402   0.2669   0.7652     C
C       0.4402   0.7669   0.7348     C
H       0.4414   0.1501   0.7294     H
H       0.4414   0.6501   0.7706     H
C       0.4419   0.4446   0.5142     C
C       0.4419   0.9446   0.9858     C
C       0.4424   0.3727    0.134     C
C       0.4424   0.8727    0.366     C
C        0.443   0.4523   0.9499     C
C        0.443   0.9523   0.5501     C
I      0.44349  0.48634  0.38351     I
I      0.44349  0.98634  0.11649     I
C       0.4438   0.3255   0.3709     C
C       0.4438   0.8255   0.1291     C
H        0.444   0.2968   0.7751     H
H        0.444   0.7968   0.7249     H
H       0.4443    0.088   0.1427     H
H       0.4443    0.588   0.3573     H
C       0.4492   0.1589   0.1468     C
C       0.4492   0.6589   0.3532     C
C       0.4497   0.4145   0.1494     C
C       0.4497   0.9145   0.3506     C
C       0.4526   0.2465   0.1478     C
C       0.4526   0.7465   0.3522     C
H       0.4538   0.4701   0.5561     H
H       0.4538   0.9701   0.9439     H
C       0.4548   0.3263   0.1493     C
C       0.4548   0.8263   0.3507     C
H       0.4639   0.4242   0.8819     H
H       0.4639   0.9242   0.6181     H
H       0.4651   0.4145   0.1701     H
H       0.4651   0.9145   0.3299     H
H       0.4659   0.2861   0.3336     H
H       0.4659   0.7861   0.1664     H
H       0.4691   0.1589   0.1672     H
H       0.4691   0.6589   0.3328     H
C       0.4732   0.2193   0.7217     C
C       0.4732   0.7193   0.7783     C
C       0.4737   0.2631   0.7363     C
C       0.4737   0.7631   0.7637     C
H       0.4781   0.4666   0.9658     H
H       0.4781   0.9666   0.5342     H
N       0.4787   0.2433  0.17636     N
N       0.4787   0.7433  0.32364     N
N       0.4833   0.3273   0.1783     N
N       0.4833   0.8273   0.3217     N
N       0.4842   0.4476   0.9236     N
N       0.4842   0.9476   0.5764     N
C       0.4882   0.4553   0.5403     C
C       0.4882   0.9553   0.9597     C
C         0.49    0.347   0.3938     C
C         0.49    0.847   0.1062     C
N       0.4903   0.3867   0.4422     N
C       0.4903    0.424   0.4907     C
N       0.4903   0.8867   0.0578     N
C       0.4903    0.924   0.0093     C
C       0.4936   0.2841   0.1903     C
C       0.4936   0.7841   0.3097     C
H       0.4974   0.2904   0.7262     H
H       0.4974   0.7904   0.7738     H
C        0.498   0.3023   0.3494     C
C        0.498   0.8023   0.1506     C
C        0.502   0.1977   0.8494     C
C        0.502   0.6977   0.6506     C
H       0.5026   0.2096   0.2262     H
H       0.5026   0.7096   0.2738     H
C       0.5064   0.2159   0.6903     C
C       0.5064   0.7159   0.8097     C
C       0.5097    0.076   0.9907     C
N       0.5097   0.1133   0.9422     N
C       0.5097    0.576   0.5093     C
N       0.5097   0.6133   0.5578     N
C         0.51    0.153   0.8938     C
C         0.51    0.653   0.6062     C
C       0.5118   0.0447   0.0403     C
C       0.5118   0.5447   0.4597     C
N       0.5158   0.0524   0.4236     N
N       0.5158   0.5524   0.0764     N
N       0.5167   0.1727   0.6783     N
N       0.5167   0.6727   0.8217     N
N       0.5213   0.2567  0.67636     N
N       0.5213   0.7567  0.82364     N
H       0.5219   0.0334   0.4658     H
H       0.5219   0.5334   0.0342     H
C       0.5263   0.2369   0.2363     C
C       0.5263   0.7369   0.2637     C
C       0.5268   0.2807   0.2217     C
C       0.5268   0.7807   0.2783     C
H       0.5309   0.3411   0.6672     H
H       0.5309   0.8411   0.8328     H
H       0.5341   0.2139   0.8336     H
H       0.5341   0.7139   0.6664     H
H       0.5349   0.0855   0.6701     H
H       0.5349   0.5855   0.8299     H
H       0.5361   0.0758   0.3819     H
H       0.5361   0.5758   0.1181     H
C       0.5452   0.1737   0.6493     C
C       0.5452   0.6737   0.8507     C
H       0.5462   0.0299   0.0561     H
H       0.5462   0.5299   0.4439     H
C       0.5474   0.2535   0.6478     C
C       0.5474   0.7535   0.8522     C
C       0.5503   0.0855   0.6494     C
C       0.5503   0.5855   0.8506     C
C       0.5508   0.3411   0.6468     C
C       0.5508   0.8411   0.8532     C
H       0.5557    0.412   0.6427     H
H       0.5557    0.912   0.8573     H
H        0.556   0.2032   0.2751     H
H        0.556   0.7032   0.2249     H
C       0.5562   0.1745   0.8709     C
C       0.5562   0.6745   0.6291     C
I      0.55651  0.01366  0.88351     I
I      0.55651  0.51366  0.61649     I
C        0.557   0.0477   0.4499     C
C        0.557   0.5477   0.0501     C
C       0.5576   0.1273    0.634     C
C       0.5576   0.6273    0.866     C
C       0.5581   0.0554   0.0142     C
C       0.5581   0.5554   0.4858     C
H       0.5586   0.3499   0.2294     H
H       0.5586   0.8499   0.2706     H
C       0.5598   0.2331   0.2652     C
C       0.5598   0.7331   0.2348     C
C       0.5606   0.0907   0.9631     C
C       0.5606   0.5907   0.5369     C
C       0.5608    0.319   0.2379     C
C       0.5608    0.819   0.2621     C
H       0.5609   0.0138    0.645     H
H       0.5609   0.5138    0.855     H
N       0.5612   0.2127    0.633     N
N       0.5612   0.7127    0.867     N
C       0.5621   0.1281   0.9185     C
C       0.5621   0.6281   0.5815     C
C       0.5636   0.2989   0.6318     C
C       0.5636   0.7989   0.8682     C
C       0.5656   0.0723    0.401     C
C       0.5656   0.5723    0.099     C
C       0.5659   0.0428   0.6342     C
C       0.5659   0.5428   0.8658     C
C       0.5668   0.3831   0.6322     C
C       0.5668   0.8831   0.8678     C
C       0.5798   0.1246   0.6041     C
C       0.5798   0.6246   0.8959     C
N       0.5826   0.4452   0.5444     N
N       0.5826   0.9452   0.9556     N
H       0.5849    0.153   0.5926     H
H       0.5849    0.653   0.9074     H
N       0.5876   0.0412   0.6051     N
N       0.5876   0.5412   0.8949     N
C        0.588   0.4155   0.4938     C
C        0.588   0.9155   0.0062     C
C       0.5894   0.3439   0.3942     C
C       0.5894   0.8439   0.1058     C
N       0.5922   0.3015   0.3497     N
N       0.5922   0.8015   0.1503     N
C       0.5928      0.3   0.6018     C
C       0.5928      0.8   0.8982     C
C        0.595   0.0816   0.5903     C
C        0.595   0.5816   0.9097     C
N       0.5972   0.3855  0.60372     N
N       0.5972   0.8855  0.89628     N
N       0.5975   0.2699  0.27976     N
N       0.5975   0.7699  0.22024     N
C       0.5981   0.3126   0.2665     C
C       0.5981   0.8126   0.2335     C
H       0.6005   0.2716   0.5905     H
H       0.6005   0.7716   0.9095     H
C       0.6101   0.3446   0.5892     C
C       0.6101   0.8446   0.9108     C
H       0.6113   0.0809   0.5695     H
H       0.6113   0.5809   0.9305     H
Zn     0.61707  0.47677  0.91502    Zn
Zn     0.61707  0.97677  0.58498    Zn
H       0.6238   0.1737   0.8695     H
H       0.6238   0.6737   0.6305     H
H        0.624   0.3573   0.4105     H
H        0.624   0.8573   0.0895     H
H       0.6242   0.0486   0.0122     H
H       0.6242   0.4026   0.4776     H
H       0.6242   0.5486   0.4878     H
H       0.6242   0.9026   0.0224     H
H       0.6245    0.339   0.2769     H
H       0.6245    0.839   0.2231     H
C       0.6301   0.4262   0.5208     C
C       0.6301   0.9262   0.9792     C
H       0.6323   0.3459    0.569     H
H       0.6323   0.8459    0.931     H
C       0.6367   0.3222   0.3716     C
C       0.6367   0.8222   0.1284     C
Zn     0.64194  0.44973  0.58635    Zn
Zn     0.64194  0.94973  0.91365    Zn
C       0.6513   0.0628   0.4556     C
C       0.6513   0.5628   0.0444     C
N       0.6535   0.0793    0.961     N
N       0.6535   0.5793    0.539     N
N       0.6556   0.1214   0.9145     N
N       0.6556   0.6214   0.5855     N
C       0.6575   0.0876   0.4046     C
C       0.6575   0.5876   0.0954     C
I      0.65761   0.1741  0.33572     I
I      0.65761   0.6741  0.16428     I
I      0.66594  0.29804   0.8129     I
I      0.66594  0.79804   0.6871     I
Zn     0.66955  0.26076  0.31945    Zn
Zn     0.66955  0.76076  0.18055    Zn
I      0.67771  0.44265  0.08301     I
I      0.67771  0.94265  0.41699     I
H       0.6791   0.0597    0.475     H
H       0.6791   0.5597    0.025     H
H       0.6904   0.1017   0.3882     H
H       0.6904   0.6017   0.1118     H
I      0.69537  0.49399  0.96588     I
I      0.69537  0.99399  0.53412     I
C       0.6956   0.0956   0.9366     C
C       0.6956   0.5956   0.5634     C
I      0.69599  0.42522  0.87583     I
I      0.69599  0.92522  0.62417     I
H       0.6963   0.4199   0.5231     H
H       0.6963   0.9199   0.9769     H
C       0.7023   0.0827   0.4317     C
C       0.7023   0.5827   0.0683     C
H       0.7045   0.3221   0.3718     H
H       0.7045   0.8221   0.1282     H
H       0.7955   0.3221   0.8718     H
H       0.7955   0.8221   0.6282     H
C       0.7977   0.0827   0.9317     C
C       0.7977   0.5827   0.5683     C
H       0.8037   0.4199   0.0231     H
H       0.8037   0.9199   0.4769     H
I      0.80401  0.42522  0.37583     I
I      0.80401  0.92522  0.12417     I
C       0.8044   0.0956   0.4366     C
C       0.8044   0.5956   0.0634     C
I      0.80463  0.49399  0.46588     I
I      0.80463  0.99399  0.03412     I
H       0.8096   0.1017   0.8882     H
H       0.8096   0.6017   0.6118     H
H       0.8209   0.0597    0.975     H
H       0.8209   0.5597    0.525     H
I      0.82229  0.44265  0.58301     I
I      0.82229  0.94265  0.91699     I
Zn     0.83045  0.26076  0.81945    Zn
Zn     0.83045  0.76076  0.68055    Zn
I      0.83406  0.29804   0.3129     I
I      0.83406  0.79804   0.1871     I
I      0.84239   0.1741  0.83572     I
I      0.84239   0.6741  0.66428     I
C       0.8425   0.0876   0.9046     C
C       0.8425   0.5876   0.5954     C
N       0.8444   0.1214   0.4145     N
N       0.8444   0.6214   0.0855     N
N       0.8465   0.0793    0.461     N
N       0.8465   0.5793    0.039     N
C       0.8487   0.0628   0.9556     C
C       0.8487   0.5628   0.5444     C
Zn     0.85806  0.44973  0.08635    Zn
Zn     0.85806  0.94973  0.41365    Zn
C       0.8633   0.3222   0.8716     C
C       0.8633   0.8222   0.6284     C
H       0.8677   0.3459    0.069     H
H       0.8677   0.8459    0.431     H
C       0.8699   0.4262   0.0208     C
C       0.8699   0.9262   0.4792     C
H       0.8755    0.339   0.7769     H
H       0.8755    0.839   0.7231     H
H       0.8758   0.0486   0.5122     H
H       0.8758   0.4026   0.9776     H
H       0.8758   0.5486   0.9878     H
H       0.8758   0.9026   0.5224     H
H        0.876   0.3573   0.9105     H
H        0.876   0.8573   0.5895     H
H       0.8762   0.1737   0.3695     H
H       0.8762   0.6737   0.1305     H
Zn     0.88293  0.47677  0.41502    Zn
Zn     0.88293  0.97677  0.08498    Zn
H       0.8887   0.0809   0.0695     H
H       0.8887   0.5809   0.4305     H
C       0.8899   0.3446   0.0892     C
C       0.8899   0.8446   0.4108     C
H       0.8995   0.2716   0.0905     H
H       0.8995   0.7716   0.4095     H
C       0.9019   0.3126   0.7665     C
C       0.9019   0.8126   0.7335     C
N       0.9025   0.2699  0.77976     N
N       0.9025   0.7699  0.72024     N
N       0.9028   0.3855  0.10372     N
N       0.9028   0.8855  0.39628     N
C        0.905   0.0816   0.0903     C
C        0.905   0.5816   0.4097     C
C       0.9072      0.3   0.1018     C
C       0.9072      0.8   0.3982     C
N       0.9078   0.3015   0.8497     N
N       0.9078   0.8015   0.6503     N
C       0.9106   0.3439   0.8942     C
C       0.9106   0.8439   0.6058     C
C        0.912   0.4155   0.9938     C
C        0.912   0.9155   0.5062     C
N       0.9124   0.0412   0.1051     N
N       0.9124   0.5412   0.3949     N
H       0.9151    0.153   0.0926     H
H       0.9151    0.653   0.4074     H
N       0.9174   0.4452   0.0444     N
N       0.9174   0.9452   0.4556     N
C       0.9202   0.1246   0.1041     C
C       0.9202   0.6246   0.3959     C
C       0.9332   0.3831   0.1322     C
C       0.9332   0.8831   0.3678     C
C       0.9341   0.0428   0.1342     C
C       0.9341   0.5428   0.3658     C
C       0.9344   0.0723    0.901     C
C       0.9344   0.5723    0.599     C
C       0.9364   0.2989   0.1318     C
C       0.9364   0.7989   0.3682     C
C       0.9379   0.1281   0.4185     C
C       0.9379   0.6281   0.0815     C
N       0.9388   0.2127    0.133     N
N       0.9388   0.7127    0.367     N
H       0.9391   0.0138    0.145     H
H       0.9391   0.5138    0.355     H
C       0.9392    0.319   0.7379     C
C       0.9392    0.819   0.7621     C
C       0.9394   0.0907   0.4631     C
C       0.9394   0.5907   0.0369     C
C       0.9402   0.2331   0.7652     C
C       0.9402   0.7331   0.7348     C
H       0.9414   0.3499   0.7294     H
H       0.9414   0.8499   0.7706     H
C       0.9419   0.0554   0.5142     C
C       0.9419   0.5554   0.9858     C
C       0.9424   0.1273    0.134     C
C       0.9424   0.6273    0.366     C
C        0.943   0.0477   0.9499     C
C        0.943   0.5477   0.5501     C
I      0.94349  0.01366  0.38351     I
I      0.94349  0.51366  0.11649     I
C       0.9438   0.1745   0.3709     C
C       0.9438   0.6745   0.1291     C
H        0.944   0.2032   0.7751     H
H        0.944   0.7032   0.7249     H
H       0.9443    0.412   0.1427     H
H       0.9443    0.912   0.3573     H
C       0.9492   0.3411   0.1468     C
C       0.9492   0.8411   0.3532     C
C       0.9497   0.0855   0.1494     C
C       0.9497   0.5855   0.3506     C
C       0.9526   0.2535   0.1478     C
C       0.9526   0.7535   0.3522     C
H       0.9538   0.0299   0.5561     H
H       0.9538   0.5299   0.9439     H
C       0.9548   0.1737   0.1493     C
C       0.9548   0.6737   0.3507     C
H       0.9639   0.0758   0.8819     H
H       0.9639   0.5758   0.6181     H
H       0.9651   0.0855   0.1701     H
H       0.9651   0.5855   0.3299     H
H       0.9659   0.2139   0.3336     H
H       0.9659   0.7139   0.1664     H
H       0.9691   0.3411   0.1672     H
H       0.9691   0.8411   0.3328     H
C       0.9732   0.2807   0.7217     C
C       0.9732   0.7807   0.7783     C
C       0.9737   0.2369   0.7363     C
C       0.9737   0.7369   0.7637     C
H       0.9781   0.0334   0.9658     H
H       0.9781   0.5334   0.5342     H
N       0.9787   0.2567  0.17636     N
N       0.9787   0.7567  0.32364     N
N       0.9833   0.1727   0.1783     N
N       0.9833   0.6727   0.3217     N
N       0.9842   0.0524   0.9236     N
N       0.9842   0.5524   0.5764     N
C       0.9882   0.0447   0.5403     C
C       0.9882   0.5447   0.9597     C
C         0.99    0.153   0.3938     C
C         0.99    0.653   0.1062     C
C       0.9903    0.076   0.4907     C
N       0.9903   0.1133   0.4422     N
C       0.9903    0.576   0.0093     C
N       0.9903   0.6133   0.0578     N
C       0.9936   0.2159   0.1903     C
C       0.9936   0.7159   0.3097     C
H       0.9974   0.2096   0.7262     H
H       0.9974   0.7096   0.7738     H
C        0.998   0.1977   0.3494     C
C        0.998   0.6977   0.1506     C
