data_I
_chemical_name_common  '/home/zhangsd/repos/MofS-CGCNN/ML/data/SSD/clean_cifs/NIZZAY_clean'
_cell_length_a 13.83900
_cell_length_b 27.91000
_cell_length_c 44.93000
_cell_angle_alpha 90.00000
_cell_angle_beta  90.00000
_cell_angle_gamma 90.00000
_space_group_name_H-M_alt      'P 1'


loop_
_space_group_symop_operation_xyz
  'x, y, z' 

loop_
_atom_site_label
_atom_site_fract_x
_atom_site_fract_y
_atom_site_fract_z
_atom_site_type_symbol
N       0.0064   0.4475  0.42214     N
N       0.0064   0.9475  0.07786     N
H       0.0078   0.2045   0.7247     H
H       0.0078   0.7045   0.7753     H
C       0.0123   0.2235  0.22099     C
C       0.0123   0.7235  0.27901     C
C       0.0126    0.294    0.848     C
C       0.0126    0.794    0.652     C
C       0.0127   0.4505   0.0363     C
C       0.0127   0.9505   0.4637     C
C       0.0144   0.4183  0.98725     C
C       0.0144   0.9183  0.51275     C
C       0.0146   0.2678  0.23485     C
C       0.0146   0.7678  0.26515     C
H       0.0154   0.4653   0.4647     H
H       0.0154   0.9653   0.0353     H
C        0.018   0.3392  0.89294     C
C        0.018   0.8392  0.60706     C
N       0.0185   0.3787  0.94024     N
N       0.0185   0.8787  0.55976     N
C       0.0191   0.2804  0.68999     C
C       0.0191   0.7804  0.81001     C
H        0.024   0.4221   0.3814     H
H        0.024   0.9221   0.1186     H
N       0.0302   0.3244  0.67825     N
N       0.0302   0.8244  0.82175     N
N       0.0311   0.2403  0.67563     N
N       0.0311   0.7403  0.82437     N
H       0.0368   0.1548   0.6641     H
H       0.0368   0.6548   0.8359     H
H       0.0419   0.1528   0.2286     H
H       0.0419   0.6528   0.2714     H
C       0.0442    0.184   0.2371     C
C       0.0442    0.684   0.2629     C
H       0.0461   0.2776   0.8326     H
H       0.0461   0.7776   0.6674     H
H       0.0465   0.4655   0.0522     H
H       0.0465   0.9655   0.4478     H
H        0.049   0.3017    0.273     H
H        0.049   0.8017    0.227     H
C       0.0494   0.2714  0.26336     C
C       0.0494   0.7714  0.23664     C
C       0.0495   0.4507   0.4487     C
C       0.0495   0.9507   0.0513     C
C       0.0539   0.3242   0.6498     C
C       0.0539   0.8242   0.8502     C
C        0.055    0.426   0.4001     C
C        0.055    0.926   0.0999     C
C       0.0555   0.2446  0.64685     C
C       0.0555   0.7446  0.85315     C
H       0.0575   0.4124   0.6719     H
H       0.0575   0.9124   0.8281     H
C       0.0576   0.1562  0.64394     C
C       0.0576   0.6562  0.85606     C
I      0.06036  0.48636  0.89149     I
I      0.06036  0.98636  0.60851     I
C        0.062   0.4386    0.011     C
C        0.062   0.9386    0.489     C
C       0.0653   0.3724  0.63491     C
C       0.0653   0.8724  0.86509     C
C        0.066   0.3177   0.8699     C
C        0.066   0.8177   0.6301     C
C       0.0661   0.4131    0.651     C
C       0.0661   0.9131    0.849     C
N       0.0663    0.286  0.63283     N
N       0.0663    0.786  0.86717     N
C       0.0687   0.4027  0.96064     C
C       0.0687   0.9027  0.53936     C
H       0.0688   0.0851   0.6379     H
H       0.0688   0.5851   0.8621     H
C         0.07   0.1995   0.6299     C
C         0.07   0.6995   0.8701     C
C       0.0706   0.3646  0.91661     C
C       0.0706   0.8646  0.58339     C
C        0.076    0.115  0.62811     C
C        0.076    0.615  0.87189     C
H       0.0765   0.3461   0.5927     H
H       0.0765   0.8461   0.9073     H
C        0.077   0.3744   0.6044     C
C        0.077   0.8744   0.8956     C
C       0.0794   0.1907   0.2656     C
H       0.0794   0.4848   0.6475     H
C       0.0794   0.6907   0.2344     C
H       0.0794   0.9848   0.8525     H
C       0.0797    0.456   0.6362     C
C       0.0797    0.956   0.8638     C
C       0.0808   0.1618   0.3924     C
C       0.0808   0.6618   0.1076     C
C       0.0823   0.0872   0.4895     C
C       0.0823   0.5872   0.0105     C
N       0.0831   0.0585  0.53935     N
N       0.0831   0.5585  0.96065     N
N       0.0833   0.2062  0.34783     N
N       0.0833   0.7062  0.15217     N
N        0.084   0.2333  0.27795     N
N        0.084   0.7333  0.22205     N
C       0.0894   0.4183   0.5915     C
C       0.0894   0.9183   0.9085     C
N       0.0932   0.4592  0.60664     N
N       0.0932   0.9592  0.89336     N
H       0.0956   0.4197   0.5705     H
H       0.0956   0.9197   0.9295     H
C       0.0973   0.1998  0.60028     C
C       0.0973   0.6998  0.89972     C
H       0.1007   0.1636   0.2767     H
H       0.1007   0.6636   0.2233     H
N       0.1037    0.115   0.5993     N
N       0.1037    0.615   0.9007     N
H       0.1054   0.2292   0.5899     H
H       0.1054   0.7292   0.9101     H
C       0.1125   0.1567    0.586     C
C       0.1125   0.6567    0.914     C
H        0.116   0.1468    0.408     H
H        0.116   0.6468    0.092     H
H       0.1181   0.0997   0.4733     H
H       0.1181   0.5997   0.0267     H
Zn      0.1258  0.02243  0.91411    Zn
Zn      0.1258  0.52243  0.58589    Zn
C       0.1295    0.184     0.37     C
H       0.1295   0.4443   0.0097     H
C       0.1295    0.684     0.13     C
H       0.1295   0.9443   0.4903     H
C       0.1298   0.0746   0.5159     C
C       0.1298   0.5746   0.9841     C
H       0.1302   0.1572   0.5656     H
H       0.1302   0.6572   0.9344     H
H       0.1345   0.3189   0.8689     H
H       0.1345   0.8189   0.6311     H
C       0.1425   0.4336   0.4539     C
C       0.1425   0.9336   0.0461     C
Zn     0.14668  0.05181  0.58001    Zn
Zn     0.14668  0.55181  0.91999    Zn
C       0.1482   0.4093   0.4034     C
C       0.1482   0.9093   0.0966     C
N       0.1617   0.4141  0.95916     N
N       0.1617   0.9141  0.54084     N
Zn     0.16202  0.24182   0.3166    Zn
Zn     0.16202  0.74182   0.1834    Zn
N       0.1644   0.3724  0.91286     N
N       0.1644   0.8724  0.58714     N
H       0.1708    0.436   0.4731     H
H       0.1708    0.936   0.0269     H
I      0.17109  0.33049  0.32937     I
I      0.17109  0.83049  0.17063     I
I      0.17228  0.05994  0.07336     I
I      0.17228  0.55994  0.42664     I
I      0.17967  0.19613  0.81044     I
I      0.17967  0.69613  0.68956     I
H       0.1814   0.3953   0.3871     H
H       0.1814   0.8953   0.1129     H
C       0.1925   0.4133   0.4308     C
C       0.1925   0.9133   0.0692     C
H       0.1981   0.0777   0.5169     H
H       0.1981   0.5777   0.9831     H
H       0.1982   0.1837   0.3702     H
H       0.1982   0.6837   0.1298     H
I      0.20093  0.00269  0.96449     I
I      0.20093  0.50269  0.53551     I
C       0.2057   0.3987  0.93499     C
C       0.2057   0.8987  0.56501     C
I      0.20976  0.07504  0.87643     I
I      0.20976  0.57504  0.62357     I
I      0.29024  0.07504  0.37643     I
I      0.29024  0.57504  0.12357     I
C       0.2943   0.3987  0.43499     C
C       0.2943   0.8987  0.06501     C
I      0.29907  0.00269  0.46449     I
I      0.29907  0.50269  0.03551     I
H       0.3018   0.1837   0.8702     H
H       0.3018   0.6837   0.6298     H
H       0.3019   0.0777   0.0169     H
H       0.3019   0.5777   0.4831     H
C       0.3075   0.4133   0.9308     C
C       0.3075   0.9133   0.5692     C
H       0.3186   0.3953   0.8871     H
H       0.3186   0.8953   0.6129     H
I      0.32033  0.19613  0.31044     I
I      0.32033  0.69613  0.18956     I
I      0.32772  0.05994  0.57336     I
I      0.32772  0.55994  0.92664     I
I      0.32891  0.33049  0.82937     I
I      0.32891  0.83049  0.67063     I
H       0.3292    0.436   0.9731     H
H       0.3292    0.936   0.5269     H
N       0.3356   0.3724  0.41286     N
N       0.3356   0.8724  0.08714     N
Zn     0.33798  0.24182   0.8166    Zn
Zn     0.33798  0.74182   0.6834    Zn
N       0.3383   0.4141  0.45916     N
N       0.3383   0.9141  0.04084     N
C       0.3518   0.4093   0.9034     C
C       0.3518   0.9093   0.5966     C
Zn     0.35332  0.05181  0.08001    Zn
Zn     0.35332  0.55181  0.41999    Zn
C       0.3575   0.4336   0.9539     C
C       0.3575   0.9336   0.5461     C
H       0.3655   0.3189   0.3689     H
H       0.3655   0.8189   0.1311     H
H       0.3698   0.1572   0.0656     H
H       0.3698   0.6572   0.4344     H
C       0.3702   0.0746   0.0159     C
C       0.3702   0.5746   0.4841     C
C       0.3705    0.184     0.87     C
H       0.3705   0.4443   0.5097     H
C       0.3705    0.684     0.63     C
H       0.3705   0.9443   0.9903     H
Zn      0.3742  0.02243  0.41411    Zn
Zn      0.3742  0.52243  0.08589    Zn
H       0.3819   0.0997   0.9733     H
H       0.3819   0.5997   0.5267     H
H        0.384   0.1468    0.908     H
H        0.384   0.6468    0.592     H
C       0.3875   0.1567    0.086     C
C       0.3875   0.6567    0.414     C
H       0.3946   0.2292   0.0899     H
H       0.3946   0.7292   0.4101     H
N       0.3963    0.115   0.0993     N
N       0.3963    0.615   0.4007     N
H       0.3993   0.1636   0.7767     H
H       0.3993   0.6636   0.7233     H
C       0.4027   0.1998  0.10028     C
C       0.4027   0.6998  0.39972     C
H       0.4044   0.4197   0.0705     H
H       0.4044   0.9197   0.4295     H
N       0.4068   0.4592  0.10664     N
N       0.4068   0.9592  0.39336     N
C       0.4106   0.4183   0.0915     C
C       0.4106   0.9183   0.4085     C
N        0.416   0.2333  0.77795     N
N        0.416   0.7333  0.72205     N
N       0.4167   0.2062  0.84783     N
N       0.4167   0.7062  0.65217     N
N       0.4169   0.0585  0.03935     N
N       0.4169   0.5585  0.46065     N
C       0.4177   0.0872   0.9895     C
C       0.4177   0.5872   0.5105     C
C       0.4192   0.1618   0.8924     C
C       0.4192   0.6618   0.6076     C
C       0.4203    0.456   0.1362     C
C       0.4203    0.956   0.3638     C
C       0.4206   0.1907   0.7656     C
H       0.4206   0.4848   0.1475     H
C       0.4206   0.6907   0.7344     C
H       0.4206   0.9848   0.3525     H
C        0.423   0.3744   0.1044     C
C        0.423   0.8744   0.3956     C
H       0.4235   0.3461   0.0927     H
H       0.4235   0.8461   0.4073     H
C        0.424    0.115  0.12811     C
C        0.424    0.615  0.37189     C
C       0.4294   0.3646  0.41661     C
C       0.4294   0.8646  0.08339     C
C         0.43   0.1995   0.1299     C
C         0.43   0.6995   0.3701     C
H       0.4312   0.0851   0.1379     H
H       0.4312   0.5851   0.3621     H
C       0.4313   0.4027  0.46064     C
C       0.4313   0.9027  0.03936     C
N       0.4337    0.286  0.13283     N
N       0.4337    0.786  0.36717     N
C       0.4339   0.4131    0.151     C
C       0.4339   0.9131    0.349     C
C        0.434   0.3177   0.3699     C
C        0.434   0.8177   0.1301     C
C       0.4347   0.3724  0.13491     C
C       0.4347   0.8724  0.36509     C
C        0.438   0.4386    0.511     C
C        0.438   0.9386    0.989     C
I      0.43964  0.48636  0.39149     I
I      0.43964  0.98636  0.10851     I
C       0.4424   0.1562  0.14394     C
C       0.4424   0.6562  0.35606     C
H       0.4425   0.4124   0.1719     H
H       0.4425   0.9124   0.3281     H
C       0.4445   0.2446  0.14685     C
C       0.4445   0.7446  0.35315     C
C        0.445    0.426   0.9001     C
C        0.445    0.926   0.5999     C
C       0.4461   0.3242   0.1498     C
C       0.4461   0.8242   0.3502     C
C       0.4505   0.4507   0.9487     C
C       0.4505   0.9507   0.5513     C
C       0.4506   0.2714  0.76336     C
C       0.4506   0.7714  0.73664     C
H        0.451   0.3017    0.773     H
H        0.451   0.8017    0.727     H
H       0.4535   0.4655   0.5522     H
H       0.4535   0.9655   0.9478     H
H       0.4539   0.2776   0.3326     H
H       0.4539   0.7776   0.1674     H
C       0.4558    0.184   0.7371     C
C       0.4558    0.684   0.7629     C
H       0.4581   0.1528   0.7286     H
H       0.4581   0.6528   0.7714     H
H       0.4632   0.1548   0.1641     H
H       0.4632   0.6548   0.3359     H
N       0.4689   0.2403  0.17563     N
N       0.4689   0.7403  0.32437     N
N       0.4698   0.3244  0.17825     N
N       0.4698   0.8244  0.32175     N
H        0.476   0.4221   0.8814     H
H        0.476   0.9221   0.6186     H
C       0.4809   0.2804  0.18999     C
C       0.4809   0.7804  0.31001     C
N       0.4815   0.3787  0.44024     N
N       0.4815   0.8787  0.05976     N
C        0.482   0.3392  0.39294     C
C        0.482   0.8392  0.10706     C
H       0.4846   0.4653   0.9647     H
H       0.4846   0.9653   0.5353     H
C       0.4854   0.2678  0.73485     C
C       0.4854   0.7678  0.76515     C
C       0.4856   0.4183  0.48725     C
C       0.4856   0.9183  0.01275     C
C       0.4873   0.4505   0.5363     C
C       0.4873   0.9505   0.9637     C
C       0.4874    0.294    0.348     C
C       0.4874    0.794    0.152     C
C       0.4877   0.2235  0.72099     C
C       0.4877   0.7235  0.77901     C
H       0.4922   0.2045   0.2247     H
H       0.4922   0.7045   0.2753     H
N       0.4936   0.4475  0.92214     N
N       0.4936   0.9475  0.57786     N
N       0.5064   0.0525  0.42214     N
N       0.5064   0.5525  0.07786     N
H       0.5078   0.2955   0.7247     H
H       0.5078   0.7955   0.7753     H
C       0.5123   0.2765  0.22099     C
C       0.5123   0.7765  0.27901     C
C       0.5126    0.206    0.848     C
C       0.5126    0.706    0.652     C
C       0.5127   0.0495   0.0363     C
C       0.5127   0.5495   0.4637     C
C       0.5144   0.0817  0.98725     C
C       0.5144   0.5817  0.51275     C
C       0.5146   0.2322  0.23485     C
C       0.5146   0.7322  0.26515     C
H       0.5154   0.0347   0.4647     H
H       0.5154   0.5347   0.0353     H
C        0.518   0.1608  0.89294     C
C        0.518   0.6608  0.60706     C
N       0.5185   0.1213  0.94024     N
N       0.5185   0.6213  0.55976     N
C       0.5191   0.2196  0.68999     C
C       0.5191   0.7196  0.81001     C
H        0.524   0.0779   0.3814     H
H        0.524   0.5779   0.1186     H
N       0.5302   0.1756  0.67825     N
N       0.5302   0.6756  0.82175     N
N       0.5311   0.2597  0.67563     N
N       0.5311   0.7597  0.82437     N
H       0.5368   0.3452   0.6641     H
H       0.5368   0.8452   0.8359     H
H       0.5419   0.3472   0.2286     H
H       0.5419   0.8472   0.2714     H
C       0.5442    0.316   0.2371     C
C       0.5442    0.816   0.2629     C
H       0.5461   0.2224   0.8326     H
H       0.5461   0.7224   0.6674     H
H       0.5465   0.0345   0.0522     H
H       0.5465   0.5345   0.4478     H
H        0.549   0.1983    0.273     H
H        0.549   0.6983    0.227     H
C       0.5494   0.2286  0.26336     C
C       0.5494   0.7286  0.23664     C
C       0.5495   0.0493   0.4487     C
C       0.5495   0.5493   0.0513     C
C       0.5539   0.1758   0.6498     C
C       0.5539   0.6758   0.8502     C
C        0.555    0.074   0.4001     C
C        0.555    0.574   0.0999     C
C       0.5555   0.2554  0.64685     C
C       0.5555   0.7554  0.85315     C
H       0.5575   0.0876   0.6719     H
H       0.5575   0.5876   0.8281     H
C       0.5576   0.3438  0.64394     C
C       0.5576   0.8438  0.85606     C
I      0.56036  0.01364  0.89149     I
I      0.56036  0.51364  0.60851     I
C        0.562   0.0614    0.011     C
C        0.562   0.5614    0.489     C
C       0.5653   0.1276  0.63491     C
C       0.5653   0.6276  0.86509     C
C        0.566   0.1823   0.8699     C
C        0.566   0.6823   0.6301     C
C       0.5661   0.0869    0.651     C
C       0.5661   0.5869    0.849     C
N       0.5663    0.214  0.63283     N
N       0.5663    0.714  0.86717     N
C       0.5687   0.0973  0.96064     C
C       0.5687   0.5973  0.53936     C
H       0.5688   0.4149   0.6379     H
H       0.5688   0.9149   0.8621     H
C         0.57   0.3005   0.6299     C
C         0.57   0.8005   0.8701     C
C       0.5706   0.1354  0.91661     C
C       0.5706   0.6354  0.58339     C
C        0.576    0.385  0.62811     C
C        0.576    0.885  0.87189     C
H       0.5765   0.1539   0.5927     H
H       0.5765   0.6539   0.9073     H
C        0.577   0.1256   0.6044     C
C        0.577   0.6256   0.8956     C
H       0.5794   0.0152   0.6475     H
C       0.5794   0.3093   0.2656     C
H       0.5794   0.5152   0.8525     H
C       0.5794   0.8093   0.2344     C
C       0.5797    0.044   0.6362     C
C       0.5797    0.544   0.8638     C
C       0.5808   0.3382   0.3924     C
C       0.5808   0.8382   0.1076     C
C       0.5823   0.4128   0.4895     C
C       0.5823   0.9128   0.0105     C
N       0.5831   0.4415  0.53935     N
N       0.5831   0.9415  0.96065     N
N       0.5833   0.2938  0.34783     N
N       0.5833   0.7938  0.15217     N
N        0.584   0.2667  0.27795     N
N        0.584   0.7667  0.22205     N
C       0.5894   0.0817   0.5915     C
C       0.5894   0.5817   0.9085     C
N       0.5932   0.0408  0.60664     N
N       0.5932   0.5408  0.89336     N
H       0.5956   0.0803   0.5705     H
H       0.5956   0.5803   0.9295     H
C       0.5973   0.3002  0.60028     C
C       0.5973   0.8002  0.89972     C
H       0.6007   0.3364   0.2767     H
H       0.6007   0.8364   0.2233     H
N       0.6037    0.385   0.5993     N
N       0.6037    0.885   0.9007     N
H       0.6054   0.2708   0.5899     H
H       0.6054   0.7708   0.9101     H
C       0.6125   0.3433    0.586     C
C       0.6125   0.8433    0.914     C
H        0.616   0.3532    0.408     H
H        0.616   0.8532    0.092     H
H       0.6181   0.4003   0.4733     H
H       0.6181   0.9003   0.0267     H
Zn      0.6258  0.47757  0.91411    Zn
Zn      0.6258  0.97757  0.58589    Zn
H       0.6295   0.0557   0.0097     H
C       0.6295    0.316     0.37     C
H       0.6295   0.5557   0.4903     H
C       0.6295    0.816     0.13     C
C       0.6298   0.4254   0.5159     C
C       0.6298   0.9254   0.9841     C
H       0.6302   0.3428   0.5656     H
H       0.6302   0.8428   0.9344     H
H       0.6345   0.1811   0.8689     H
H       0.6345   0.6811   0.6311     H
C       0.6425   0.0664   0.4539     C
C       0.6425   0.5664   0.0461     C
Zn     0.64668  0.44819  0.58001    Zn
Zn     0.64668  0.94819  0.91999    Zn
C       0.6482   0.0907   0.4034     C
C       0.6482   0.5907   0.0966     C
N       0.6617   0.0859  0.95916     N
N       0.6617   0.5859  0.54084     N
Zn     0.66202  0.25818   0.3166    Zn
Zn     0.66202  0.75818   0.1834    Zn
N       0.6644   0.1276  0.91286     N
N       0.6644   0.6276  0.58714     N
H       0.6708    0.064   0.4731     H
H       0.6708    0.564   0.0269     H
I      0.67109  0.16951  0.32937     I
I      0.67109  0.66951  0.17063     I
I      0.67228  0.44006  0.07336     I
I      0.67228  0.94006  0.42664     I
I      0.67967  0.30387  0.81044     I
I      0.67967  0.80387  0.68956     I
H       0.6814   0.1047   0.3871     H
H       0.6814   0.6047   0.1129     H
C       0.6925   0.0867   0.4308     C
C       0.6925   0.5867   0.0692     C
H       0.6981   0.4223   0.5169     H
H       0.6981   0.9223   0.9831     H
H       0.6982   0.3163   0.3702     H
H       0.6982   0.8163   0.1298     H
I      0.70093  0.49731  0.96449     I
I      0.70093  0.99731  0.53551     I
C       0.7057   0.1013  0.93499     C
C       0.7057   0.6013  0.56501     C
I      0.70976  0.42496  0.87643     I
I      0.70976  0.92496  0.62357     I
I      0.79024  0.42496  0.37643     I
I      0.79024  0.92496  0.12357     I
C       0.7943   0.1013  0.43499     C
C       0.7943   0.6013  0.06501     C
I      0.79907  0.49731  0.46449     I
I      0.79907  0.99731  0.03551     I
H       0.8018   0.3163   0.8702     H
H       0.8018   0.8163   0.6298     H
H       0.8019   0.4223   0.0169     H
H       0.8019   0.9223   0.4831     H
C       0.8075   0.0867   0.9308     C
C       0.8075   0.5867   0.5692     C
H       0.8186   0.1047   0.8871     H
H       0.8186   0.6047   0.6129     H
I      0.82033  0.30387  0.31044     I
I      0.82033  0.80387  0.18956     I
I      0.82772  0.44006  0.57336     I
I      0.82772  0.94006  0.92664     I
I      0.82891  0.16951  0.82937     I
I      0.82891  0.66951  0.67063     I
H       0.8292    0.064   0.9731     H
H       0.8292    0.564   0.5269     H
N       0.8356   0.1276  0.41286     N
N       0.8356   0.6276  0.08714     N
Zn     0.83798  0.25818   0.8166    Zn
Zn     0.83798  0.75818   0.6834    Zn
N       0.8383   0.0859  0.45916     N
N       0.8383   0.5859  0.04084     N
C       0.8518   0.0907   0.9034     C
C       0.8518   0.5907   0.5966     C
Zn     0.85332  0.44819  0.08001    Zn
Zn     0.85332  0.94819  0.41999    Zn
C       0.8575   0.0664   0.9539     C
C       0.8575   0.5664   0.5461     C
H       0.8655   0.1811   0.3689     H
H       0.8655   0.6811   0.1311     H
H       0.8698   0.3428   0.0656     H
H       0.8698   0.8428   0.4344     H
C       0.8702   0.4254   0.0159     C
C       0.8702   0.9254   0.4841     C
H       0.8705   0.0557   0.5097     H
C       0.8705    0.316     0.87     C
H       0.8705   0.5557   0.9903     H
C       0.8705    0.816     0.63     C
Zn      0.8742  0.47757  0.41411    Zn
Zn      0.8742  0.97757  0.08589    Zn
H       0.8819   0.4003   0.9733     H
H       0.8819   0.9003   0.5267     H
H        0.884   0.3532    0.908     H
H        0.884   0.8532    0.592     H
C       0.8875   0.3433    0.086     C
C       0.8875   0.8433    0.414     C
H       0.8946   0.2708   0.0899     H
H       0.8946   0.7708   0.4101     H
N       0.8963    0.385   0.0993     N
N       0.8963    0.885   0.4007     N
H       0.8993   0.3364   0.7767     H
H       0.8993   0.8364   0.7233     H
C       0.9027   0.3002  0.10028     C
C       0.9027   0.8002  0.39972     C
H       0.9044   0.0803   0.0705     H
H       0.9044   0.5803   0.4295     H
N       0.9068   0.0408  0.10664     N
N       0.9068   0.5408  0.39336     N
C       0.9106   0.0817   0.0915     C
C       0.9106   0.5817   0.4085     C
N        0.916   0.2667  0.77795     N
N        0.916   0.7667  0.72205     N
N       0.9167   0.2938  0.84783     N
N       0.9167   0.7938  0.65217     N
N       0.9169   0.4415  0.03935     N
N       0.9169   0.9415  0.46065     N
C       0.9177   0.4128   0.9895     C
C       0.9177   0.9128   0.5105     C
C       0.9192   0.3382   0.8924     C
C       0.9192   0.8382   0.6076     C
C       0.9203    0.044   0.1362     C
C       0.9203    0.544   0.3638     C
H       0.9206   0.0152   0.1475     H
C       0.9206   0.3093   0.7656     C
H       0.9206   0.5152   0.3525     H
C       0.9206   0.8093   0.7344     C
C        0.923   0.1256   0.1044     C
C        0.923   0.6256   0.3956     C
H       0.9235   0.1539   0.0927     H
H       0.9235   0.6539   0.4073     H
C        0.924    0.385  0.12811     C
C        0.924    0.885  0.37189     C
C       0.9294   0.1354  0.41661     C
C       0.9294   0.6354  0.08339     C
C         0.93   0.3005   0.1299     C
C         0.93   0.8005   0.3701     C
H       0.9312   0.4149   0.1379     H
H       0.9312   0.9149   0.3621     H
C       0.9313   0.0973  0.46064     C
C       0.9313   0.5973  0.03936     C
N       0.9337    0.214  0.13283     N
N       0.9337    0.714  0.36717     N
C       0.9339   0.0869    0.151     C
C       0.9339   0.5869    0.349     C
C        0.934   0.1823   0.3699     C
C        0.934   0.6823   0.1301     C
C       0.9347   0.1276  0.13491     C
C       0.9347   0.6276  0.36509     C
C        0.938   0.0614    0.511     C
C        0.938   0.5614    0.989     C
I      0.93964  0.01364  0.39149     I
I      0.93964  0.51364  0.10851     I
C       0.9424   0.3438  0.14394     C
C       0.9424   0.8438  0.35606     C
H       0.9425   0.0876   0.1719     H
H       0.9425   0.5876   0.3281     H
C       0.9445   0.2554  0.14685     C
C       0.9445   0.7554  0.35315     C
C        0.945    0.074   0.9001     C
C        0.945    0.574   0.5999     C
C       0.9461   0.1758   0.1498     C
C       0.9461   0.6758   0.3502     C
C       0.9505   0.0493   0.9487     C
C       0.9505   0.5493   0.5513     C
C       0.9506   0.2286  0.76336     C
C       0.9506   0.7286  0.73664     C
H        0.951   0.1983    0.773     H
H        0.951   0.6983    0.727     H
H       0.9535   0.0345   0.5522     H
H       0.9535   0.5345   0.9478     H
H       0.9539   0.2224   0.3326     H
H       0.9539   0.7224   0.1674     H
C       0.9558    0.316   0.7371     C
C       0.9558    0.816   0.7629     C
H       0.9581   0.3472   0.7286     H
H       0.9581   0.8472   0.7714     H
H       0.9632   0.3452   0.1641     H
H       0.9632   0.8452   0.3359     H
N       0.9689   0.2597  0.17563     N
N       0.9689   0.7597  0.32437     N
N       0.9698   0.1756  0.17825     N
N       0.9698   0.6756  0.32175     N
H        0.976   0.0779   0.8814     H
H        0.976   0.5779   0.6186     H
C       0.9809   0.2196  0.18999     C
C       0.9809   0.7196  0.31001     C
N       0.9815   0.1213  0.44024     N
N       0.9815   0.6213  0.05976     N
C        0.982   0.1608  0.39294     C
C        0.982   0.6608  0.10706     C
H       0.9846   0.0347   0.9647     H
H       0.9846   0.5347   0.5353     H
C       0.9854   0.2322  0.73485     C
C       0.9854   0.7322  0.76515     C
C       0.9856   0.0817  0.48725     C
C       0.9856   0.5817  0.01275     C
C       0.9873   0.0495   0.5363     C
C       0.9873   0.5495   0.9637     C
C       0.9874    0.206    0.348     C
C       0.9874    0.706    0.152     C
C       0.9877   0.2765  0.72099     C
C       0.9877   0.7765  0.77901     C
H       0.9922   0.2955   0.2247     H
H       0.9922   0.7955   0.2753     H
N       0.9936   0.0525  0.92214     N
N       0.9936   0.5525  0.57786     N
