data_I
_chemical_name_common  '/home/zhangsd/repos/MofS-CGCNN/ML/data/SSD/clean_cifs/NOFDUI_clean'
_cell_length_a 13.33460
_cell_length_b 13.46130
_cell_length_c 17.51150
_cell_angle_alpha 90.00000
_cell_angle_beta  90.00000
_cell_angle_gamma 90.00000
_space_group_name_H-M_alt      'P 1'


loop_
_space_group_symop_operation_xyz
  'x, y, z' 

loop_
_atom_site_label
_atom_site_fract_x
_atom_site_fract_y
_atom_site_fract_z
_atom_site_type_symbol
H       0.0006   0.3259   0.5024     H
C        0.004     0.25   0.0017     C
H       0.0081   0.2338   0.4478     H
H       0.0087   0.7298   0.4466     H
H       0.0119   0.8192    0.504     H
C       0.0162   0.2563   0.4995     C
C        0.028   0.7208   0.6321     C
H       0.0317   0.2212   0.6475     H
C       0.0373   0.7326   0.8655     C
H       0.0426   0.2106   0.8609     H
C       0.0429   0.5788   0.5328     C
H       0.0438   0.7895   0.6407     H
C       0.0462   0.5807   0.9552     C
H       0.0478   0.5408   0.8434     H
H       0.0516   0.8024   0.8624     H
C       0.0568   0.6963   0.9465     C
C       0.0574   0.6919   0.5497     C
C       0.0635   0.0516   0.9775     C
H       0.0645   0.6803   0.6676     H
H       0.0665   0.5487   0.0715     H
H       0.0682   0.5419    0.577     H
C       0.0688   0.0529    0.532     C
H       0.0732   0.5505   0.4193     H
H       0.0736   0.2396   0.9899     H
H       0.0772   0.4532    0.898     H
H       0.0797   0.6972   0.8305     H
H       0.0843   0.2458   0.5154     H
C        0.085    0.523   0.8883     C
O       0.0965   0.0283   0.4699     O
O       0.0967   0.0381   0.0478     O
C       0.1098   0.5558   0.0274     C
C       0.1115   0.5564   0.4662     C
O         0.12   0.0432   0.9223     O
O       0.1211   0.0585   0.5932     O
H       0.1234   0.9912   0.7302     H
H       0.1457   0.4939   0.0199     H
H       0.1475   0.4948   0.4747     H
H       0.1522   0.9412    0.808     H
H       0.1546   0.5379   0.8807     H
H       0.1677   0.6742   0.0869     H
C       0.1687   0.7084   0.9697     C
H       0.1702   0.6856   0.4171     H
C       0.1726   0.9513    0.756     C
C       0.1737   0.7054   0.5339     C
H       0.1785   0.8882   0.7308     H
C       0.1826   0.6392   0.0398     C
C       0.1854    0.645   0.4614     C
O       0.1863   0.9752   0.1923     O
O       0.1869   0.9779    0.317     O
O       0.1944    0.849   0.0506     O
H        0.195   0.3287   0.0901     H
C       0.1999   0.8162   0.5219     C
C       0.2011   0.8139   0.9827     C
O       0.2066   0.8477   0.4561     O
H       0.2097   0.6816   0.9281     H
O       0.2156   0.8657   0.5812     O
H       0.2174   0.6967   0.6465     H
H       0.2203   0.5932   0.6056     H
C       0.2298   0.9974   0.2546     C
O       0.2311   0.8624   0.9254     O
Co     0.23306  0.99008  0.42598    Co
Co     0.23426  0.99107  0.08387    Co
C       0.2348   0.6627   0.6002     C
H       0.2463    0.379   0.9568     H
H       0.2492   0.3857   0.5423     H
H       0.2508   0.6143   0.0423     H
H       0.2537    0.621   0.4568     H
C       0.2652   0.3373   0.1002     C
Co     0.26574  0.00893  0.58387    Co
Co     0.26694  0.00992  0.92598    Co
O       0.2689   0.1376   0.4254     O
C       0.2702   0.0026   0.7546     C
H       0.2797   0.4068   0.1056     H
H       0.2826   0.3033   0.1465     H
O       0.2844   0.1343   0.0812     O
H       0.2903   0.3184   0.4281     H
O       0.2934   0.1523   0.9561     O
C       0.2989   0.1861   0.4827     C
C       0.3001   0.1838   0.0219     C
H        0.305   0.6713   0.5901     H
O       0.3056    0.151   0.5506     O
O       0.3131   0.0221    0.817     O
O       0.3137   0.0248   0.6923     O
C       0.3146    0.355   0.9614     C
C       0.3174   0.3608   0.5398     C
H       0.3215   0.1118   0.2308     H
C       0.3263   0.2946   0.0339     C
C       0.3274   0.0487    0.256     C
H       0.3298   0.3144   0.9171     H
C       0.3313   0.2916   0.4697     C
H       0.3323   0.3258   0.5869     H
H       0.3454   0.4621   0.3807     H
H       0.3478   0.0588    0.308     H
H       0.3525   0.5052   0.9747     H
H       0.3543   0.5061   0.5199     H
H       0.3766   0.0088   0.2302     H
O       0.3789   0.9415   0.0932     O
O         0.38   0.9568   0.4223     O
C       0.3885   0.4436   0.9662     C
C       0.3902   0.4442   0.5274     C
O       0.4033   0.9619   0.5478     O
O       0.4035   0.9717   0.9699     O
C        0.415    0.477   0.3883     C
H       0.4157   0.7542   0.0154     H
H       0.4203   0.3028   0.3305     H
H       0.4228   0.5468    0.398     H
H       0.4264   0.7604   0.4899     H
H       0.4268   0.4495   0.9193     H
C       0.4312   0.9471    0.032     C
H       0.4318   0.4581    0.077     H
H       0.4335   0.4513   0.5715     H
H       0.4355   0.3197   0.1676     H
C       0.4365   0.9484   0.4775     C
C       0.4426   0.3081   0.0497     C
C       0.4432   0.3037   0.4465     C
H       0.4484   0.1976   0.3624     H
H       0.4522   0.4592   0.3434     H
C       0.4538   0.4193   0.4552     C
H       0.4562   0.2105   0.1407     H
C       0.4571   0.4212   0.0328     C
H       0.4574   0.7894   0.3609     H
C       0.4627   0.2674   0.3655     C
H       0.4683   0.7788   0.1475     H
C        0.472   0.2792   0.1321     C
C       0.4838   0.7437   0.9995     C
H       0.4881   0.1808    0.004     H
H       0.4913   0.2702   0.9466     H
H       0.4919   0.7662   0.9478     H
C        0.496     0.75   0.5017     C
H       0.4994   0.6741   0.0024     H
H       0.5006   0.1741   0.4976     H
C        0.504     0.25   0.9983     C
H       0.5081   0.2662   0.5522     H
H       0.5087   0.7702   0.5534     H
H       0.5119   0.6808    0.496     H
C       0.5162   0.2437   0.5005     C
C        0.528   0.7792   0.3679     C
H       0.5317   0.2788   0.3525     H
C       0.5373   0.7674   0.1345     C
H       0.5426   0.2894   0.1391     H
C       0.5429   0.9212   0.4672     C
H       0.5438   0.7105   0.3593     H
C       0.5462   0.9193   0.0448     C
H       0.5478   0.9592   0.1566     H
H       0.5516   0.6976   0.1376     H
C       0.5568   0.8037   0.0535     C
C       0.5574   0.8081   0.4503     C
C       0.5635   0.4484   0.0225     C
H       0.5645   0.8197   0.3324     H
H       0.5665   0.9513   0.9285     H
H       0.5682   0.9581    0.423     H
C       0.5688   0.4471    0.468     C
H       0.5732   0.9495   0.5807     H
H       0.5736   0.2604   0.0101     H
H       0.5772   0.0468    0.102     H
H       0.5797   0.8028   0.1695     H
H       0.5843   0.2542   0.4846     H
C        0.585    0.977   0.1117     C
O       0.5965   0.4717   0.5301     O
O       0.5967   0.4619   0.9522     O
C       0.6098   0.9442   0.9726     C
C       0.6115   0.9436   0.5338     C
O         0.62   0.4568   0.0777     O
O       0.6211   0.4415   0.4068     O
H       0.6234   0.5088   0.2698     H
H       0.6457   0.0061   0.9801     H
H       0.6475   0.0052   0.5253     H
H       0.6522   0.5588    0.192     H
H       0.6546   0.9621   0.1193     H
H       0.6677   0.8258   0.9131     H
C       0.6687   0.7916   0.0303     C
H       0.6702   0.8144   0.5829     H
C       0.6726   0.5487    0.244     C
C       0.6737   0.7946   0.4661     C
H       0.6785   0.6118   0.2692     H
C       0.6826   0.8608   0.9602     C
C       0.6854    0.855   0.5386     C
O       0.6863   0.5248   0.8077     O
O       0.6869   0.5221    0.683     O
O       0.6944    0.651   0.9494     O
H        0.695   0.1713   0.9099     H
C       0.6999   0.6838   0.4781     C
C       0.7011   0.6861   0.0173     C
O       0.7066   0.6523   0.5439     O
H       0.7097   0.8184   0.0719     H
O       0.7156   0.6343   0.4188     O
H       0.7174   0.8033   0.3535     H
H       0.7203   0.9068   0.3944     H
C       0.7298   0.5026   0.7454     C
O       0.7311   0.6376   0.0746     O
Co     0.73306  0.50992  0.57402    Co
Co     0.73426  0.50893  0.91613    Co
C       0.7348   0.8373   0.3998     C
H       0.7463    0.121   0.0432     H
H       0.7492   0.1143   0.4577     H
H       0.7508   0.8857   0.9577     H
H       0.7537    0.879   0.5432     H
C       0.7652   0.1627   0.8998     C
Co     0.76574  0.49107  0.41613    Co
Co     0.76694  0.49008  0.07402    Co
O       0.7689   0.3624   0.5746     O
C       0.7702   0.4974   0.2454     C
H       0.7797   0.0932   0.8944     H
H       0.7826   0.1967   0.8535     H
O       0.7844   0.3657   0.9188     O
H       0.7903   0.1816   0.5719     H
O       0.7934   0.3477   0.0439     O
C       0.7989   0.3139   0.5173     C
C       0.8001   0.3162   0.9781     C
H        0.805   0.8287   0.4099     H
O       0.8056    0.349   0.4494     O
O       0.8131   0.4779    0.183     O
O       0.8137   0.4752   0.3077     O
C       0.8146    0.145   0.0386     C
C       0.8174   0.1392   0.4602     C
H       0.8215   0.3882   0.7692     H
C       0.8263   0.2054   0.9661     C
C       0.8274   0.4513    0.744     C
H       0.8298   0.1856   0.0829     H
C       0.8313   0.2084   0.5303     C
H       0.8323   0.1742   0.4131     H
H       0.8454   0.0379   0.6193     H
H       0.8478   0.4412    0.692     H
H       0.8525   0.9948   0.0253     H
H       0.8543   0.9939   0.4801     H
H       0.8766   0.4912   0.7698     H
O       0.8789   0.5585   0.9068     O
O         0.88   0.5432   0.5777     O
C       0.8885   0.0564   0.0338     C
C       0.8902   0.0558   0.4726     C
O       0.9033   0.5381   0.4522     O
O       0.9035   0.5283   0.0301     O
C        0.915    0.023   0.6117     C
H       0.9157   0.7458   0.9846     H
H       0.9203   0.1972   0.6695     H
H       0.9228   0.9532    0.602     H
H       0.9264   0.7396   0.5101     H
H       0.9268   0.0505   0.0807     H
C       0.9312   0.5529    0.968     C
H       0.9318   0.0419    0.923     H
H       0.9335   0.0487   0.4285     H
H       0.9355   0.1803   0.8324     H
C       0.9365   0.5516   0.5225     C
C       0.9426   0.1919   0.9503     C
C       0.9432   0.1963   0.5535     C
H       0.9484   0.3024   0.6376     H
H       0.9522   0.0408   0.6566     H
C       0.9538   0.0807   0.5448     C
H       0.9562   0.2895   0.8593     H
C       0.9571   0.0788   0.9672     C
H       0.9574   0.7106   0.6391     H
C       0.9627   0.2326   0.6345     C
H       0.9683   0.7212   0.8525     H
C        0.972   0.2208   0.8679     C
C       0.9838   0.7563   0.0005     C
H       0.9881   0.3192    0.996     H
H       0.9913   0.2298   0.0534     H
H       0.9919   0.7338   0.0522     H
C        0.996     0.75   0.4983     C
H       0.9994   0.8259   0.9976     H
