data_I
_chemical_name_common  '/home/zhangsd/repos/MofS-CGCNN/ML/data/SSD/clean_cifs/NOJBOF_clean'
_cell_length_a 12.78000
_cell_length_b 10.49400
_cell_length_c 15.87000
_cell_angle_alpha 90.00000
_cell_angle_beta  109.31000
_cell_angle_gamma 90.00000
_space_group_name_H-M_alt      'P 1'


loop_
_space_group_symop_operation_xyz
  'x, y, z' 

loop_
_atom_site_label
_atom_site_fract_x
_atom_site_fract_y
_atom_site_fract_z
_atom_site_type_symbol
C        0.024   0.1302   0.0019     C
C        0.024   0.3698   0.5019     C
C        0.028   0.0469    0.248     C
C        0.028   0.4531    0.748     C
C       0.0281   0.5992   0.1297     C
C       0.0281   0.9008   0.6297     C
N       0.0314   0.6472   0.0491     N
N       0.0314   0.8528   0.5491     N
C       0.0494   0.1122   0.3267     C
C       0.0494   0.3878   0.8267     C
C       0.0521   0.2298   0.5097     C
C       0.0521   0.2702   0.0097     C
H       0.0646   0.7388   0.3829     H
H       0.0646   0.7612   0.8829     H
H       0.0647   0.2034   0.5708     H
H       0.0647   0.2966   0.0708     H
C       0.0673   0.0276   0.7874     C
C       0.0673   0.4724   0.2874     C
H       0.0783   0.0523   0.2172     H
H       0.0783   0.4477   0.7172     H
H       0.0792   0.0699   0.8413     H
H       0.0792   0.4301   0.3413     H
C       0.0823   0.5844   0.5421     C
C       0.0823   0.9156   0.0421     C
C       0.1058   0.0436   0.0438     C
C       0.1058   0.4564   0.5438     C
H       0.1124   0.1625   0.3497     H
H       0.1124   0.3375   0.8497     H
H        0.121   0.2178   0.4975     H
H        0.121   0.2822   0.9975     H
C       0.1245    0.525   0.1645     C
C       0.1245    0.975   0.6645     C
C       0.1264   0.6043   0.0384     C
C       0.1264   0.8957   0.5384     C
C       0.1287   0.7125   0.8947     C
C       0.1287   0.7875   0.3947     C
H       0.1385   0.6414   0.5708     H
H       0.1385   0.8586   0.0708     H
C       0.1438   0.0395   0.7438     C
C       0.1438   0.4605   0.2438     C
C       0.1681   0.6308   0.9649     C
C       0.1681   0.8692   0.4649     C
H       0.1775    0.072   0.0735     H
H       0.1775    0.428   0.5735     H
N        0.185   0.5303   0.1064     N
N        0.185   0.9697   0.6064     N
H       0.2068   0.0896   0.7673     H
H       0.2068   0.4104   0.2673     H
S       0.2132   0.7126  0.83173     S
S       0.2132   0.7874  0.33173     S
N       0.2637   0.5679   0.9687     N
N       0.2637   0.9321   0.4687     N
C       0.2953   0.6035   0.9022     C
C       0.2953   0.8965   0.4022     C
O       0.3519   0.2312   0.1001     O
O       0.3519   0.2688   0.6001     O
H       0.3589   0.5711   0.8938     H
H       0.3589   0.9289   0.3938     H
Cd      0.3612  0.03251  0.61246    Cd
Cd      0.3612  0.46749  0.11246    Cd
H       0.3967    0.148   0.9004     H
H       0.3967    0.352   0.4004     H
O       0.4127    0.653   0.2807     O
O       0.4127    0.847   0.7807     O
C       0.4195   0.2332   0.0596     C
C       0.4195   0.2668   0.5596     C
O       0.4213   0.0555   0.7598     O
O       0.4213   0.4445   0.2598     O
C        0.433   0.5418   0.3079     C
C        0.433   0.9582   0.8079     C
C       0.4379    0.088   0.9409     C
C       0.4379    0.412   0.4409     C
O       0.4495    0.163   0.5352     O
O       0.4495    0.337   0.0352     O
C       0.4631   0.1123   0.0313     C
C       0.4631   0.3877   0.5313     C
C       0.4714   0.5223   0.4077     C
C       0.4714   0.9777   0.9077     C
C       0.5286   0.0223   0.0923     C
C       0.5286   0.4777   0.5923     C
C       0.5369   0.6123   0.4687     C
C       0.5369   0.8877   0.9687     C
O       0.5505    0.663   0.9648     O
O       0.5505    0.837   0.4648     O
C       0.5621    0.588   0.5591     C
C       0.5621    0.912   0.0591     C
C        0.567   0.0418   0.1921     C
C        0.567   0.4582   0.6921     C
O       0.5787   0.5555   0.7402     O
O       0.5787   0.9445   0.2402     O
C       0.5805   0.7332   0.4404     C
C       0.5805   0.7668   0.9404     C
O       0.5873    0.153   0.2193     O
O       0.5873    0.347   0.7193     O
H       0.6033    0.648   0.5996     H
H       0.6033    0.852   0.0996     H
Cd      0.6388  0.53251  0.88754    Cd
Cd      0.6388  0.96749  0.38754    Cd
H       0.6411   0.0711   0.6062     H
H       0.6411   0.4289   0.1062     H
O       0.6481   0.7312   0.3999     O
O       0.6481   0.7688   0.8999     O
C       0.7047   0.1035   0.5978     C
C       0.7047   0.3965   0.0978     C
N       0.7363   0.0679   0.5313     N
N       0.7363   0.4321   0.0313     N
S       0.7868   0.2126  0.66827     S
S       0.7868   0.2874  0.16827     S
H       0.7932   0.5896   0.7327     H
H       0.7932   0.9104   0.2327     H
N        0.815   0.0303   0.3936     N
N        0.815   0.4697   0.8936     N
H       0.8225    0.572   0.4265     H
H       0.8225    0.928   0.9265     H
C       0.8319   0.1308   0.5351     C
C       0.8319   0.3692   0.0351     C
C       0.8562   0.5395   0.7562     C
C       0.8562   0.9605   0.2562     C
H       0.8615   0.1414   0.9292     H
H       0.8615   0.3586   0.4292     H
C       0.8713   0.2125   0.6053     C
C       0.8713   0.2875   0.1053     C
C       0.8736   0.1043   0.4616     C
C       0.8736   0.3957   0.9616     C
C       0.8755    0.025   0.3355     C
C       0.8755    0.475   0.8355     C
H        0.879   0.7178   0.0025     H
H        0.879   0.7822   0.5025     H
H       0.8876   0.6625   0.1503     H
H       0.8876   0.8375   0.6503     H
C       0.8942   0.5436   0.4562     C
C       0.8942   0.9564   0.9562     C
C       0.9177   0.0844   0.9579     C
C       0.9177   0.4156   0.4579     C
H       0.9208   0.5699   0.6587     H
H       0.9208   0.9301   0.1587     H
H       0.9217   0.5523   0.2828     H
H       0.9217   0.9477   0.7828     H
C       0.9327   0.5276   0.7126     C
C       0.9327   0.9724   0.2126     C
H       0.9353   0.7034   0.9292     H
H       0.9353   0.7966   0.4292     H
H       0.9354   0.2388   0.1171     H
H       0.9354   0.2612   0.6171     H
C       0.9479   0.7298   0.9903     C
C       0.9479   0.7702   0.4903     C
C       0.9506   0.6122   0.1733     C
C       0.9506   0.8878   0.6733     C
N       0.9686   0.1472   0.4509     N
N       0.9686   0.3528   0.9509     N
C       0.9719   0.0992   0.3703     C
C       0.9719   0.4008   0.8703     C
C        0.972   0.5469    0.252     C
C        0.972   0.9531    0.752     C
C        0.976   0.6302   0.4981     C
C        0.976   0.8698   0.9981     C
