data_I
_chemical_name_common  '/home/zhangsd/repos/MofS-CGCNN/ML/data/SSD/clean_cifs/NUGRIR_clean'
_cell_length_a 26.06430
_cell_length_b 26.06430
_cell_length_c 26.06430
_cell_angle_alpha 109.47100
_cell_angle_beta  109.47100
_cell_angle_gamma 109.47100
_space_group_name_H-M_alt      'P 1'


loop_
_space_group_symop_operation_xyz
  'x, y, z' 

loop_
_atom_site_label
_atom_site_fract_x
_atom_site_fract_y
_atom_site_fract_z
_atom_site_type_symbol
H       0.0007   0.0716   0.3959     H
C       0.0017   0.5541    0.525     C
N       0.0047   0.4458   0.9901     N
N       0.0053   0.6947   0.7062     N
Br      0.0057  0.96953  0.28757    Br
H       0.0075   0.7398   0.8371     H
N       0.0084   0.6134   0.5472     N
C       0.0087   0.5554   0.6629     C
N       0.0099   0.9557   0.5146     N
N       0.0115   0.8053   0.8106     N
N       0.0133   0.4521   0.1266     N
H       0.0143   0.9173    0.092     H
N       0.0146   0.0099   0.4557     N
N       0.0186   0.7051   0.0823     N
S      0.02039  0.82952  0.18523     S
C       0.0205   0.6546   0.1985     C
N       0.0208   0.6171   0.6881     N
C        0.022   0.7822   0.8496     C
C       0.0224    0.105   0.9358     C
C       0.0233   0.0524   0.9983     C
C        0.025   0.0017   0.0541     C
C       0.0291    0.975   0.4767     C
Br     0.03047  0.81804  0.03617    Br
Br     0.03617  0.31804  0.03047    Br
Cu     0.03629  0.78629     0.25    Cu
C       0.0364   0.9592    0.123     C
N       0.0388    0.105   0.9916     N
C       0.0408   0.6638   0.0772     C
C       0.0439   0.8659   0.8454     C
N       0.0443   0.0589   0.0542     N
H       0.0446   0.1833   0.9273     H
C       0.0451   0.7129    0.594     C
C       0.0467   0.4913   0.6542     C
H        0.047   0.8936     0.83     H
N       0.0472   0.0084   0.1134     N
N       0.0479   0.5612   0.1745     N
C       0.0489   0.1678   0.9549     C
C       0.0524   0.4983   0.5233     C
C       0.0541   0.5017    0.025     C
N       0.0542   0.5589   0.0443     N
H       0.0548   0.3811   0.6225     H
C       0.0554   0.5087   0.1629     C
C       0.0562   0.8289   0.9087     C
N       0.0589   0.5542   0.5443     N
Cu     0.05982  0.93643  0.23571    Cu
N       0.0612   0.5479   0.6745     N
Cu     0.06357  0.79928  0.12339    Cu
H       0.0636     0.67    0.217     H
N       0.0637   0.9814   0.1865     N
C       0.0642   0.6692   0.5866     C
N       0.0662   0.9528   0.4612     N
C       0.0674   0.7178   0.7398     C
H       0.0677   0.8263   0.9452     H
H       0.0709   0.3952   0.4993     H
N        0.071   0.8829   0.9037     N
H       0.0716   0.8959   0.5007     H
H       0.0727    0.756   0.6173     H
C       0.0772   0.1638   0.0408     C
H       0.0777   0.9857    0.403     H
C       0.0798   0.6711   0.7273     C
N       0.0823   0.2051   0.0186     N
C       0.0826   0.9134   0.4776     C
H       0.0827   0.6747    0.097     H
C       0.0866   0.0642   0.1692     C
C       0.0866   0.9636   0.4228     C
C       0.0913   0.4202   0.6475     C
H        0.092   0.4173   0.0143     H
C        0.094   0.0451   0.2129     C
N       0.0963   0.4792   0.6673     N
H        0.097   0.1747   0.0827     H
H       0.0973   0.7602   0.7677     H
H       0.1041   0.1048   0.1757     H
H       0.1048   0.6757   0.6041     H
C        0.105   0.4358   0.5224     C
N        0.105   0.4916   0.5388     N
H       0.1064   0.4364   0.1534     H
C       0.1075   0.9446   0.9533     C
N       0.1133   0.9867   0.9388     N
N       0.1134   0.5084   0.0472     N
N       0.1171   0.5208   0.1881     N
H       0.1173   0.0727    0.256     H
H       0.1189   0.6737   0.7414     H
C       0.1189    0.906   0.4511     C
H       0.1225   0.0548   0.8811     H
N       0.1228   0.9363   0.4177     N
C        0.123   0.4592   0.0364     C
Cu     0.12339  0.29928  0.06357    Cu
W        0.125    0.875     0.25     W
N       0.1266   0.9521   0.0133     N
C       0.1341   0.4795    0.178     C
H       0.1387   0.8827   0.4554     H
S      0.14429  0.83516  0.31477     S
C       0.1475   0.0913   0.9202     C
C       0.1504   0.4326   0.6724     C
H       0.1534   0.9364   0.1064     H
C       0.1542   0.0467   0.9913     C
C       0.1546   0.5205   0.6985     C
C       0.1629   0.0087   0.0554     C
H       0.1629   0.4027   0.6704     H
C       0.1638   0.5408   0.5772     C
S      0.16484  0.97961  0.30913     S
N       0.1673   0.0963   0.9792     N
C       0.1678   0.4549   0.5489     C
C       0.1692   0.5642   0.0866     C
H         0.17   0.5636    0.717     H
H       0.1704   0.1629   0.9027     H
S      0.17048  0.85571  0.19087     S
C       0.1711   0.5798   0.2273     C
C       0.1724   0.1504   0.9326     C
H       0.1737   0.6189   0.2414     H
N       0.1745   0.0612   0.0479     N
H       0.1747   0.5827    0.597     H
H       0.1757   0.6048   0.1041     H
Cu     0.17589  0.94018  0.37661    Cu
C        0.178   0.9795   0.1341     C
Br     0.18196  0.71813  0.21243    Br
H       0.1833   0.4273   0.5446     H
S      0.18523  0.32952  0.02039     S
N       0.1865   0.4814   0.0637     N
N       0.1881   0.0208   0.1171     N
N       0.1894   0.4947   0.7009     N
S      0.19087  0.35571  0.17048     S
N       0.1947   0.5053   0.2062     N
C       0.1985   0.1546   0.0205     C
Cu     0.20072  0.82411  0.26429    Cu
N       0.2009   0.1894   0.9947     N
N       0.2051   0.5186   0.5823     N
N       0.2062   0.0053   0.1947     N
Br     0.21243  0.21813  0.18196    Br
C       0.2129   0.5451    0.094     C
Cu     0.21371  0.96371     0.25    Cu
H        0.217     0.17   0.0636     H
C       0.2178   0.5674   0.2398     C
Br     0.21813  0.68196  0.71243    Br
C       0.2273   0.0798   0.1711     C
H       0.2323   0.4925   0.8296     H
Cu     0.23571  0.43643  0.05982    Cu
C       0.2398   0.0674   0.2178     C
H       0.2398   0.5075   0.3371     H
H       0.2414   0.1189   0.1737     H
H        0.244   0.3613   0.3167     H
Cu        0.25  0.28629  0.03629    Cu
W         0.25    0.375    0.125     W
Cu        0.25  0.46371  0.21371    Cu
H        0.256   0.5727   0.1173     H
H       0.2586   0.4323   0.8775     H
C       0.2602    0.478   0.8276     C
H       0.2602   0.5973   0.2677     H
Cu     0.26429  0.32411  0.20072    Cu
H       0.2677   0.0973   0.2602     H
C       0.2727   0.4438   0.8525     C
Br     0.28187   0.9943  0.46383    Br
C       0.2822    0.522   0.3496     C
H        0.283   0.3466    0.953     H
Cu     0.28629  0.53629     0.75    Cu
C       0.2871   0.3811   0.3322     C
Br     0.28757  0.46953   0.0057    Br
N       0.2938   0.4885   0.7991     N
N       0.2949   0.8772   0.3135     N
N       0.2991   0.2938   0.9885     N
Cu     0.29928  0.56357  0.62339    Cu
C       0.3015    0.322   0.9561     C
N       0.3053   0.5115   0.3106     N
S      0.30913  0.47961  0.16484     S
N       0.3106   0.0115   0.3053     N
N       0.3119    0.429   0.8327     N
N       0.3135   0.3772   0.2949     N
S      0.31477  0.33516  0.14429     S
H       0.3167   0.8613    0.244     H
Br     0.31804  0.53047  0.53617    Br
C        0.322   0.4561   0.8015     C
Cu     0.32411  0.70072  0.76429    Cu
H       0.3243   0.4284   0.4291     H
H       0.3253   0.9223    0.408     H
N       0.3255   0.3734   0.8867     N
H       0.3263   0.5677   0.4452     H
C       0.3276   0.2602    0.978     C
C       0.3289   0.5562   0.4087     C
S      0.32952  0.52039  0.68523     S
H       0.3296   0.2323   0.9925     H
H         0.33    0.047   0.3936     H
C       0.3308   0.4174    0.395     C
C       0.3322   0.8811   0.2871     C
N       0.3327   0.3119    0.929     N
S      0.33516  0.64429  0.81477     S
C       0.3362   0.9134    0.377     C
H       0.3371   0.0075   0.2398     H
C       0.3371   0.3925   0.8458     C
C       0.3454   0.0439   0.3659     C
C       0.3458   0.3371   0.8925     C
H       0.3466    0.453    0.783     H
C       0.3496    0.022   0.2822     C
C       0.3525   0.2727   0.9438     C
S      0.35571  0.67048  0.69087     S
H       0.3613   0.8167    0.744     H
C       0.3659   0.5439   0.3454     C
N       0.3734   0.3867   0.8255     N
W        0.375    0.625     0.75     W
Cu     0.37661  0.44018  0.17589    Cu
C        0.377   0.4134   0.3362     C
N       0.3772   0.7949   0.8135     N
H       0.3775   0.2586   0.9323     H
H       0.3811   0.1225   0.5548     H
C       0.3811   0.8322   0.7871     C
H       0.3827   0.6387   0.9554     H
N       0.3829    0.571   0.4037     N
N       0.3866   0.4338    0.395     N
N       0.3867   0.3255   0.8734     N
C       0.3925   0.3458   0.8371     C
H       0.3936    0.547     0.33     H
C        0.395   0.9174   0.3308     C
N        0.395   0.9338   0.3866     N
H       0.3952   0.9993   0.5709     H
H       0.3959   0.5716   0.0007     H
H       0.4027   0.1704   0.6629     H
H        0.403   0.4857   0.0777     H
N       0.4037    0.071   0.3829     N
C        0.406   0.6189   0.9511     C
H        0.408   0.4223   0.3253     H
C       0.4087   0.0562   0.3289     C
C       0.4134   0.5826   0.9776     C
C       0.4134   0.8362    0.877     C
H       0.4173   0.5143    0.592     H
C       0.4174    0.895   0.8308     C
N       0.4177   0.4363   0.1228     N
C       0.4202   0.1475   0.5913     C
H       0.4223   0.8253    0.908     H
C       0.4228   0.4636   0.0866     C
H       0.4273   0.0446   0.6833     H
H       0.4284   0.9291   0.8243     H
N        0.429   0.3327   0.8119     N
H       0.4291   0.9284   0.3243     H
H       0.4323   0.3775   0.7586     H
C       0.4326   0.1724   0.6504     C
N       0.4338    0.895   0.8866     N
C       0.4358   0.0224    0.605     C
N       0.4363   0.6228   0.9177     N
H       0.4364   0.6534   0.6064     H
Cu     0.43643  0.55982  0.73571    Cu
N       0.4388   0.1133   0.4867     N
Cu     0.44018  0.67589  0.87661    Cu
N       0.4411   0.9854   0.4953     N
C       0.4438   0.3525   0.7727     C
C       0.4446   0.6075   0.4533     C
H       0.4452   0.0677   0.3263     H
N       0.4458   0.4901   0.5047     N
C       0.4459   0.4709   0.4476     C
C       0.4476   0.9709   0.4459     C
C       0.4511    0.406   0.1189     C
N       0.4521   0.6266   0.5133     N
N       0.4528   0.5662   0.9612     N
H        0.453    0.283   0.8466     H
C       0.4533   0.1075   0.4446     C
C       0.4549   0.0489   0.6678     C
H       0.4554   0.3827   0.1387     H
N       0.4557   0.5099   0.0146     N
C       0.4561   0.3015    0.822     C
C       0.4592   0.5364    0.623     C
N       0.4612   0.4528   0.0662     N
C       0.4636   0.5866   0.9228     C
Cu     0.46371  0.71371     0.75    Cu
Br     0.46383   0.4943  0.28187    Br
Br     0.46953   0.5057  0.78757    Br
C       0.4709   0.9476   0.9459     C
C        0.475   0.5291   0.9767     C
C       0.4767    0.475   0.0291     C
C       0.4776   0.4134   0.0826     C
C        0.478   0.3276   0.7602     C
N       0.4792   0.1673   0.5963     N
C       0.4795    0.678   0.6341     C
S      0.47961  0.66484  0.80913     S
N       0.4814   0.5637   0.6865     N
N       0.4854   0.9411   0.9953     N
H       0.4857   0.5777    0.903     H
N       0.4867   0.6133   0.4388     N
N       0.4885   0.2991   0.7938     N
N       0.4901   0.0047   0.9458     N
C       0.4913   0.1542   0.5467     C
N       0.4916   0.0388    0.605     N
H       0.4925   0.3296   0.7323     H
Br      0.4943  0.78187  0.96383    Br
N       0.4947   0.2009   0.6894     N
N       0.4953   0.4854   0.4411     N
C       0.4983   0.0233   0.5524     C
H       0.4993   0.8952   0.0709     H
H       0.5007   0.3959   0.0716     H
C       0.5017    0.525   0.5541     C
N       0.5047   0.9901   0.4458     N
N       0.5053   0.7062   0.6947     N
Br      0.5057  0.28757  0.96953    Br
H       0.5075   0.8371   0.7398     H
N       0.5084   0.5472   0.6134     N
C       0.5087   0.6629   0.5554     C
N       0.5099   0.5146   0.9557     N
N       0.5115   0.8106   0.8053     N
N       0.5133   0.1266   0.4521     N
H       0.5143    0.092   0.9173     H
N       0.5146   0.4557   0.0099     N
N       0.5186   0.0823   0.7051     N
S      0.52039  0.18523  0.82952     S
C       0.5205   0.1985   0.6546     C
N       0.5208   0.6881   0.6171     N
C        0.522   0.8496   0.7822     C
C       0.5224   0.9358    0.105     C
C       0.5233   0.9983   0.0524     C
C        0.525   0.0541   0.0017     C
C       0.5291   0.4767    0.975     C
Br     0.53047  0.03617  0.81804    Br
Br     0.53617  0.03047  0.31804    Br
Cu     0.53629     0.25  0.78629    Cu
C       0.5364    0.123   0.9592     C
N       0.5388   0.9916    0.105     N
C       0.5408   0.0772   0.6638     C
C       0.5439   0.8454   0.8659     C
N       0.5443   0.0542   0.0589     N
H       0.5446   0.9273   0.1833     H
C       0.5451    0.594   0.7129     C
C       0.5467   0.6542   0.4913     C
H        0.547     0.83   0.8936     H
N       0.5472   0.1134   0.0084     N
N       0.5479   0.1745   0.5612     N
C       0.5489   0.9549   0.1678     C
C       0.5524   0.5233   0.4983     C
C       0.5541    0.025   0.5017     C
N       0.5542   0.0443   0.5589     N
H       0.5548   0.6225   0.3811     H
C       0.5554   0.1629   0.5087     C
C       0.5562   0.9087   0.8289     C
N       0.5589   0.5443   0.5542     N
Cu     0.55982  0.23571  0.93643    Cu
N       0.5612   0.6745   0.5479     N
Cu     0.56357  0.12339  0.79928    Cu
H       0.5636    0.217     0.67     H
N       0.5637   0.1865   0.9814     N
C       0.5642   0.5866   0.6692     C
N       0.5662   0.4612   0.9528     N
C       0.5674   0.7398   0.7178     C
H       0.5677   0.9452   0.8263     H
H       0.5709   0.4993   0.3952     H
N        0.571   0.9037   0.8829     N
H       0.5716   0.5007   0.8959     H
H       0.5727   0.6173    0.756     H
C       0.5772   0.0408   0.1638     C
H       0.5777    0.403   0.9857     H
C       0.5798   0.7273   0.6711     C
N       0.5823   0.0186   0.2051     N
C       0.5826   0.4776   0.9134     C
H       0.5827    0.097   0.6747     H
C       0.5866   0.1692   0.0642     C
C       0.5866   0.4228   0.9636     C
C       0.5913   0.6475   0.4202     C
H        0.592   0.0143   0.4173     H
C        0.594   0.2129   0.0451     C
N       0.5963   0.6673   0.4792     N
H        0.597   0.0827   0.1747     H
H       0.5973   0.7677   0.7602     H
H       0.6041   0.1757   0.1048     H
H       0.6048   0.6041   0.6757     H
C        0.605   0.5224   0.4358     C
N        0.605   0.5388   0.4916     N
H       0.6064   0.1534   0.4364     H
C       0.6075   0.9533   0.9446     C
N       0.6133   0.9388   0.9867     N
N       0.6134   0.0472   0.5084     N
N       0.6171   0.1881   0.5208     N
H       0.6173    0.256   0.0727     H
C       0.6189   0.4511    0.906     C
H       0.6189   0.7414   0.6737     H
H       0.6225   0.8811   0.0548     H
N       0.6228   0.4177   0.9363     N
C        0.623   0.0364   0.4592     C
Cu     0.62339  0.06357  0.29928    Cu
W        0.625     0.25    0.875     W
N       0.6266   0.0133   0.9521     N
C       0.6341    0.178   0.4795     C
H       0.6387   0.4554   0.8827     H
S      0.64429  0.31477  0.83516     S
C       0.6475   0.9202   0.0913     C
C       0.6504   0.6724   0.4326     C
H       0.6534   0.1064   0.9364     H
C       0.6542   0.9913   0.0467     C
C       0.6546   0.6985   0.5205     C
C       0.6629   0.0554   0.0087     C
H       0.6629   0.6704   0.4027     H
C       0.6638   0.5772   0.5408     C
S      0.66484  0.30913  0.97961     S
N       0.6673   0.9792   0.0963     N
C       0.6678   0.5489   0.4549     C
C       0.6692   0.0866   0.5642     C
H         0.67    0.717   0.5636     H
H       0.6704   0.9027   0.1629     H
S      0.67048  0.19087  0.85571     S
C       0.6711   0.2273   0.5798     C
C       0.6724   0.9326   0.1504     C
H       0.6737   0.2414   0.6189     H
N       0.6745   0.0479   0.0612     N
H       0.6747    0.597   0.5827     H
H       0.6757   0.1041   0.6048     H
Cu     0.67589  0.37661  0.94018    Cu
C        0.678   0.1341   0.9795     C
Br     0.68196  0.21243  0.71813    Br
H       0.6833   0.5446   0.4273     H
S      0.68523  0.02039  0.32952     S
N       0.6865   0.0637   0.4814     N
N       0.6881   0.1171   0.0208     N
N       0.6894   0.7009   0.4947     N
S      0.69087  0.17048  0.35571     S
N       0.6947   0.2062   0.5053     N
C       0.6985   0.0205   0.1546     C
Cu     0.70072  0.26429  0.82411    Cu
N       0.7009   0.9947   0.1894     N
N       0.7051   0.5823   0.5186     N
N       0.7062   0.1947   0.0053     N
Br     0.71243  0.18196  0.21813    Br
C       0.7129    0.094   0.5451     C
Cu     0.71371     0.25  0.96371    Cu
H        0.717   0.0636     0.17     H
C       0.7178   0.2398   0.5674     C
Br     0.71813  0.71243  0.68196    Br
C       0.7273   0.1711   0.0798     C
H       0.7323   0.8296   0.4925     H
Cu     0.73571  0.05982  0.43643    Cu
C       0.7398   0.2178   0.0674     C
H       0.7398   0.3371   0.5075     H
H       0.7414   0.1737   0.1189     H
H        0.744   0.3167   0.3613     H
Cu        0.75  0.03629  0.28629    Cu
W         0.75    0.125    0.375     W
Cu        0.75  0.21371  0.46371    Cu
H        0.756   0.1173   0.5727     H
H       0.7586   0.8775   0.4323     H
H       0.7602   0.2677   0.5973     H
C       0.7602   0.8276    0.478     C
Cu     0.76429  0.20072  0.32411    Cu
H       0.7677   0.2602   0.0973     H
C       0.7727   0.8525   0.4438     C
Br     0.78187  0.46383   0.9943    Br
C       0.7822   0.3496    0.522     C
H        0.783    0.953   0.3466     H
Cu     0.78629     0.75  0.53629    Cu
C       0.7871   0.3322   0.3811     C
Br     0.78757   0.0057  0.46953    Br
N       0.7938   0.7991   0.4885     N
N       0.7949   0.3135   0.8772     N
N       0.7991   0.9885   0.2938     N
Cu     0.79928  0.62339  0.56357    Cu
C       0.8015   0.9561    0.322     C
N       0.8053   0.3106   0.5115     N
S      0.80913  0.16484  0.47961     S
N       0.8106   0.3053   0.0115     N
N       0.8119   0.8327    0.429     N
N       0.8135   0.2949   0.3772     N
S      0.81477  0.14429  0.33516     S
H       0.8167    0.244   0.8613     H
Br     0.81804  0.53617  0.53047    Br
C        0.822   0.8015   0.4561     C
Cu     0.82411  0.76429  0.70072    Cu
H       0.8243   0.4291   0.4284     H
H       0.8253    0.408   0.9223     H
N       0.8255   0.8867   0.3734     N
H       0.8263   0.4452   0.5677     H
C       0.8276    0.978   0.2602     C
C       0.8289   0.4087   0.5562     C
S      0.82952  0.68523  0.52039     S
H       0.8296   0.9925   0.2323     H
H         0.83   0.3936    0.047     H
C       0.8308    0.395   0.4174     C
C       0.8322   0.2871   0.8811     C
N       0.8327    0.929   0.3119     N
S      0.83516  0.81477  0.64429     S
C       0.8362    0.377   0.9134     C
H       0.8371   0.2398   0.0075     H
C       0.8371   0.8458   0.3925     C
C       0.8454   0.3659   0.0439     C
C       0.8458   0.8925   0.3371     C
H       0.8466    0.783    0.453     H
C       0.8496   0.2822    0.022     C
C       0.8525   0.9438   0.2727     C
S      0.85571  0.69087  0.67048     S
H       0.8613    0.744   0.8167     H
C       0.8659   0.3454   0.5439     C
N       0.8734   0.8255   0.3867     N
W        0.875     0.75    0.625     W
Cu     0.87661  0.17589  0.44018    Cu
C        0.877   0.3362   0.4134     C
N       0.8772   0.8135   0.7949     N
H       0.8775   0.9323   0.2586     H
H       0.8811   0.5548   0.1225     H
C       0.8811   0.7871   0.8322     C
H       0.8827   0.9554   0.6387     H
N       0.8829   0.4037    0.571     N
N       0.8866    0.395   0.4338     N
N       0.8867   0.8734   0.3255     N
C       0.8925   0.8371   0.3458     C
H       0.8936     0.33    0.547     H
C        0.895   0.3308   0.9174     C
N        0.895   0.3866   0.9338     N
H       0.8952   0.5709   0.9993     H
H       0.8959   0.0007   0.5716     H
H       0.9027   0.6629   0.1704     H
H        0.903   0.0777   0.4857     H
N       0.9037   0.3829    0.071     N
C        0.906   0.9511   0.6189     C
H        0.908   0.3253   0.4223     H
C       0.9087   0.3289   0.0562     C
C       0.9134    0.877   0.8362     C
C       0.9134   0.9776   0.5826     C
H       0.9173    0.592   0.5143     H
C       0.9174   0.8308    0.895     C
N       0.9177   0.1228   0.4363     N
C       0.9202   0.5913   0.1475     C
H       0.9223    0.908   0.8253     H
C       0.9228   0.0866   0.4636     C
H       0.9273   0.6833   0.0446     H
H       0.9284   0.8243   0.9291     H
N        0.929   0.8119   0.3327     N
H       0.9291   0.3243   0.9284     H
H       0.9323   0.7586   0.3775     H
C       0.9326   0.6504   0.1724     C
N       0.9338   0.8866    0.895     N
C       0.9358    0.605   0.0224     C
N       0.9363   0.9177   0.6228     N
H       0.9364   0.6064   0.6534     H
Cu     0.93643  0.73571  0.55982    Cu
N       0.9388   0.4867   0.1133     N
Cu     0.94018  0.87661  0.67589    Cu
N       0.9411   0.4953   0.9854     N
C       0.9438   0.7727   0.3525     C
C       0.9446   0.4533   0.6075     C
H       0.9452   0.3263   0.0677     H
N       0.9458   0.5047   0.4901     N
C       0.9459   0.4476   0.4709     C
C       0.9476   0.4459   0.9709     C
C       0.9511   0.1189    0.406     C
N       0.9521   0.5133   0.6266     N
N       0.9528   0.9612   0.5662     N
H        0.953   0.8466    0.283     H
C       0.9533   0.4446   0.1075     C
C       0.9549   0.6678   0.0489     C
H       0.9554   0.1387   0.3827     H
N       0.9557   0.0146   0.5099     N
C       0.9561    0.822   0.3015     C
C       0.9592    0.623   0.5364     C
N       0.9612   0.0662   0.4528     N
C       0.9636   0.9228   0.5866     C
Cu     0.96371     0.75  0.71371    Cu
Br     0.96383  0.28187   0.4943    Br
Br     0.96953  0.78757   0.5057    Br
C       0.9709   0.9459   0.9476     C
C        0.975   0.9767   0.5291     C
C       0.9767   0.0291    0.475     C
C       0.9776   0.0826   0.4134     C
C        0.978   0.7602   0.3276     C
N       0.9792   0.5963   0.1673     N
C       0.9795   0.6341    0.678     C
S      0.97961  0.80913  0.66484     S
N       0.9814   0.6865   0.5637     N
N       0.9854   0.9953   0.9411     N
H       0.9857    0.903   0.5777     H
N       0.9867   0.4388   0.6133     N
N       0.9885   0.7938   0.2991     N
N       0.9901   0.9458   0.0047     N
C       0.9913   0.5467   0.1542     C
N       0.9916    0.605   0.0388     N
H       0.9925   0.7323   0.3296     H
Br      0.9943  0.96383  0.78187    Br
N       0.9947   0.6894   0.2009     N
N       0.9953   0.4411   0.4854     N
C       0.9983   0.5524   0.0233     C
H       0.9993   0.0709   0.8952     H
