data_I
_chemical_name_common  '/home/zhangsd/repos/MofS-CGCNN/ML/data/SSD/clean_cifs/NUGROX_clean'
_cell_length_a 26.32150
_cell_length_b 26.32150
_cell_length_c 26.32150
_cell_angle_alpha 109.47100
_cell_angle_beta  109.47100
_cell_angle_gamma 109.47100
_space_group_name_H-M_alt      'P 1'


loop_
_space_group_symop_operation_xyz
  'x, y, z' 

loop_
_atom_site_label
_atom_site_fract_x
_atom_site_fract_y
_atom_site_fract_z
_atom_site_type_symbol
N        3e-05  0.69553  0.21022     N
H       0.0005   0.1847   0.9342     H
C       0.0047   0.5578   0.5213     C
C       0.0049   0.4462   0.9831     C
N      0.00634  0.61485  0.53451     N
C       0.0069   0.1165   0.4464     C
H       0.0081   0.4104   0.9709     H
Br     0.00828  0.96774  0.29388    Br
H       0.0096   0.7388    0.829     H
C       0.0106   0.5606    0.662     C
C       0.0112   0.4505   0.1183     C
N      0.01391  0.61916  0.68753     N
N      0.01469   0.8045  0.80447     N
N      0.01595  0.70606  0.06989     N
C       0.0166   0.0531   0.9953     C
C       0.0169   0.9631   0.5218     C
C       0.0172   0.1691   0.9579     C
H       0.0183   0.4184   0.1007     H
C       0.0213   0.0047   0.0578     C
C       0.0218   0.0169   0.4631     C
H       0.0223   0.9261    0.102     H
S      0.02354  0.83144  0.18892     S
C       0.0254   0.7807   0.8409     C
C       0.0268   0.6621   0.1987     C
N      0.02817  0.10851  0.99366     N
H       0.0291   0.9395   0.5372     H
H       0.0301   0.8905   0.8228     H
Br     0.03226  0.82614  0.04054    Br
C       0.0337   0.6644   0.0685     C
N      0.03451  0.00634  0.11485     N
C       0.0348   0.9663   0.1307     C
C       0.0365   0.9787   0.4834     C
C       0.0366   0.8647   0.8379     C
C       0.0369   0.0587   0.0538     C
H       0.0372   0.0291   0.4395     H
Cu     0.03739  0.78739     0.25    Cu
H        0.039    0.115   0.4396     H
Br     0.04054  0.32614  0.03226    Br
C       0.0421   0.7112   0.5593     C
C       0.0495   0.5607   0.1678     C
C         0.05   0.4894   0.6514     C
C       0.0531   0.4953   0.5166     C
C       0.0536   0.0605   0.1701     C
C       0.0538   0.5587   0.0369     C
N      0.05394  0.98405  0.19011     N
C       0.0578   0.5047   0.0213     C
C       0.0587   0.5538   0.5369     C
C       0.0593   0.0421   0.2112     C
C       0.0602   0.7193   0.7447     C
H       0.0604   0.0994   0.1754     H
H       0.0605   0.0977   0.0896     H
C       0.0605   0.6701   0.5536     C
C       0.0606   0.5106    0.162     C
C       0.0607   0.5495   0.6678     C
Cu     0.06105    0.938  0.23857    Cu
Cu       0.062  0.80057  0.12305    Cu
C       0.0639   0.8298   0.8991     C
H       0.0649   0.3937   0.6484     H
H       0.0658   0.7505   0.5663     H
H       0.0663   0.0658   0.2505     H
H       0.0677   0.6772   0.2073     H
N      0.06837  0.88084  0.89475     N
C       0.0685   0.1644   0.0337     C
C       0.0693   0.6702   0.7341     C
N      0.06989  0.20606  0.01595     N
H       0.0739   0.6759   0.0962     H
H        0.076   0.4006    0.461     H
H       0.0797   0.9777   0.4038     H
N      0.08034  0.96549  0.47183     N
H       0.0816   0.5999   0.1823     H
H       0.0824   0.9817   0.9001     H
H       0.0835   0.8288   0.9351     H
H       0.0896   0.5977   0.0605     H
H       0.0902   0.7612   0.7708     H
C       0.0959   0.9652   0.4315     C
H       0.0962   0.1759   0.0739     H
H       0.0977   0.5896   0.5605     H
H       0.0994   0.6754   0.5604     H
H       0.0999   0.5816   0.6823     H
H       0.1007   0.9184   0.0183     H
C       0.1009   0.4307   0.6648     C
C       0.1014   0.9394     0.95     C
H        0.102   0.4261   0.0223     H
N      0.10525  0.48609  0.67362     N
H       0.1063   0.6712   0.7547     H
C       0.1071   0.9888   0.9393     C
N      0.10851  0.49366  0.52817     N
H       0.1095   0.4323   0.1396     H
C       0.1096   0.4395   0.4931     C
N      0.11485  0.50634  0.03451     N
H        0.115   0.9396    0.539     H
C       0.1165   0.9464   0.5069     C
C       0.1183   0.9505   0.0112     C
N      0.11916  0.51391  0.18753     N
Cu     0.12305  0.30057    0.062    Cu
W        0.125    0.875     0.25     W
C       0.1307   0.4663   0.0348     C
C       0.1353   0.4732   0.1719     C
N      0.13617  0.94606  0.43011     N
H       0.1396   0.9323   0.1095     H
S      0.14252  0.83462  0.31108     S
H       0.1484   0.0649   0.8937     H
C       0.1514     0.05   0.9894     C
C       0.1519   0.9407   0.4828     C
C       0.1591   0.4398   0.6845     C
C        0.162   0.0106   0.0606     C
C       0.1621   0.5268   0.6987     C
C       0.1644   0.5337   0.5685     C
C       0.1648   0.1009   0.9307     C
S      0.16538  0.97646   0.3079     S
C       0.1678   0.0607   0.0495     C
S      0.16856  0.85748   0.1921     S
C       0.1691   0.4579   0.5172     C
C       0.1701   0.5605   0.0536     C
C       0.1702   0.5693   0.2341     C
H        0.171   0.4098   0.6806     H
H       0.1712   0.6063   0.2547     H
C       0.1719   0.9732   0.1353     C
N      0.17362  0.10525  0.98609     N
Br     0.17386   0.7144  0.20612    Br
H       0.1754   0.5994   0.0604     H
H       0.1759   0.5739   0.5962     H
H       0.1772   0.5677   0.7073     H
Cu     0.17752  0.93895  0.37695    Cu
H       0.1806    0.171   0.9098     H
H       0.1823   0.0999   0.0816     H
H       0.1842   0.9337   0.4995     H
C       0.1845   0.1591   0.9398     C
H       0.1847   0.4342   0.5005     H
N      0.18753  0.01391  0.11916     N
S      0.18892  0.33144  0.02354     S
N      0.19011  0.48405  0.05394     N
S       0.1921  0.35748  0.16856     S
N       0.1955  0.49997  0.21019     N
N      0.19553  0.50003  0.71022     N
C       0.1987   0.1621   0.0268     C
Cu     0.19943  0.82248  0.26143    Cu
N      0.20606  0.51595  0.56989     N
Br     0.20612   0.2144  0.17386    Br
H       0.2073   0.1772   0.0677     H
N      0.21019  0.99997   0.1955     N
N      0.21022  0.19553    3e-05     N
C       0.2112   0.5421   0.0593     C
Cu     0.21261  0.96261     0.25    Cu
Br      0.2144  0.67386  0.70612    Br
C       0.2193   0.5602   0.2447     C
H       0.2292   0.4904   0.8194     H
C       0.2341   0.0693   0.1702     C
Cu     0.23857    0.438  0.06105    Cu
H       0.2388   0.5096    0.329     H
C       0.2447   0.0602   0.2193     C
H       0.2453   0.4165   0.8516     H
H       0.2495   0.3158   0.3153     H
Cu        0.25  0.28739  0.03739    Cu
W         0.25    0.375    0.125     W
Cu        0.25  0.46261  0.21261    Cu
H       0.2505   0.5658   0.0663     H
H       0.2547   0.1063   0.1712     H
C       0.2553   0.4746   0.8155     C
H       0.2612   0.5902   0.2708     H
Cu     0.26143  0.32248  0.19943    Cu
C       0.2659   0.4361   0.8352     C
H       0.2708   0.0902   0.2612     H
C       0.2807   0.5254   0.3409     C
Br      0.2856  0.99172  0.45946    Br
Cu     0.28739  0.53739     0.75    Cu
C       0.2888   0.3481   0.3309     C
N      0.28978  0.28981  0.98531     N
N      0.28981  0.48531  0.78978     N
H       0.2927   0.3604   0.9699     H
Br     0.29388  0.46774  0.00828    Br
N      0.29394  0.86383  0.30989     N
Cu     0.30057    0.562  0.62305    Cu
C       0.3013   0.3281   0.9634     C
N      0.30447  0.01469   0.3045     N
N       0.3045  0.51469  0.30447     N
S       0.3079  0.47646  0.16538     S
N      0.30989  0.36383  0.29394     N
S      0.31108  0.33462  0.14252     S
N      0.31247  0.43163  0.82638     N
H       0.3153   0.8158   0.2495     H
C       0.3155   0.2553   0.9746     C
H       0.3158   0.8153   0.7495     H
H       0.3177   0.3993   0.9176     H
H       0.3194   0.2292   0.9904     H
Cu     0.32248  0.69943  0.76143    Cu
H       0.3228   0.0301   0.3905     H
H       0.3241   0.9203    0.398     H
H       0.3246    0.385    0.424     H
Br     0.32614  0.53226  0.54054    Br
N      0.32638  0.31247  0.93163     N
C       0.3281   0.4634   0.8013     C
H       0.3288   0.5835   0.4351     H
H        0.329   0.0096   0.2388     H
C       0.3298   0.5639   0.3991     C
C       0.3299   0.3835   0.3904     C
C       0.3309   0.8481   0.2888     C
S      0.33144  0.52354  0.68892     S
C       0.3322   0.3817   0.8929     C
S      0.33462  0.64252  0.81108     S
C       0.3352   0.2659   0.9361     C
C       0.3356   0.9041   0.3693     C
C       0.3379   0.0366   0.3647     C
C        0.338   0.3986   0.8486     C
C       0.3409   0.0254   0.2807     C
C       0.3481   0.8309   0.7888     C
C       0.3486    0.338   0.8986     C
H       0.3516   0.2453   0.9165     H
S      0.35748  0.66856   0.6921     S
H       0.3604   0.4699   0.7927     H
N      0.36383  0.79394  0.80989     N
C       0.3647   0.5366   0.3379     C
C       0.3693   0.4041   0.3356     C
W        0.375    0.625     0.75     W
Cu     0.37695  0.43895  0.17752    Cu
N      0.38084  0.56837  0.39475     N
C       0.3817   0.3929   0.8322     C
C       0.3835   0.8904   0.8299     C
H        0.385    0.924   0.8246     H
N      0.38515  0.41966  0.39149     N
C       0.3904   0.8835   0.3299     C
H       0.3905   0.5301   0.3228     H
N      0.39149  0.91966  0.38515     N
C       0.3929   0.3322   0.8817     C
H       0.3937   0.1484   0.5649     H
N      0.39475  0.06837  0.38084     N
H        0.398   0.4203   0.3241     H
C       0.3986   0.3486    0.838     C
C       0.3991   0.0639   0.3298     C
H       0.3993   0.4176   0.8177     H
H       0.4001   0.0824   0.4817     H
H       0.4006    0.961    0.576     H
H       0.4023   0.9628   0.4919     H
H       0.4038   0.4777   0.0797     H
C       0.4041   0.8356   0.8693     C
H       0.4098   0.1806    0.671     H
H       0.4104   0.4709   0.5081     H
H       0.4165   0.3516   0.7453     H
H       0.4176   0.3177   0.8993     H
H       0.4184   0.6007   0.5183     H
N      0.41966  0.89149  0.88515     N
H       0.4203   0.8241    0.898     H
H        0.424    0.885   0.3246     H
H       0.4261   0.5223    0.602     H
N      0.43011  0.44606  0.13617     N
C       0.4307   0.1648   0.6009     C
C       0.4315   0.4652   0.0959     C
N      0.43163  0.32638  0.81247     N
H       0.4323   0.6396   0.6095     H
H       0.4337   0.6842   0.9995     H
H       0.4342   0.0005   0.6847     H
H       0.4351   0.0835   0.3288     H
C       0.4361   0.3352   0.7659     C
Cu       0.438  0.56105  0.73857    Cu
Cu     0.43895  0.67752  0.87695    Cu
C       0.4393   0.1071   0.4888     C
C       0.4394   0.6014     0.45     C
H       0.4395   0.5291   0.0372     H
C       0.4395   0.9931   0.6096     C
H       0.4396    0.615    0.039     H
C       0.4398   0.1845   0.6591     C
C       0.4407   0.6519   0.9828     C
C       0.4413   0.9782   0.4951     C
C       0.4422   0.4635   0.4469     C
N      0.44606  0.63617  0.93011     N
C       0.4462   0.4831   0.5049     C
C       0.4464   0.6165   0.0069     C
C       0.4469   0.9635   0.4422     C
C         0.45   0.1014   0.4394     C
C       0.4505   0.6183   0.5112     C
C       0.4579   0.0172   0.6691     C
Br     0.45946  0.49172   0.2856    Br
H        0.461   0.9006    0.076     H
Cu     0.46261  0.71261     0.75    Cu
H       0.4628   0.9023   0.9919     H
C       0.4631   0.5169   0.0218     C
C       0.4634   0.3013   0.8281     C
C       0.4635   0.9469   0.9422     C
C       0.4652   0.5959   0.9315     C
N      0.46549  0.58034  0.97183     N
C       0.4663   0.5348   0.6307     C
Br     0.46774  0.50828  0.79388    Br
H       0.4699   0.2927   0.8604     H
H       0.4709   0.0081   0.9104     H
N      0.47183  0.46549  0.08034     N
C       0.4732   0.6719   0.6353     C
C       0.4746   0.3155   0.7553     C
S      0.47646  0.66538   0.8079     S
H       0.4777   0.5797   0.9038     H
C       0.4782   0.9413   0.9951     C
C       0.4787   0.5365   0.9834     C
H       0.4817   0.5824   0.4001     H
C       0.4828   0.4407   0.1519     C
C       0.4831   0.0049   0.9462     C
C       0.4834   0.4787   0.0365     C
N      0.48405  0.55394  0.69011     N
N      0.48531  0.28978  0.78981     N
N      0.48609  0.17362  0.60525     N
C       0.4888   0.6071   0.4393     C
C       0.4894   0.1514     0.55     C
H       0.4904   0.3194   0.7292     H
Br     0.49172   0.7856  0.95946    Br
H       0.4919   0.4628   0.4023     H
C       0.4931   0.9395   0.1096     C
N      0.49366  0.02817  0.60851     N
C       0.4951   0.4782   0.4413     C
C       0.4953   0.0166   0.5531     C
H       0.4995   0.4337   0.1842     H
N      0.49997  0.71019   0.6955     N
N      0.50003  0.21022  0.69553     N
H       0.5005   0.9342   0.1847     H
C       0.5047   0.5213   0.5578     C
C       0.5049   0.9831   0.4462     C
N      0.50634  0.53451  0.61485     N
C       0.5069   0.4464   0.1165     C
H       0.5081   0.9709   0.4104     H
Br     0.50828  0.29388  0.96774    Br
H       0.5096    0.829   0.7388     H
C       0.5106    0.662   0.5606     C
C       0.5112   0.1183   0.4505     C
N      0.51391  0.68753  0.61916     N
N      0.51469  0.80447   0.8045     N
N      0.51595  0.06989  0.70606     N
C       0.5166   0.9953   0.0531     C
C       0.5169   0.5218   0.9631     C
C       0.5172   0.9579   0.1691     C
H       0.5183   0.1007   0.4184     H
C       0.5213   0.0578   0.0047     C
C       0.5218   0.4631   0.0169     C
H       0.5223    0.102   0.9261     H
S      0.52354  0.18892  0.83144     S
C       0.5254   0.8409   0.7807     C
C       0.5268   0.1987   0.6621     C
N      0.52817  0.99366  0.10851     N
H       0.5291   0.5372   0.9395     H
H       0.5301   0.8228   0.8905     H
Br     0.53226  0.04054  0.82614    Br
C       0.5337   0.0685   0.6644     C
N      0.53451  0.11485  0.00634     N
C       0.5348   0.1307   0.9663     C
C       0.5365   0.4834   0.9787     C
C       0.5366   0.8379   0.8647     C
C       0.5369   0.0538   0.0587     C
H       0.5372   0.4395   0.0291     H
Cu     0.53739     0.25  0.78739    Cu
H        0.539   0.4396    0.115     H
Br     0.54054  0.03226  0.32614    Br
C       0.5421   0.5593   0.7112     C
C       0.5495   0.1678   0.5607     C
C         0.55   0.6514   0.4894     C
C       0.5531   0.5166   0.4953     C
C       0.5536   0.1701   0.0605     C
C       0.5538   0.0369   0.5587     C
N      0.55394  0.19011  0.98405     N
C       0.5578   0.0213   0.5047     C
C       0.5587   0.5369   0.5538     C
C       0.5593   0.2112   0.0421     C
C       0.5602   0.7447   0.7193     C
H       0.5604   0.1754   0.0994     H
H       0.5605   0.0896   0.0977     H
C       0.5605   0.5536   0.6701     C
C       0.5606    0.162   0.5106     C
C       0.5607   0.6678   0.5495     C
Cu     0.56105  0.23857    0.938    Cu
Cu       0.562  0.12305  0.80057    Cu
C       0.5639   0.8991   0.8298     C
H       0.5649   0.6484   0.3937     H
H       0.5658   0.5663   0.7505     H
H       0.5663   0.2505   0.0658     H
H       0.5677   0.2073   0.6772     H
N      0.56837  0.89475  0.88084     N
C       0.5685   0.0337   0.1644     C
C       0.5693   0.7341   0.6702     C
N      0.56989  0.01595  0.20606     N
H       0.5739   0.0962   0.6759     H
H        0.576    0.461   0.4006     H
H       0.5797   0.4038   0.9777     H
N      0.58034  0.47183  0.96549     N
H       0.5816   0.1823   0.5999     H
H       0.5824   0.9001   0.9817     H
H       0.5835   0.9351   0.8288     H
H       0.5896   0.0605   0.5977     H
H       0.5902   0.7708   0.7612     H
C       0.5959   0.4315   0.9652     C
H       0.5962   0.0739   0.1759     H
H       0.5977   0.5605   0.5896     H
H       0.5994   0.5604   0.6754     H
H       0.5999   0.6823   0.5816     H
H       0.6007   0.0183   0.9184     H
C       0.6009   0.6648   0.4307     C
C       0.6014     0.95   0.9394     C
H        0.602   0.0223   0.4261     H
N      0.60525  0.67362  0.48609     N
H       0.6063   0.7547   0.6712     H
C       0.6071   0.9393   0.9888     C
N      0.60851  0.52817  0.49366     N
H       0.6095   0.1396   0.4323     H
C       0.6096   0.4931   0.4395     C
N      0.61485  0.03451  0.50634     N
H        0.615    0.539   0.9396     H
C       0.6165   0.5069   0.9464     C
C       0.6183   0.0112   0.9505     C
N      0.61916  0.18753  0.51391     N
Cu     0.62305    0.062  0.30057    Cu
W        0.625     0.25    0.875     W
C       0.6307   0.0348   0.4663     C
C       0.6353   0.1719   0.4732     C
N      0.63617  0.43011  0.94606     N
H       0.6396   0.1095   0.9323     H
S      0.64252  0.31108  0.83462     S
H       0.6484   0.8937   0.0649     H
C       0.6514   0.9894     0.05     C
C       0.6519   0.4828   0.9407     C
C       0.6591   0.6845   0.4398     C
C        0.662   0.0606   0.0106     C
C       0.6621   0.6987   0.5268     C
C       0.6644   0.5685   0.5337     C
C       0.6648   0.9307   0.1009     C
S      0.66538   0.3079  0.97646     S
C       0.6678   0.0495   0.0607     C
S      0.66856   0.1921  0.85748     S
C       0.6691   0.5172   0.4579     C
C       0.6701   0.0536   0.5605     C
C       0.6702   0.2341   0.5693     C
H        0.671   0.6806   0.4098     H
H       0.6712   0.2547   0.6063     H
C       0.6719   0.1353   0.9732     C
N      0.67362  0.98609  0.10525     N
Br     0.67386  0.20612   0.7144    Br
H       0.6754   0.0604   0.5994     H
H       0.6759   0.5962   0.5739     H
H       0.6772   0.7073   0.5677     H
Cu     0.67752  0.37695  0.93895    Cu
H       0.6806   0.9098    0.171     H
H       0.6823   0.0816   0.0999     H
H       0.6842   0.4995   0.9337     H
C       0.6845   0.9398   0.1591     C
H       0.6847   0.5005   0.4342     H
N      0.68753  0.11916  0.01391     N
S      0.68892  0.02354  0.33144     S
N      0.69011  0.05394  0.48405     N
S       0.6921  0.16856  0.35748     S
N       0.6955  0.21019  0.49997     N
N      0.69553  0.71022  0.50003     N
C       0.6987   0.0268   0.1621     C
Cu     0.69943  0.26143  0.82248    Cu
N      0.70606  0.56989  0.51595     N
Br     0.70612  0.17386   0.2144    Br
H       0.7073   0.0677   0.1772     H
N      0.71019   0.1955  0.99997     N
N      0.71022    3e-05  0.19553     N
C       0.7112   0.0593   0.5421     C
Cu     0.71261     0.25  0.96261    Cu
Br      0.7144  0.70612  0.67386    Br
C       0.7193   0.2447   0.5602     C
H       0.7292   0.8194   0.4904     H
C       0.7341   0.1702   0.0693     C
Cu     0.73857  0.06105    0.438    Cu
H       0.7388    0.329   0.5096     H
C       0.7447   0.2193   0.0602     C
H       0.7453   0.8516   0.4165     H
H       0.7495   0.3153   0.3158     H
Cu        0.75  0.03739  0.28739    Cu
W         0.75    0.125    0.375     W
Cu        0.75  0.21261  0.46261    Cu
H       0.7505   0.0663   0.5658     H
H       0.7547   0.1712   0.1063     H
C       0.7553   0.8155   0.4746     C
H       0.7612   0.2708   0.5902     H
Cu     0.76143  0.19943  0.32248    Cu
C       0.7659   0.8352   0.4361     C
H       0.7708   0.2612   0.0902     H
C       0.7807   0.3409   0.5254     C
Br      0.7856  0.45946  0.99172    Br
Cu     0.78739     0.75  0.53739    Cu
C       0.7888   0.3309   0.3481     C
N      0.78978  0.98531  0.28981     N
N      0.78981  0.78978  0.48531     N
H       0.7927   0.9699   0.3604     H
Br     0.79388  0.00828  0.46774    Br
N      0.79394  0.30989  0.86383     N
Cu     0.80057  0.62305    0.562    Cu
C       0.8013   0.9634   0.3281     C
N      0.80447   0.3045  0.01469     N
N       0.8045  0.30447  0.51469     N
S       0.8079  0.16538  0.47646     S
N      0.80989  0.29394  0.36383     N
S      0.81108  0.14252  0.33462     S
N      0.81247  0.82638  0.43163     N
H       0.8153   0.2495   0.8158     H
C       0.8155   0.9746   0.2553     C
H       0.8158   0.7495   0.8153     H
H       0.8177   0.9176   0.3993     H
H       0.8194   0.9904   0.2292     H
Cu     0.82248  0.76143  0.69943    Cu
H       0.8228   0.3905   0.0301     H
H       0.8241    0.398   0.9203     H
H       0.8246    0.424    0.385     H
Br     0.82614  0.54054  0.53226    Br
N      0.82638  0.93163  0.31247     N
C       0.8281   0.8013   0.4634     C
H       0.8288   0.4351   0.5835     H
H        0.829   0.2388   0.0096     H
C       0.8298   0.3991   0.5639     C
C       0.8299   0.3904   0.3835     C
C       0.8309   0.2888   0.8481     C
S      0.83144  0.68892  0.52354     S
C       0.8322   0.8929   0.3817     C
S      0.83462  0.81108  0.64252     S
C       0.8352   0.9361   0.2659     C
C       0.8356   0.3693   0.9041     C
C       0.8379   0.3647   0.0366     C
C        0.838   0.8486   0.3986     C
C       0.8409   0.2807   0.0254     C
C       0.8481   0.7888   0.8309     C
C       0.8486   0.8986    0.338     C
H       0.8516   0.9165   0.2453     H
S      0.85748   0.6921  0.66856     S
H       0.8604   0.7927   0.4699     H
N      0.86383  0.80989  0.79394     N
C       0.8647   0.3379   0.5366     C
C       0.8693   0.3356   0.4041     C
W        0.875     0.75    0.625     W
Cu     0.87695  0.17752  0.43895    Cu
N      0.88084  0.39475  0.56837     N
C       0.8817   0.8322   0.3929     C
C       0.8835   0.8299   0.8904     C
H        0.885   0.8246    0.924     H
N      0.88515  0.39149  0.41966     N
C       0.8904   0.3299   0.8835     C
H       0.8905   0.3228   0.5301     H
N      0.89149  0.38515  0.91966     N
C       0.8929   0.8817   0.3322     C
H       0.8937   0.5649   0.1484     H
N      0.89475  0.38084  0.06837     N
H        0.898   0.3241   0.4203     H
C       0.8986    0.838   0.3486     C
C       0.8991   0.3298   0.0639     C
H       0.8993   0.8177   0.4176     H
H       0.9001   0.4817   0.0824     H
H       0.9006    0.576    0.961     H
H       0.9023   0.4919   0.9628     H
H       0.9038   0.0797   0.4777     H
C       0.9041   0.8693   0.8356     C
H       0.9098    0.671   0.1806     H
H       0.9104   0.5081   0.4709     H
H       0.9165   0.7453   0.3516     H
H       0.9176   0.8993   0.3177     H
H       0.9184   0.5183   0.6007     H
N      0.91966  0.88515  0.89149     N
H       0.9203    0.898   0.8241     H
H        0.924   0.3246    0.885     H
H       0.9261    0.602   0.5223     H
N      0.93011  0.13617  0.44606     N
C       0.9307   0.6009   0.1648     C
C       0.9315   0.0959   0.4652     C
N      0.93163  0.81247  0.32638     N
H       0.9323   0.6095   0.6396     H
H       0.9337   0.9995   0.6842     H
H       0.9342   0.6847   0.0005     H
H       0.9351   0.3288   0.0835     H
C       0.9361   0.7659   0.3352     C
Cu       0.938  0.73857  0.56105    Cu
Cu     0.93895  0.87695  0.67752    Cu
C       0.9393   0.4888   0.1071     C
C       0.9394     0.45   0.6014     C
H       0.9395   0.0372   0.5291     H
C       0.9395   0.6096   0.9931     C
H       0.9396    0.039    0.615     H
C       0.9398   0.6591   0.1845     C
C       0.9407   0.9828   0.6519     C
C       0.9413   0.4951   0.9782     C
C       0.9422   0.4469   0.4635     C
N      0.94606  0.93011  0.63617     N
C       0.9462   0.5049   0.4831     C
C       0.9464   0.0069   0.6165     C
C       0.9469   0.4422   0.9635     C
C         0.95   0.4394   0.1014     C
C       0.9505   0.5112   0.6183     C
C       0.9579   0.6691   0.0172     C
Br     0.95946   0.2856  0.49172    Br
H        0.961    0.076   0.9006     H
Cu     0.96261     0.75  0.71261    Cu
H       0.9628   0.9919   0.9023     H
C       0.9631   0.0218   0.5169     C
C       0.9634   0.8281   0.3013     C
C       0.9635   0.9422   0.9469     C
C       0.9652   0.9315   0.5959     C
N      0.96549  0.97183  0.58034     N
C       0.9663   0.6307   0.5348     C
Br     0.96774  0.79388  0.50828    Br
H       0.9699   0.8604   0.2927     H
H       0.9709   0.9104   0.0081     H
N      0.97183  0.08034  0.46549     N
C       0.9732   0.6353   0.6719     C
C       0.9746   0.7553   0.3155     C
S      0.97646   0.8079  0.66538     S
H       0.9777   0.9038   0.5797     H
C       0.9782   0.9951   0.9413     C
C       0.9787   0.9834   0.5365     C
H       0.9817   0.4001   0.5824     H
C       0.9828   0.1519   0.4407     C
C       0.9831   0.9462   0.0049     C
C       0.9834   0.0365   0.4787     C
N      0.98405  0.69011  0.55394     N
N      0.98531  0.78981  0.28978     N
N      0.98609  0.60525  0.17362     N
C       0.9888   0.4393   0.6071     C
C       0.9894     0.55   0.1514     C
H       0.9904   0.7292   0.3194     H
Br     0.99172  0.95946   0.7856    Br
H       0.9919   0.4023   0.4628     H
C       0.9931   0.1096   0.9395     C
N      0.99366  0.60851  0.02817     N
C       0.9951   0.4413   0.4782     C
C       0.9953   0.5531   0.0166     C
H       0.9995   0.1842   0.4337     H
N      0.99997   0.6955  0.71019     N
