data_I
_chemical_name_common  '/home/zhangsd/repos/MofS-CGCNN/ML/data/SSD/clean_cifs/NUXMAU_clean'
_cell_length_a  4.32760
_cell_length_b 17.31810
_cell_length_c  6.76240
_cell_angle_alpha 90.00000
_cell_angle_beta  90.00000
_cell_angle_gamma 90.00000
_space_group_name_H-M_alt      'P 1'


loop_
_space_group_symop_operation_xyz
  'x, y, z' 

loop_
_atom_site_label
_atom_site_fract_x
_atom_site_fract_y
_atom_site_fract_z
_atom_site_type_symbol
Cu       0.007   0.2433   0.7253    Cu
Cu       0.007   0.2567   0.2253    Cu
O        0.226   0.7147    0.462     O
O        0.226   0.7853    0.962     O
O        0.286   0.1627    0.807     O
O        0.286   0.3373    0.307     O
O        0.327   0.1864    0.186     O
O        0.327   0.3136    0.686     O
C        0.364   0.5629    0.541     C
C        0.364   0.9371    0.041     C
P        0.474   0.1603    0.991     P
P        0.474   0.3397    0.491     P
C          0.5      0.0    0.923     C
C          0.5      0.5    0.423     C
P        0.526   0.6603    0.491     P
P        0.526   0.8397    0.991     P
C        0.636   0.0629    0.041     C
C        0.636   0.4371    0.541     C
O        0.673   0.6864    0.686     O
O        0.673   0.8136    0.186     O
O        0.714   0.6627    0.307     O
O        0.714   0.8373    0.807     O
O        0.774   0.2147    0.962     O
O        0.774   0.2853    0.462     O
Cu       0.993   0.7433   0.2253    Cu
Cu       0.993   0.7567   0.7253    Cu
