data_I
_chemical_name_common  '/home/zhangsd/repos/MofS-CGCNN/ML/data/SSD/clean_cifs/OBUREL_clean'
_cell_length_a 21.18700
_cell_length_b 21.18700
_cell_length_c 21.90000
_cell_angle_alpha 90.00000
_cell_angle_beta  90.00000
_cell_angle_gamma 120.00000
_space_group_name_H-M_alt      'P 1'


loop_
_space_group_symop_operation_xyz
  'x, y, z' 

loop_
_atom_site_label
_atom_site_fract_x
_atom_site_fract_y
_atom_site_fract_z
_atom_site_type_symbol
C      0.00033  0.39477  0.56974     C
C       0.0028   0.4055  0.93179     C
C       0.0063   0.3492  0.89289     C
H       0.0065   0.7006   0.9763     H
C       0.0093   0.2778   0.0522     C
C      0.00957  0.32703  0.22622     C
H      0.00993  0.26117  0.50697     H
H      0.01367  0.47203  0.42433     H
C        0.014   0.2451   0.8235     C
H      0.01407  0.56443  0.28943     H
C      0.01587  0.67623  0.44044     C
H        0.016   0.2094   0.8004     H
O      0.01637  0.49013  0.38417     O
C      0.01683  0.57787  0.90814     C
C       0.0173   0.8159   0.8746     C
C      0.02013  0.30867  0.51374     C
C      0.02467  0.37813   0.1804     C
H      0.02477  0.59553  0.40023     H
C      0.02713  0.44257  0.73137     C
H      0.02743  0.66017  0.64297     H
C      0.03183  0.62737  0.85496     C
H      0.03393  0.36077  0.69037     H
C      0.03683  0.54727  0.58757     C
H      0.03723  0.52517  0.78167     H
H      0.03843  0.53137  0.62867     H
C       0.0387   0.7832   0.9167     C
C       0.0393   0.7378  0.18829     C
C       0.0448   0.6868  0.15293     C
O      0.04789  0.46734  0.08005     O
C      0.05343  0.45157  0.53576     C
C      0.05553  0.39817  0.71887     C
C       0.0559   0.2131   0.1382     C
O       0.0564  0.27251  0.29078     O
O      0.05733  0.59867  0.06189     O
C      0.05813  0.49647  0.77357     C
O      0.06082  0.45055  0.95745     O
C       0.0611    0.333  0.90307     C
C      0.06143  0.72777   0.7636     C
C       0.0648   0.2799  0.86909     C
C      0.06483  0.67597  0.61447     C
O        0.068  0.79199  0.39522     O
C      0.06937  0.33053  0.26512     C
Cu     0.07002  0.53046  0.00938    Cu
C      0.07113  0.36517  0.47838     C
H      0.07113  0.76257  0.73357     H
H       0.0716   0.1917   0.1669     H
O      0.07189   0.5859  0.93755     O
H      0.07217  0.41543  0.17363     H
C      0.07217  0.73603  0.40154     C
N      0.07322   0.5246  0.54612     N
H       0.0773   0.1561   0.8543     H
C      0.07783  0.62797  0.58337     C
H       0.0788   0.9227   0.8543     H
O      0.08077  0.81933  0.27088     O
C       0.0808   0.8785    0.848     C
O        0.081   0.9106   0.8095     O
C       0.0821   0.3062   0.0647     C
H       0.0821   0.6766   0.1597     H
H       0.0836   0.8715   0.8045     H
O      0.08612  0.28545  0.41339     O
C      0.08823  0.43557  0.49017     C
C       0.0888   0.7723  0.24147     C
O       0.0894   0.1704   0.8095     O
H       0.0959   0.3581   0.9331     H
C      0.10223  0.68067  0.84317     C
H      0.10223  0.78297  0.62277     H
C        0.105   0.2752   0.1069     C
C      0.10563  0.35017   0.4252     C
C      0.10923  0.74877  0.60197     C
H       0.1163   0.3474   0.0439     H
C      0.11653  0.41117  0.74997     C
O      0.11722  0.72306  0.37588     O
N      0.11804  0.26011  0.87945     N
C      0.11823  0.73147  0.79758     C
C       0.1194   0.8229   0.9209     C
H       0.1201   0.9284   0.1669     H
C      0.12023  0.50947  0.80487     C
H      0.12123  0.58307  0.47117     H
C       0.1215   0.2023    0.848     C
H      0.12393  0.47327  0.46707     H
H      0.12503  0.31967  0.75767     H
O      0.12533  0.39066  0.27144     O
Cu     0.12711  0.26331  0.34271    Cu
H       0.1285   0.2121   0.8045     H
C      0.13103  0.58587  0.51467     C
C      0.13193  0.64937  0.54127     C
O      0.13401  0.75279  0.25328     O
H       0.1353   0.8404    0.962     H
Cu     0.13621  0.87289  0.34271    Cu
H       0.1387   0.7917    0.909     H
H      0.13993  0.68267  0.86627     H
O      0.14043  0.31697  0.71751     O
H       0.1415   0.8454    0.115     H
H      0.14163  0.54657  0.83357     H
N      0.14207  0.88196  0.87945     N
C      0.14923  0.46527  0.79207     C
O      0.15266  0.40523  0.39579     O
H       0.1546   0.2961    0.115     H
H       0.1561   0.0788   0.1457     H
C      0.15623  0.37017  0.74577     C
O       0.1568   0.8071  0.94916     O
C       0.1572   0.9441   0.1382     C
H       0.1596   0.2949    0.962     H
O      0.16293  0.58567  0.47617     O
C      0.16313  0.77167  0.55977     C
C       0.1702    0.895   0.1069     C
O       0.1704    0.081   0.1905     O
H      0.17373  0.37177  0.70467     H
C      0.17613  0.72257  0.52847     C
O      0.17653  0.85957  0.71751     O
C       0.1771   0.2965   0.9209     C
H      0.17723  0.58787  0.52097     H
H      0.17873  0.37057  0.55167     H
O      0.18067  0.26144  0.27088     O
C       0.1841   0.2014   0.8746     C
N      0.19126  0.78471  0.78722     N
H       0.1917   0.1201   0.8331     H
H      0.19183  0.82127  0.55167     H
O       0.1929   0.3497  0.94916     O
H       0.1934    0.984   0.8004     H
H      0.19463  0.87497  0.75767     H
Cu     0.19713  0.79377  0.32395    Cu
H      0.19803  0.82627  0.70467     H
O      0.19932  0.91388  0.41339     O
C       0.2014   0.0173   0.1254     C
C       0.2023   0.0808    0.152     C
H      0.20483  0.45457  0.86217     H
Cu     0.20623  0.40335  0.32395    Cu
O      0.20801    0.276  0.39522     O
H       0.2083    0.347    0.909     H
H       0.2094   0.1934   0.1996     H
C      0.21183  0.46437  0.81867     C
H       0.2121   0.0836   0.1955     H
C       0.2131   0.1572   0.8618     C
H      0.21323  0.73827  0.49977     H
C      0.21393  0.84377  0.74577     C
C       0.2151   0.9352  0.86909     C
N      0.21529  0.40656  0.78722     N
O      0.21612   0.9436  0.29078     O
C       0.2168   0.2555   0.9167     C
H      0.21703  0.31927  0.62277     H
C       0.2241   0.9179   0.0647     C
C       0.2277   0.3165  0.24147     C
C      0.22833  0.39147  0.55977     C
H       0.2311   0.8837   0.0439     H
C       0.2311    0.986   0.8235     C
H      0.23743  0.30857  0.73357     H
O      0.24393  0.49627  0.85717     O
C      0.24453  0.89437   0.4252     C
C       0.2451   0.2311   0.1765     C
O      0.24721  0.38122  0.25328     O
H      0.24973  0.79517  0.86217     H
C      0.25123  0.36047  0.60197     C
H      0.25123  0.99007  0.50697     H
O      0.25233  0.75607  0.85717     O
C      0.25253  0.78817  0.81867     C
O      0.25256  0.84734  0.39579     O
H      0.25453  0.74397  0.81237     H
C       0.2555   0.0387   0.0833     C
H      0.25603  0.51057  0.81237     H
N      0.26011  0.14207  0.12055     N
H      0.26117  0.25123  0.49303     H
C      0.26117  0.93063  0.26512     C
O      0.26144  0.08077  0.72912     O
H      0.26173  0.47497  0.49977     H
C       0.2622   0.3015  0.18829     C
H       0.2622   0.9041   0.9331     H
Cu     0.26331  0.13621  0.65729    Cu
C      0.26397  0.33613  0.40154     C
O      0.26534  0.87467  0.27144     O
C       0.2685   0.9907   0.0522     C
C      0.26853  0.38677  0.79758     C
C       0.2719   0.9389  0.90307     C
C      0.27223  0.33367   0.7636     C
O      0.27251  0.21612  0.70922     O
C       0.2752   0.1702   0.8931     C
O        0.276    0.068  0.60478     O
O      0.27694  0.39415  0.37588     O
C      0.27743  0.45357  0.52847     C
C       0.2778   0.2685   0.9478     C
C       0.2799   0.2151  0.13091     C
O      0.28545  0.19932  0.58661     O
C      0.28853  0.97987  0.51374     C
C      0.29403  0.92887  0.47838     C
C      0.29463  0.88347  0.74997     C
H       0.2949   0.1353    0.038     H
H       0.2961   0.1415    0.885     H
C       0.2965   0.1194   0.0791     C
H       0.2994   0.3059   0.9763     H
C       0.3015   0.0393  0.81171     C
H       0.3059   0.0065   0.0237     H
C       0.3062   0.2241   0.9353     C
H      0.30857  0.07113  0.26643     H
C      0.30867  0.28853  0.48626     C
C       0.3132    0.358  0.15293     C
C      0.31603  0.85077  0.79207     C
C       0.3165   0.0888  0.75853     C
O      0.31697  0.17653  0.28249     O
H      0.31733  0.45727  0.86627     H
C      0.31747  0.99043  0.22622     C
H      0.31927  0.10223  0.37723     H
C      0.31933  0.42157  0.84317     C
H      0.31967  0.19463  0.24233     H
H       0.3234   0.4055   0.1597     H
C      0.32377  0.33963  0.44044     C
C      0.32403  0.38887  0.61447     C
H      0.32683  0.96607  0.69037     H
C      0.32703  0.31747  0.77378     C
C      0.33053  0.26117  0.73488     C
C        0.333   0.2719  0.09693     C
C      0.33367  0.06143   0.2364     C
C      0.33613  0.07217  0.59846     C
C      0.33963  0.01587  0.55956     C
H      0.33983  0.36727  0.64297     H
C      0.34263  0.94447  0.71887     C
C       0.3429   0.9937  0.89289     C
H      0.34327  0.92783  0.17363     H
H        0.347   0.1387    0.091     H
C      0.34733  0.91177  0.49017     C
H       0.3474   0.2311   0.9561     H
C       0.3492   0.3429  0.10711     C
H      0.34933  0.87607  0.46707     H
O       0.3497   0.1568  0.05084     O
C      0.35017  0.24453   0.5748     C
C      0.35063  0.48257  0.54127     C
C      0.35347  0.97533   0.1804     C
C        0.358   0.0448  0.84707     C
H       0.3581   0.2622   0.0669     H
C      0.36047  0.10923  0.39803     C
H      0.36077  0.32683  0.30963     H
C      0.36517  0.29403  0.52162     C
H      0.36727  0.02743  0.35703     H
C      0.37017  0.21393  0.25423     C
H      0.37057  0.19183  0.44833     H
H      0.37177  0.19803  0.29533     H
C      0.37203  0.44987  0.58337     C
C      0.37263  0.40447  0.85496     C
C      0.37813  0.35347   0.8196     C
O      0.38122  0.13401  0.74672     O
C      0.38677  0.11823  0.20242     C
C      0.38887  0.06483  0.38553     C
C      0.38923  0.87977  0.80487     C
O      0.38973  0.93918  0.95745     O
O      0.39066  0.26534  0.72856     O
C      0.39147  0.16313  0.44023     C
O      0.39415  0.11722  0.62412     O
C      0.39443  0.99967  0.56974     C
C      0.39477  0.39443  0.43026     C
C      0.39813  0.94657  0.53576     C
C      0.39817  0.34263  0.28113     C
O      0.40133  0.45866  0.06189     O
C       0.4027   0.9972  0.93179     C
Cu     0.40335  0.19713  0.67605    Cu
C      0.40447  0.03183  0.14504     C
H      0.40447  0.42923  0.40023     H
H      0.40493  0.85837  0.83357     H
O      0.40523  0.25256  0.60421     O
H       0.4055   0.0821   0.8403     H
C       0.4055   0.4027  0.06821     C
N      0.40656  0.19126  0.21278     N
H      0.41063  0.82277  0.52097     H
C      0.41117  0.29463  0.25003     C
H      0.41213  0.58937  0.52097     H
O       0.4141    0.486  0.93755     O
C      0.41413  0.54517  0.51467     C
O      0.41433  0.57727  0.47617     O
H      0.41543  0.34327  0.82637     H
C      0.41543  0.97287  0.73137     C
H      0.41693  0.53817  0.47117     H
O      0.41946  0.95211  0.08005     O
C      0.42157  0.10223  0.15683     C
C      0.42213  0.43897  0.90814     C
O      0.42273  0.83707  0.47617     O
H      0.42923  0.02477  0.59977     H
C      0.43557  0.34733  0.50983     C
H      0.43557  0.44963  0.28943     H
C      0.43833  0.94187  0.77357     C
C      0.43897  0.01683  0.09186     C
C      0.44257  0.41543  0.26863     C
H      0.44963  0.01407  0.71057     H
C      0.44987  0.07783  0.41663     C
O      0.45055  0.38973  0.04255     O
N      0.45137  0.92678  0.54612     N
C      0.45157  0.39813  0.46424     C
C      0.45273  0.48957  0.58757     C
H      0.45343  0.59507  0.83357     H
C      0.45357  0.17613  0.47153     C
H      0.45457  0.24973  0.13783     H
C      0.45483  0.86897  0.51467     C
H      0.45727  0.13993  0.13373     H
H      0.45837  0.98633  0.42433     H
O      0.45866  0.05733  0.93811     O
Cu     0.46044  0.92998  0.00938    Cu
H      0.46183  0.87877  0.47117     H
C      0.46437  0.25253  0.18133     C
C      0.46527  0.31603  0.20793     C
O      0.46734  0.41946  0.91995     O
H      0.46863  0.50707  0.62867     H
Cu     0.46954  0.53956  0.00938    Cu
H      0.47203  0.45837  0.57567     H
H      0.47327  0.34933  0.53293     H
O      0.47377  0.98363  0.38417     O
H      0.47483  0.51207  0.78167     H
H      0.47497  0.21323  0.50023     H
N       0.4754  0.54863  0.54612     N
C      0.48257  0.13193  0.45873     C
O        0.486  0.07189  0.06245     O
H      0.48793  0.96277  0.78167     H
H      0.48943  0.74547  0.81237     H
C      0.48957  0.03683  0.41243     C
O      0.49013  0.47377  0.61583     O
C      0.49053  0.61077  0.80487     C
H      0.49293  0.96157  0.62867     H
O      0.49627  0.25233  0.14283     O
C      0.49647  0.43833  0.22643     C
C      0.50353  0.56167  0.77357     C
O      0.50373  0.74767  0.85717     O
H      0.50707  0.03843  0.37133     H
C      0.50947  0.38923  0.19513     C
O      0.50987  0.52623  0.38417     O
C      0.51043  0.96317  0.58757     C
H      0.51057  0.25453  0.18763     H
H      0.51207  0.03723  0.21833     H
O        0.514  0.92811  0.93755     O
C      0.51743  0.86807  0.54127     C
N       0.5246  0.45137  0.45388     N
H      0.52503  0.78677  0.49977     H
H      0.52517  0.48793  0.21833     H
O      0.52623  0.01637  0.61583     O
H      0.52673  0.65067  0.46707     H
H      0.52797  0.54163  0.42433     H
Cu     0.53046  0.46044  0.99062    Cu
H      0.53137  0.49293  0.37133     H
O      0.53266  0.58054  0.08005     O
C      0.53473  0.68397  0.79207     C
C      0.53563  0.74747  0.81867     C
H      0.53817  0.12123  0.52883     H
Cu     0.53956  0.07002  0.99062    Cu
O      0.54134  0.94267  0.06189     O
H      0.54163  0.01367  0.57567     H
H      0.54273  0.86007  0.86627     H
C      0.54517  0.13103  0.48533     C
H      0.54543  0.75027  0.86217     H
C      0.54643  0.82387  0.52847     C
H      0.54657  0.40493  0.16643     H
C      0.54727  0.51043  0.41243     C
C      0.54843  0.60187  0.53576     C
N      0.54863  0.07322  0.45388     N
O      0.54945  0.61027  0.95745     O
C      0.55013  0.92217  0.58337     C
H      0.55037  0.98593  0.28943     H
C      0.55743  0.58457  0.73137     C
C      0.56103  0.98317  0.90814     C
C      0.56167  0.05813  0.22643     C
H      0.56443  0.55037  0.71057     H
C      0.56443  0.65267  0.49017     C
H      0.57077  0.97523  0.40023     H
O      0.57727  0.16293  0.52383     O
C      0.57787  0.56103  0.09186     C
C      0.57843  0.89777  0.84317     C
O      0.58054  0.04789  0.91995     O
H      0.58307  0.46183  0.52883     H
C      0.58457  0.02713  0.26863     C
H      0.58457  0.65673  0.17363     H
O      0.58567  0.42273  0.52383     O
C      0.58587  0.45483  0.48533     C
O       0.5859    0.514  0.06245     O
H      0.58787  0.41063  0.47903     H
C      0.58883  0.70537  0.74997     C
H      0.58937  0.17723  0.47903     H
N      0.59344  0.80874  0.78722     N
C       0.5945   0.5973  0.93179     C
H       0.5945   0.9179   0.1597     H
O      0.59477  0.74744  0.39579     O
H      0.59507  0.14163  0.16643     H
H      0.59553  0.57077  0.59977     H
C      0.59553  0.96817  0.85496     C
Cu     0.59665  0.80287  0.32395    Cu
C       0.5973   0.0028  0.06821     C
O      0.59867  0.54134  0.93811     O
C      0.60183  0.65737  0.71887     C
C      0.60187  0.05343  0.46424     C
C      0.60523  0.60557  0.56974     C
C      0.60557  0.00033  0.43026     C
O      0.60585  0.88278  0.37588     O
C      0.60853  0.83687  0.55977     C
O      0.60934  0.73466  0.27144     O
O      0.61027  0.06082  0.04255     O
C      0.61077  0.12023  0.19513     C
C      0.61113  0.93517  0.61447     C
C      0.61323  0.88177  0.79758     C
O      0.61878  0.86599  0.25328     O
C      0.62187  0.64653   0.1804     C
C      0.62737  0.59553  0.14504     C
C      0.62797  0.55013  0.41663     C
H      0.62823  0.80197  0.70467     H
H      0.62943  0.80817  0.55167     H
C      0.62983  0.78607  0.74577     C
H      0.63273  0.97257  0.64297     H
C      0.63483  0.70597  0.47838     C
H      0.63923  0.67317  0.69037     H
C      0.63953  0.89077  0.60197     C
H       0.6419   0.7378   0.9331     H
C        0.642   0.9552  0.15293     C
C      0.64653  0.02467   0.8196     C
C      0.64937  0.51743  0.45873     C
C      0.64983  0.75547   0.4252     C
O       0.6503   0.8432  0.94916     O
H      0.65067  0.12393  0.53293     H
C       0.6508   0.6571  0.89289     C
H       0.6526   0.7689   0.0439     H
C      0.65267  0.08823  0.50983     C
H        0.653   0.8613    0.909     H
H      0.65673  0.07217  0.82637     H
C       0.6571   0.0063  0.10711     C
C      0.65737  0.05553  0.28113     C
H      0.66017  0.63273  0.35703     H
C      0.66037  0.98413  0.44044     C
C      0.66387  0.92783  0.40154     C
C      0.66633  0.93857   0.7636     C
C        0.667   0.7281  0.90307     C
C      0.66947  0.73883  0.26512     C
C      0.67297  0.68253  0.22622     C
H      0.67317  0.03393  0.30963     H
C      0.67597  0.61113  0.38553     C
C      0.67623  0.66037  0.55956     C
H       0.6766   0.5945   0.8403     H
H      0.68033  0.80537  0.75767     H
C      0.68067  0.57843  0.15683     C
H      0.68073  0.89777  0.62277     H
C      0.68253  0.00957  0.77378     C
H      0.68267  0.54273  0.13373     H
O      0.68303  0.82347  0.71751     O
C       0.6835   0.9112  0.24147     C
C      0.68397  0.14923  0.20793     C
C       0.6868    0.642  0.84707     C
C      0.69133  0.71147  0.51374     C
H      0.69143  0.92887  0.73357     H
C       0.6938   0.7759   0.0647     C
H       0.6941   0.9935   0.9763     H
C       0.6985   0.9607  0.18829     C
H       0.7006   0.6941   0.0237     H
C       0.7035   0.8806   0.9209     C
H       0.7039   0.8585    0.115     H
H       0.7051   0.8647    0.962     H
C      0.70537  0.11653  0.25003     C
C      0.70597  0.07113  0.52162     C
C      0.71147  0.02013  0.48626     C
O      0.71455  0.80068  0.41339     O
C       0.7201   0.7849  0.86909     C
C       0.7222   0.7315   0.0522     C
C      0.72257  0.54643  0.47153     C
O      0.72306  0.60585  0.62412     O
O        0.724    0.932  0.39522     O
C       0.7248   0.8298   0.1069     C
O      0.72749  0.78388  0.29078     O
C      0.72777  0.66633   0.2364     C
C       0.7281   0.0611  0.09693     C
C      0.73147  0.61323  0.20242     C
C       0.7315   0.0093   0.9478     C
O      0.73466  0.12533  0.72856     O
C      0.73603  0.66387  0.59846     C
Cu     0.73669  0.86379  0.34271    Cu
H       0.7378   0.0959   0.0669     H
C       0.7378   0.6985  0.81171     C
H      0.73827  0.52503  0.50023     H
O      0.73856  0.91923  0.27088     O
C      0.73883  0.06937  0.73488     C
H      0.73883  0.74877  0.50697     H
N      0.73989  0.85793  0.87945     N
H      0.74397  0.48943  0.18763     H
C       0.7445   0.9613   0.9167     C
H      0.74547  0.25603  0.18763     H
O      0.74744  0.15266  0.60421     O
C      0.74747  0.21183  0.18133     C
O      0.74767  0.24393  0.14283     O
H      0.74877  0.00993  0.49303     H
C      0.74877  0.63953  0.39803     C
H      0.75027  0.20483  0.13783     H
O      0.75279  0.61878  0.74672     O
C       0.7549   0.7689   0.8235     C
C      0.75547  0.10563   0.5748     C
O      0.75607  0.50373  0.14283     O
H      0.76257  0.69143  0.26643     H
C       0.7689    0.014   0.1765     C
H       0.7689   0.1163   0.9561     H
C      0.77167  0.60853  0.44023     C
C       0.7723   0.6835  0.75853     C
C       0.7759   0.0821   0.9353     C
H      0.78297  0.68073  0.37723     H
C       0.7832   0.7445   0.0833     C
O      0.78388   0.0564  0.70922     O
N      0.78471  0.59344  0.21278     N
C       0.7849   0.0648  0.13091     C
C      0.78607  0.15623  0.25423     C
H      0.78677  0.26173  0.50023     H
C       0.7869   0.8428   0.1382     C
H       0.7879   0.9164   0.8045     H
C      0.78817  0.53563  0.18133     C
H       0.7906   0.8066   0.8004     H
H       0.7917    0.653    0.091     H
O      0.79199    0.724  0.60478     O
Cu     0.79377  0.59665  0.67605    Cu
H      0.79517  0.54543  0.13783     H
C       0.7977   0.9192    0.848     C
C       0.7986   0.9827   0.8746     C
O      0.80068  0.08612  0.58661     O
H      0.80197  0.17373  0.29533     H
Cu     0.80287  0.20623  0.67605    Cu
H      0.80537  0.12503  0.24233     H
H       0.8066    0.016   0.1996     H
O       0.8071   0.6503  0.05084     O
H      0.80817  0.17873  0.44833     H
H       0.8083   0.8799   0.1669     H
N      0.80874  0.21529  0.21278     N
C       0.8159   0.7986   0.1254     C
O      0.81933  0.73856  0.72912     O
H      0.82127  0.62943  0.44833     H
H      0.82277  0.41213  0.47903     H
C       0.8229   0.7035   0.0791     C
O      0.82347  0.14043  0.28249     O
C      0.82387  0.27743  0.47153     C
H      0.82627  0.62823  0.29533     H
O       0.8296    0.919   0.8095     O
C       0.8298    0.105   0.8931     C
C      0.83687  0.22833  0.44023     C
O      0.83707  0.41433  0.52383     O
H       0.8404   0.7051    0.038     H
C       0.8428   0.0559   0.8618     C
O       0.8432   0.1929  0.05084     O
C      0.84377  0.62983  0.25423     C
H       0.8439   0.9212   0.8543     H
H       0.8454   0.7039    0.885     H
O      0.84734  0.59477  0.60421     O
C      0.85077  0.53473  0.20793     C
N      0.85793  0.11804  0.12055     N
H      0.85837  0.45343  0.16643     H
H       0.8585   0.1546    0.885     H
O      0.85957  0.68303  0.28249     O
H      0.86007  0.31733  0.13373     H
H       0.8613   0.2083    0.091     H
Cu     0.86379  0.12711  0.65729    Cu
H       0.8647   0.1596    0.038     H
O      0.86599  0.24721  0.74672     O
C      0.86807  0.35063  0.45873     C
C      0.86897  0.41413  0.48533     C
H       0.8715   0.7879   0.1955     H
Cu     0.87289  0.73669  0.65729    Cu
O      0.87467  0.60934  0.72856     O
H      0.87497  0.68033  0.24233     H
H      0.87607  0.52673  0.53293     H
C       0.8785   0.7977    0.152     C
H      0.87877  0.41693  0.52883     H
C      0.87977  0.49053  0.19513     C
H       0.8799   0.0716   0.8331     H
C       0.8806   0.1771   0.0791     C
C      0.88177  0.26853  0.20242     C
N      0.88196  0.73989  0.12055     N
O      0.88278  0.27694  0.62412     O
C      0.88347  0.58883  0.25003     C
H       0.8837   0.6526   0.9561     H
C      0.89077  0.25123  0.39803     C
C      0.89437  0.64983   0.5748     C
C        0.895   0.7248   0.8931     C
H      0.89777  0.21703  0.37723     H
C      0.89777  0.31933  0.15683     C
H       0.9041   0.6419   0.0669     H
O       0.9106   0.8296   0.1905     O
C       0.9112   0.2277  0.75853     C
C      0.91177  0.56443  0.50983     C
O      0.91388  0.71455  0.58661     O
H       0.9164   0.1285   0.1955     H
H       0.9179   0.3234   0.8403     H
C       0.9179   0.6938   0.9353     C
O        0.919   0.0894   0.1905     O
C       0.9192   0.1215    0.152     C
O      0.91923  0.18067  0.72912     O
H       0.9212   0.0773   0.1457     H
C      0.92217  0.37203  0.41663     C
H       0.9227   0.8439   0.1457     H
N      0.92678   0.4754  0.45388     N
C      0.92783  0.26397  0.59846     C
H      0.92783  0.58457  0.82637     H
O      0.92811   0.4141  0.06245     O
H       0.9284   0.8083   0.8331     H
H      0.92887  0.23743  0.26643     H
C      0.92887  0.63483  0.52162     C
Cu     0.92998  0.46954  0.99062    Cu
C      0.93063  0.66947  0.73488     C
O        0.932  0.20801  0.60478     O
C      0.93517  0.32403  0.38553     C
C       0.9352   0.7201  0.13091     C
C      0.93857  0.27223   0.2364     C
C       0.9389    0.667  0.09693     C
O      0.93918  0.54945  0.04255     O
C      0.94187  0.50353  0.22643     C
O      0.94267  0.40133  0.93811     O
O       0.9436  0.72749  0.70922     O
C       0.9441   0.7869   0.8618     C
C      0.94447  0.60183  0.28113     C
C      0.94657  0.54843  0.46424     C
O      0.95211  0.53266  0.91995     O
C       0.9552   0.3132  0.84707     C
C       0.9607   0.2622  0.81171     C
C       0.9613   0.2168   0.0833     C
H      0.96157  0.46863  0.37133     H
H      0.96277  0.47483  0.21833     H
C      0.96317  0.45273  0.41243     C
H      0.96607  0.63923  0.30963     H
C      0.96817  0.37263  0.14504     C
H      0.97257  0.33983  0.35703     H
C      0.97287  0.55743  0.26863     C
H      0.97523  0.40447  0.59977     H
C      0.97533  0.62187   0.8196     C
C      0.97987  0.69133  0.48626     C
C       0.9827   0.1841   0.1254     C
C      0.98317  0.42213  0.09186     C
O      0.98363  0.50987  0.61583     O
H        0.984   0.7906   0.1996     H
C      0.98413  0.32377  0.55956     C
H      0.98593  0.43557  0.71057     H
C        0.986   0.7549   0.1765     C
H      0.98633  0.52797  0.57567     H
H      0.99007  0.73883  0.49303     H
C      0.99043  0.67297  0.77378     C
C       0.9907   0.7222   0.9478     C
H       0.9935   0.2994   0.0237     H
C       0.9937   0.6508  0.10711     C
C       0.9972   0.5945  0.06821     C
C      0.99967  0.60523  0.43026     C
