data_I
_chemical_name_common  '/home/zhangsd/repos/MofS-CGCNN/ML/data/SSD/clean_cifs/OCIHIS_clean'
_cell_length_a 18.92300
_cell_length_b 16.50460
_cell_length_c  7.84370
_cell_angle_alpha 90.00000
_cell_angle_beta  91.86800
_cell_angle_gamma 90.00000
_space_group_name_H-M_alt      'P 1'


loop_
_space_group_symop_operation_xyz
  'x, y, z' 

loop_
_atom_site_label
_atom_site_fract_x
_atom_site_fract_y
_atom_site_fract_z
_atom_site_type_symbol
Zr         0.0   0.1086     0.25    Zr
Zr         0.0   0.8914     0.75    Zr
O       0.0016   0.2916    0.937     O
O       0.0016   0.7084    0.437     O
O        0.057   0.1027    0.038     O
O        0.057   0.8973    0.538     O
O       0.0629   0.1986    0.363     O
O       0.0629   0.8014    0.863     O
O        0.066   0.0237    0.353     O
O        0.066   0.9763    0.853     O
P       0.0672   0.2764   0.4886     P
P       0.0672   0.7236   0.9886     P
O       0.0837   0.3528     0.38     O
O       0.0837   0.6472     0.88     O
P       0.1045    0.054   0.9063     P
P       0.1045    0.946   0.4063     P
C        0.119   0.1247    0.736     C
C        0.119   0.8753    0.236     C
N       0.1245   0.2102    0.798     N
N       0.1245   0.7898    0.298     N
C       0.1365   0.2633    0.654     C
C       0.1365   0.7367    0.154     C
O       0.1717    0.032    0.004     O
O       0.1717    0.968    0.504     O
C       0.1823    0.211    0.932     C
C       0.1823    0.789    0.432     C
C       0.1872    0.295     0.01     C
C       0.1872    0.705     0.51     C
C       0.2466    0.304     0.15     C
C       0.2466    0.696     0.65     C
C       0.2534    0.196     0.85     C
C       0.2534    0.804     0.35     C
C       0.3128    0.205     0.99     C
C       0.3128    0.795     0.49     C
C       0.3177    0.289    0.068     C
C       0.3177    0.711    0.568     C
O       0.3283    0.468    0.996     O
O       0.3283    0.532    0.496     O
C       0.3635   0.2367    0.346     C
C       0.3635   0.7633    0.846     C
N       0.3755   0.2898    0.202     N
N       0.3755   0.7102    0.702     N
C        0.381   0.3753    0.264     C
C        0.381   0.6247    0.764     C
P       0.3955    0.446   0.0937     P
P       0.3955    0.554   0.5937     P
O       0.4163   0.1472     0.62     O
O       0.4163   0.8528     0.12     O
P       0.4328   0.2236   0.5114     P
P       0.4328   0.7764   0.0114     P
O        0.434   0.4763    0.647     O
O        0.434   0.5237    0.147     O
O       0.4371   0.3014    0.637     O
O       0.4371   0.6986    0.137     O
O        0.443   0.3973    0.962     O
O        0.443   0.6027    0.462     O
O       0.4984   0.2084    0.063     O
O       0.4984   0.7916    0.563     O
Zr         0.5   0.3914     0.75    Zr
Zr         0.5   0.6086     0.25    Zr
O       0.5016   0.2084    0.437     O
O       0.5016   0.7916    0.937     O
O        0.557   0.3973    0.538     O
O        0.557   0.6027    0.038     O
O       0.5629   0.3014    0.863     O
O       0.5629   0.6986    0.363     O
O        0.566   0.4763    0.853     O
O        0.566   0.5237    0.353     O
P       0.5672   0.2236   0.9886     P
P       0.5672   0.7764   0.4886     P
O       0.5837   0.1472     0.88     O
O       0.5837   0.8528     0.38     O
P       0.6045    0.446   0.4063     P
P       0.6045    0.554   0.9063     P
C        0.619   0.3753    0.236     C
C        0.619   0.6247    0.736     C
N       0.6245   0.2898    0.298     N
N       0.6245   0.7102    0.798     N
C       0.6365   0.2367    0.154     C
C       0.6365   0.7633    0.654     C
O       0.6717    0.468    0.504     O
O       0.6717    0.532    0.004     O
C       0.6823    0.289    0.432     C
C       0.6823    0.711    0.932     C
C       0.6872    0.205     0.51     C
C       0.6872    0.795     0.01     C
C       0.7466    0.196     0.65     C
C       0.7466    0.804     0.15     C
C       0.7534    0.304     0.35     C
C       0.7534    0.696     0.85     C
C       0.8128    0.295     0.49     C
C       0.8128    0.705     0.99     C
C       0.8177    0.211    0.568     C
C       0.8177    0.789    0.068     C
O       0.8283    0.032    0.496     O
O       0.8283    0.968    0.996     O
C       0.8635   0.2633    0.846     C
C       0.8635   0.7367    0.346     C
N       0.8755   0.2102    0.702     N
N       0.8755   0.7898    0.202     N
C        0.881   0.1247    0.764     C
C        0.881   0.8753    0.264     C
P       0.8955    0.054   0.5937     P
P       0.8955    0.946   0.0937     P
O       0.9163   0.3528     0.12     O
O       0.9163   0.6472     0.62     O
P       0.9328   0.2764   0.0114     P
P       0.9328   0.7236   0.5114     P
O        0.934   0.0237    0.147     O
O        0.934   0.9763    0.647     O
O       0.9371   0.1986    0.137     O
O       0.9371   0.8014    0.637     O
O        0.943   0.1027    0.462     O
O        0.943   0.8973    0.962     O
O       0.9984   0.2916    0.563     O
O       0.9984   0.7084    0.063     O
