data_I
_chemical_name_common  '/home/zhangsd/repos/MofS-CGCNN/ML/data/SSD/clean_cifs/OCOKUP_clean'
_cell_length_a  8.36300
_cell_length_b 12.82700
_cell_length_c 12.98700
_cell_angle_alpha 78.01000
_cell_angle_beta  77.50000
_cell_angle_gamma 71.85000
_space_group_name_H-M_alt      'P 1'


loop_
_space_group_symop_operation_xyz
  'x, y, z' 

loop_
_atom_site_label
_atom_site_fract_x
_atom_site_fract_y
_atom_site_fract_z
_atom_site_type_symbol
H       0.0024   0.6642   0.3948     H
C       0.0208   0.9561   0.9895     C
C       0.0443   0.4479   0.4763     C
C       0.0505   0.3431   0.5344     C
H       0.0969   0.6212   0.7968     H
Mn     0.10437  0.77988  0.95854    Mn
C       0.1095   0.1945   0.1231     C
H       0.1218   0.5202   0.3271     H
C       0.1244   0.4521   0.3701     C
C        0.135   0.2504    0.487     C
H        0.137   0.1814   0.5277     H
C       0.1449   0.7137   0.1209     C
C       0.1558   0.5637    0.843     C
N       0.1647   0.6816   0.2061     N
N       0.1818   0.5882   0.9303     N
H       0.1875   0.4476   0.7518     H
H       0.2007   0.2783   0.7471     H
N       0.2062   0.1723   0.1791     N
C       0.2076   0.3547    0.329     C
C       0.2096   0.4589   0.8152     C
N       0.2149   0.2536   0.3852     N
H       0.2616   0.3595   0.2584     H
C       0.2639   0.5017   0.9945     C
H       0.2837   0.5154   0.0575     H
C       0.2939   0.2287   0.7754     C
C       0.2955   0.3714   0.8808     C
H       0.3181   0.1076   0.6935     H
C       0.3213   0.3941   0.9742     C
C       0.3241   0.8015   0.8418     C
H        0.348   0.9746   0.1165     H
C       0.3613   0.2573   0.8514     C
Mn     0.36189  0.09808  0.30991    Mn
C       0.3667   0.1261   0.7427     C
H       0.3767   0.3376   0.0227     H
N       0.4342   0.8229   0.7809     N
C       0.4379   0.9222   0.1458     C
H       0.4569   0.8072   0.0559     H
C       0.4773   0.0197   0.4595     C
C       0.4963   0.1784   0.8916     C
N       0.4972    0.948   0.2223     N
N       0.5028    0.052   0.7777     N
C       0.5037   0.8216   0.1084     C
C       0.5227   0.9803   0.5405     C
H       0.5431   0.1928   0.9441     H
C       0.5621   0.0778   0.8542     C
N       0.5658   0.1771   0.2191     N
H       0.6233   0.6624   0.9773     H
C       0.6333   0.8739   0.2573     C
Mn     0.63811  0.90192  0.69009    Mn
C       0.6387   0.7427   0.1486     C
H        0.652   0.0254   0.8835     H
C       0.6759   0.1985   0.1582     C
C       0.6787   0.6059   0.0258     C
H       0.6819   0.8924   0.3065     H
C       0.7045   0.6286   0.1192     C
C       0.7061   0.7713   0.2246     C
H       0.7163   0.4846   0.9425     H
C       0.7361   0.4983   0.0055     C
H       0.7384   0.6405   0.7416     H
N       0.7851   0.7464   0.6148     N
C       0.7904   0.5411   0.1848     C
C       0.7924   0.6453    0.671     C
N       0.7938   0.8277   0.8209     N
H       0.7993   0.7217   0.2529     H
H       0.8125   0.5524   0.2482     H
N       0.8182   0.4118   0.0697     N
N       0.8353   0.3184   0.7939     N
C       0.8442   0.4363    0.157     C
C       0.8551   0.2863   0.8791     C
H        0.863   0.8186   0.4723     H
C        0.865   0.7496    0.513     C
C       0.8756   0.5479   0.6299     C
H       0.8782   0.4798   0.6729     H
C       0.8905   0.8055   0.8769     C
Mn     0.89563  0.22012  0.04146    Mn
H       0.9031   0.3788   0.2032     H
C       0.9495   0.6569   0.4656     C
C       0.9557   0.5521   0.5237     C
C       0.9792   0.0439   0.0105     C
H       0.9976   0.3358   0.6052     H
