data_I
_chemical_name_common  '/home/zhangsd/repos/MofS-CGCNN/ML/data/SSD/clean_cifs/OCURAG_clean'
_cell_length_a 15.64030
_cell_length_b 10.21120
_cell_length_c 18.67950
_cell_angle_alpha 90.00000
_cell_angle_beta  105.48400
_cell_angle_gamma 90.00000
_space_group_name_H-M_alt      'P 1'


loop_
_space_group_symop_operation_xyz
  'x, y, z' 

loop_
_atom_site_label
_atom_site_fract_x
_atom_site_fract_y
_atom_site_fract_z
_atom_site_type_symbol
H       0.0131    0.412   0.8267     H
H       0.0131    0.588   0.3267     H
C       0.0218   0.3569   0.8716     C
C       0.0218   0.6431   0.3716     C
H       0.0234   0.4151   0.9144     H
H       0.0234   0.5849   0.4144     H
H       0.0476   0.2115   0.5917     H
H       0.0476   0.7885   0.0917     H
H       0.0518   0.1977   0.6776     H
H       0.0518   0.8023   0.1776     H
C       0.0553   0.2612   0.6385     C
C       0.0553   0.7388   0.1385     C
H       0.1099   0.2101   0.9205     H
H       0.1099   0.7899   0.4205     H
C         0.11   0.2824   0.8853     C
C         0.11   0.7176   0.3853     C
H       0.1136   0.2427   0.8378     H
H       0.1136   0.7573   0.3378     H
P      0.16413   0.3323  0.66281     P
P      0.16413   0.6677  0.16281     P
V      0.16504  0.38063   0.0845     V
V      0.16504  0.61937   0.5845     V
O       0.1716   0.4288  0.60203     O
O       0.1716   0.5712  0.10203     O
O       0.1758   0.3985  0.73814     O
O       0.1758   0.6015  0.23814     O
O      0.20363   0.4966  0.37359     O
O      0.20363   0.5034  0.87359     O
P      0.20739  0.37992  0.92125     P
P      0.20739  0.62008  0.42125     P
O       0.2074   0.4273  0.99893     O
O       0.2074   0.5727  0.49893     O
O      0.21134   0.2014  0.07871     O
O      0.21134   0.7986  0.57871     O
O       0.2117   0.3571  0.19244     O
O       0.2117   0.6429  0.69244     O
H        0.217     0.29    0.196     H
H        0.217     0.71    0.696     H
O      0.23115   0.2223  0.66566     O
O      0.23115   0.7777  0.16566     O
V      0.24827  0.45311  0.28748     V
V      0.24827  0.54689  0.78748     V
V      0.25173  0.04689  0.71252     V
V      0.25173  0.95311  0.21252     V
O      0.26885   0.2777  0.33434     O
O      0.26885   0.7223  0.83434     O
H        0.283     0.21    0.804     H
H        0.283     0.79    0.304     H
O       0.2883   0.1429  0.80756     O
O       0.2883   0.8571  0.30756     O
O      0.28866   0.2986  0.92129     O
O      0.28866   0.7014  0.42129     O
O       0.2926   0.0727  0.00107     O
O       0.2926   0.9273  0.50107     O
P      0.29261  0.12008  0.07875     P
P      0.29261  0.87992  0.57875     P
O      0.29637   0.0034  0.62641     O
O      0.29637   0.9966  0.12641     O
O       0.3242   0.1015  0.26186     O
O       0.3242   0.8985  0.76186     O
O       0.3284   0.0712  0.39797     O
O       0.3284   0.9288  0.89797     O
V      0.33496  0.11937   0.9155     V
V      0.33496  0.88063   0.4155     V
P      0.33587   0.1677  0.33719     P
P      0.33587   0.8323  0.83719     P
H       0.3864   0.2573   0.1622     H
H       0.3864   0.7427   0.6622     H
C         0.39   0.2176   0.1147     C
C         0.39   0.7824   0.6147     C
H       0.3901   0.2899   0.0795     H
H       0.3901   0.7101   0.5795     H
C       0.4447   0.2388   0.3615     C
C       0.4447   0.7612   0.8615     C
H       0.4482   0.3023   0.3224     H
H       0.4482   0.6977   0.8224     H
H       0.4524   0.2885   0.4083     H
H       0.4524   0.7115   0.9083     H
H       0.4766   0.0849   0.0856     H
H       0.4766   0.9151   0.5856     H
C       0.4782   0.1431   0.1284     C
C       0.4782   0.8569   0.6284     C
H       0.4869    0.088   0.1733     H
H       0.4869    0.912   0.6733     H
H       0.5131    0.088   0.3267     H
H       0.5131    0.912   0.8267     H
C       0.5218   0.1431   0.3716     C
C       0.5218   0.8569   0.8716     C
H       0.5234   0.0849   0.4144     H
H       0.5234   0.9151   0.9144     H
H       0.5476   0.2885   0.0917     H
H       0.5476   0.7115   0.5917     H
H       0.5518   0.3023   0.1776     H
H       0.5518   0.6977   0.6776     H
C       0.5553   0.2388   0.1385     C
C       0.5553   0.7612   0.6385     C
H       0.6099   0.2899   0.4205     H
H       0.6099   0.7101   0.9205     H
C         0.61   0.2176   0.3853     C
C         0.61   0.7824   0.8853     C
H       0.6136   0.2573   0.3378     H
H       0.6136   0.7427   0.8378     H
P      0.66413   0.1677  0.16281     P
P      0.66413   0.8323  0.66281     P
V      0.66504  0.11937   0.5845     V
V      0.66504  0.88063   0.0845     V
O       0.6716   0.0712  0.10203     O
O       0.6716   0.9288  0.60203     O
O       0.6758   0.1015  0.23814     O
O       0.6758   0.8985  0.73814     O
O      0.70363   0.0034  0.87359     O
O      0.70363   0.9966  0.37359     O
P      0.70739  0.12008  0.42125     P
P      0.70739  0.87992  0.92125     P
O       0.7074   0.0727  0.49893     O
O       0.7074   0.9273  0.99893     O
O      0.71134   0.2986  0.57871     O
O      0.71134   0.7014  0.07871     O
O       0.7117   0.1429  0.69244     O
O       0.7117   0.8571  0.19244     O
H        0.717     0.21    0.696     H
H        0.717     0.79    0.196     H
O      0.73115   0.2777  0.16566     O
O      0.73115   0.7223  0.66566     O
V      0.74827  0.04689  0.78748     V
V      0.74827  0.95311  0.28748     V
V      0.75173  0.45311  0.21252     V
V      0.75173  0.54689  0.71252     V
O      0.76885   0.2223  0.83434     O
O      0.76885   0.7777  0.33434     O
H        0.783     0.29    0.304     H
H        0.783     0.71    0.804     H
O       0.7883   0.3571  0.30756     O
O       0.7883   0.6429  0.80756     O
O      0.78866   0.2014  0.42129     O
O      0.78866   0.7986  0.92129     O
O       0.7926   0.4273  0.50107     O
O       0.7926   0.5727  0.00107     O
P      0.79261  0.37992  0.57875     P
P      0.79261  0.62008  0.07875     P
O      0.79637   0.4966  0.12641     O
O      0.79637   0.5034  0.62641     O
O       0.8242   0.3985  0.76186     O
O       0.8242   0.6015  0.26186     O
O       0.8284   0.4288  0.89797     O
O       0.8284   0.5712  0.39797     O
V      0.83496  0.38063   0.4155     V
V      0.83496  0.61937   0.9155     V
P      0.83587   0.3323  0.83719     P
P      0.83587   0.6677  0.33719     P
H       0.8864   0.2427   0.6622     H
H       0.8864   0.7573   0.1622     H
C         0.89   0.2824   0.6147     C
C         0.89   0.7176   0.1147     C
H       0.8901   0.2101   0.5795     H
H       0.8901   0.7899   0.0795     H
C       0.9447   0.2612   0.8615     C
C       0.9447   0.7388   0.3615     C
H       0.9482   0.1977   0.8224     H
H       0.9482   0.8023   0.3224     H
H       0.9524   0.2115   0.9083     H
H       0.9524   0.7885   0.4083     H
H       0.9766   0.4151   0.5856     H
H       0.9766   0.5849   0.0856     H
C       0.9782   0.3569   0.6284     C
C       0.9782   0.6431   0.1284     C
H       0.9869    0.412   0.6733     H
H       0.9869    0.588   0.1733     H
