data_I
_chemical_name_common  '/home/zhangsd/repos/MofS-CGCNN/ML/data/SSD/clean_cifs/OCUSIP_clean'
_cell_length_a 16.32480
_cell_length_b 13.33610
_cell_length_c 10.10190
_cell_angle_alpha 90.00000
_cell_angle_beta  89.99400
_cell_angle_gamma 90.00000
_space_group_name_H-M_alt      'P 1'


loop_
_space_group_symop_operation_xyz
  'x, y, z' 

loop_
_atom_site_label
_atom_site_fract_x
_atom_site_fract_y
_atom_site_fract_z
_atom_site_type_symbol
C      0.01441  0.20325   0.9607     C
C      0.01441  0.29675   0.4607     C
C      0.01507  0.20551   0.5542     C
C      0.01507  0.29449   0.0542     C
V       0.0237  0.54667  0.24768     V
V       0.0237  0.95333  0.74768     V
H       0.0248   0.2268   0.8715     H
H       0.0248   0.2732   0.3715     H
H       0.0273   0.2291   0.6428     H
H       0.0273   0.2709   0.1428     H
H       0.0397   0.6774    0.944     H
H       0.0397   0.8226    0.444     H
H       0.0402   0.6745   0.5383     H
H       0.0402   0.8255   0.0383     H
O      0.05471  0.04468  0.39886     O
O      0.05471  0.45532  0.89886     O
O      0.07158  0.02022   0.9011     O
O      0.07158  0.47978   0.4011     O
O      0.07517  0.07169  0.14169     O
O      0.07517  0.42831  0.64169     O
P      0.08569  0.10619  0.51492     P
P      0.08569  0.39381  0.01492     P
P      0.08665  0.10522  0.99759     P
P      0.08665  0.39478  0.49759     P
O      0.09529   0.0426  0.64037     O
O      0.09529   0.4574  0.14037     O
O       0.1685  0.15138  0.47893     O
O       0.1685  0.34862  0.97893     O
O       0.1744  0.14286  0.98201     O
O       0.1744  0.35714  0.48201     O
V      0.25003  0.24997  0.53647     V
V      0.25003  0.25003  0.03647     V
O      0.32556  0.14287  0.48187     O
O      0.32556  0.35713  0.98187     O
O      0.33146  0.15143  0.97903     O
O      0.33146  0.34857  0.47903     O
O      0.40478  0.04235  0.14042     O
O      0.40478  0.45765  0.64042     O
P      0.41335  0.10517   0.4976     P
P      0.41335  0.39483   0.9976     P
P      0.41433  0.10615  0.01499     P
P      0.41433  0.39385  0.51499     P
O      0.42481  0.07157   0.6418     O
O      0.42481  0.42843   0.1418     O
O      0.42832  0.02006   0.4012     O
O      0.42832  0.47994   0.9012     O
O      0.44518  0.04469  0.89876     O
O      0.44518  0.45531  0.39876     O
H       0.4598   0.6746   0.0382     H
H       0.4598   0.8254   0.5382     H
H       0.4603   0.6773   0.4437     H
H       0.4603   0.8227   0.9437     H
H       0.4726   0.2291   0.1429     H
H       0.4726   0.2709   0.6429     H
H       0.4752   0.2268   0.3715     H
H       0.4752   0.2732   0.8715     H
V      0.47634  0.54669  0.74768     V
V      0.47634  0.95331  0.24768     V
C      0.48488  0.20543   0.0543     C
C      0.48488  0.29457   0.5543     C
C      0.48564  0.20328   0.4608     C
C      0.48564  0.29672   0.9608     C
C      0.51436  0.70328   0.0392     C
C      0.51436  0.79672   0.5392     C
C      0.51512  0.70543   0.4457     C
C      0.51512  0.79457   0.9457     C
V      0.52366  0.04669  0.75232     V
V      0.52366  0.45331  0.25232     V
H       0.5248   0.7268   0.1285     H
H       0.5248   0.7732   0.6285     H
H       0.5274   0.7291   0.3571     H
H       0.5274   0.7709   0.8571     H
H       0.5397   0.1773   0.0563     H
H       0.5397   0.3227   0.5563     H
H       0.5402   0.1746   0.4618     H
H       0.5402   0.3254   0.9618     H
O      0.55482  0.54469  0.60124     O
O      0.55482  0.95531  0.10124     O
O      0.57168  0.52006   0.0988     O
O      0.57168  0.97994   0.5988     O
O      0.57519  0.57157   0.8582     O
O      0.57519  0.92843   0.3582     O
P      0.58567  0.60615  0.48501     P
P      0.58567  0.89385  0.98501     P
P      0.58665  0.60517   0.0024     P
P      0.58665  0.89483   0.5024     P
O      0.59522  0.54235  0.35958     O
O      0.59522  0.95765  0.85958     O
O      0.66854  0.65143  0.52097     O
O      0.66854  0.84857  0.02097     O
O      0.67444  0.64287  0.01813     O
O      0.67444  0.85713  0.51813     O
V      0.74997  0.74997  0.96353     V
V      0.74997  0.75003  0.46353     V
O       0.8256  0.64286  0.51799     O
O       0.8256  0.85714  0.01799     O
O       0.8315  0.65138  0.02107     O
O       0.8315  0.84862  0.52107     O
O      0.90471   0.5426  0.85963     O
O      0.90471   0.9574  0.35963     O
P      0.91335  0.60522  0.50241     P
P      0.91335  0.89478  0.00241     P
P      0.91431  0.60619  0.98508     P
P      0.91431  0.89381  0.48508     P
O      0.92483  0.57169  0.35831     O
O      0.92483  0.92831  0.85831     O
O      0.92842  0.52022   0.5989     O
O      0.92842  0.97978   0.0989     O
O      0.94529  0.54468  0.10114     O
O      0.94529  0.95532  0.60114     O
H       0.9598   0.1745   0.9617     H
H       0.9598   0.3255   0.4617     H
H       0.9603   0.1774    0.556     H
H       0.9603   0.3226    0.056     H
H       0.9727   0.7291   0.8572     H
H       0.9727   0.7709   0.3572     H
H       0.9752   0.7268   0.6285     H
H       0.9752   0.7732   0.1285     H
V       0.9763  0.04667  0.25232     V
V       0.9763  0.45333  0.75232     V
C      0.98493  0.70551   0.9458     C
C      0.98493  0.79449   0.4458     C
C      0.98559  0.70325   0.5393     C
C      0.98559  0.79675   0.0393     C
