data_I
_chemical_name_common  '/home/zhangsd/repos/MofS-CGCNN/ML/data/SSD/clean_cifs/ODIXEG_clean'
_cell_length_a 12.70600
_cell_length_b 12.70600
_cell_length_c 23.81700
_cell_angle_alpha 90.00000
_cell_angle_beta  90.00000
_cell_angle_gamma 90.00000
_space_group_name_H-M_alt      'P 1'


loop_
_space_group_symop_operation_xyz
  'x, y, z' 

loop_
_atom_site_label
_atom_site_fract_x
_atom_site_fract_y
_atom_site_fract_z
_atom_site_type_symbol
Zn         0.0  0.38242      0.5    Zn
Zn         0.0  0.61758      0.5    Zn
O      0.11044  0.41151   0.4414     O
O      0.11044  0.41151   0.5586     O
O      0.11044  0.58849   0.4414     O
O      0.11044  0.58849   0.5586     O
C       0.1412      0.5  0.42364     C
C       0.1412      0.5  0.57636     C
C       0.2245      0.5  0.37939     C
C       0.2245      0.5  0.62061     C
H       0.2355   0.3424   0.3714     H
H       0.2355   0.3424   0.6286     H
H       0.2355   0.6576   0.3714     H
H       0.2355   0.6576   0.6286     H
C      0.26308  0.40723  0.35812     C
C      0.26308  0.40723  0.64188     C
C      0.26308  0.59277  0.35812     C
C      0.26308  0.59277  0.64188     C
C      0.34073  0.40631  0.31807     C
C      0.34073  0.40631  0.68193     C
C      0.34073  0.59369  0.31807     C
C      0.34073  0.59369  0.68193     C
H       0.3409   0.3664   0.1956     H
H       0.3409   0.3664   0.8044     H
H       0.3409   0.6336   0.1956     H
H       0.3409   0.6336   0.8044     H
H       0.3424   0.2355   0.1286     H
H       0.3424   0.2355   0.8714     H
H       0.3424   0.7645   0.1286     H
H       0.3424   0.7645   0.8714     H
H       0.3664   0.3409   0.3044     H
H       0.3664   0.3409   0.6956     H
H       0.3664   0.6591   0.3044     H
H       0.3664   0.6591   0.6956     H
Zn     0.38242      0.0      0.0    Zn
C      0.38257      0.5  0.29711     C
C      0.38257      0.5  0.70289     C
C      0.40631  0.34073  0.18193     C
C      0.40631  0.34073  0.81807     C
C      0.40631  0.65927  0.18193     C
C      0.40631  0.65927  0.81807     C
C      0.40723  0.26308  0.14188     C
C      0.40723  0.26308  0.85812     C
C      0.40723  0.73692  0.14188     C
C      0.40723  0.73692  0.85812     C
O      0.41151  0.11044   0.0586     O
O      0.41151  0.11044   0.9414     O
O      0.41151  0.88956   0.0586     O
O      0.41151  0.88956   0.9414     O
C          0.5   0.1412  0.07636     C
C          0.5   0.1412  0.92364     C
C          0.5   0.2245  0.12061     C
C          0.5   0.2245  0.87939     C
C          0.5  0.38257  0.20289     C
C          0.5  0.38257  0.79711     C
Si         0.5      0.5     0.25    Si
Si         0.5      0.5     0.75    Si
C          0.5  0.61743  0.20289     C
C          0.5  0.61743  0.79711     C
C          0.5   0.7755  0.12061     C
C          0.5   0.7755  0.87939     C
C          0.5   0.8588  0.07636     C
C          0.5   0.8588  0.92364     C
O      0.58849  0.11044   0.0586     O
O      0.58849  0.11044   0.9414     O
O      0.58849  0.88956   0.0586     O
O      0.58849  0.88956   0.9414     O
C      0.59277  0.26308  0.14188     C
C      0.59277  0.26308  0.85812     C
C      0.59277  0.73692  0.14188     C
C      0.59277  0.73692  0.85812     C
C      0.59369  0.34073  0.18193     C
C      0.59369  0.34073  0.81807     C
C      0.59369  0.65927  0.18193     C
C      0.59369  0.65927  0.81807     C
C      0.61743      0.5  0.29711     C
C      0.61743      0.5  0.70289     C
Zn     0.61758      0.0      0.0    Zn
H       0.6336   0.3409   0.3044     H
H       0.6336   0.3409   0.6956     H
H       0.6336   0.6591   0.3044     H
H       0.6336   0.6591   0.6956     H
H       0.6576   0.2355   0.1286     H
H       0.6576   0.2355   0.8714     H
H       0.6576   0.7645   0.1286     H
H       0.6576   0.7645   0.8714     H
H       0.6591   0.3664   0.1956     H
H       0.6591   0.3664   0.8044     H
H       0.6591   0.6336   0.1956     H
H       0.6591   0.6336   0.8044     H
C      0.65927  0.40631  0.31807     C
C      0.65927  0.40631  0.68193     C
C      0.65927  0.59369  0.31807     C
C      0.65927  0.59369  0.68193     C
C      0.73692  0.40723  0.35812     C
C      0.73692  0.40723  0.64188     C
C      0.73692  0.59277  0.35812     C
C      0.73692  0.59277  0.64188     C
H       0.7645   0.3424   0.3714     H
H       0.7645   0.3424   0.6286     H
H       0.7645   0.6576   0.3714     H
H       0.7645   0.6576   0.6286     H
C       0.7755      0.5  0.37939     C
C       0.7755      0.5  0.62061     C
C       0.8588      0.5  0.42364     C
C       0.8588      0.5  0.57636     C
O      0.88956  0.41151   0.4414     O
O      0.88956  0.41151   0.5586     O
O      0.88956  0.58849   0.4414     O
O      0.88956  0.58849   0.5586     O
