data_I
_chemical_name_common  '/home/zhangsd/repos/MofS-CGCNN/ML/data/SSD/clean_cifs/ODODOC_clean'
_cell_length_a 13.87500
_cell_length_b 14.07200
_cell_length_c 14.20800
_cell_angle_alpha 116.30000
_cell_angle_beta  109.72400
_cell_angle_gamma 101.42800
_space_group_name_H-M_alt      'P 1'


loop_
_space_group_symop_operation_xyz
  'x, y, z' 

loop_
_atom_site_label
_atom_site_fract_x
_atom_site_fract_y
_atom_site_fract_z
_atom_site_type_symbol
Cd         0.0      0.0      0.0    Cd
H       0.0059   0.8667   0.5763     H
C       0.0085   0.4383    0.285     C
C       0.0091   0.2291   0.8345     C
Si     0.01012  0.34604  0.61091    Si
C       0.0186   0.7289   0.2384     C
H       0.0227   0.2837    0.212     H
C       0.0295   0.6816   0.7913     C
H       0.0345   0.7792   0.1284     H
C       0.0386   0.2785   0.6994     C
C       0.0465   0.1921   0.4281     C
O       0.0625   0.1369   0.9706     O
H       0.0642   0.0808   0.2899     H
C       0.0652   0.5074   0.7188     C
H       0.0784   0.7045   0.2461     H
C       0.0802   0.3101   0.5155     C
H       0.0863    0.484   0.3408     H
C       0.0887   0.1607   0.3488     C
C       0.0987   0.1996    0.853     C
O        0.107   0.9199   0.9326     O
H       0.1208   0.6981   0.6238     H
C       0.1294   0.2508   0.7224     C
C       0.1339   0.1653   0.9413     C
C       0.1424   0.7504   0.8716     C
C       0.1431   0.7055   0.4927     C
C       0.1592   0.3937    0.521     C
C       0.1601   0.2128   0.7985     C
C       0.1661   0.2447   0.3545     C
O       0.1665   0.1031    0.182     O
H       0.1731   0.2579   0.6848     H
C       0.1756   0.7119      0.6     C
C       0.1791   0.5779   0.8037     C
C       0.1805   0.8806   0.9446     C
H       0.1841   0.4737   0.5798     H
C       0.2024   0.3621    0.442     C
H       0.2075   0.7211   0.3891     H
C        0.209   0.2115   0.2657     C
C       0.2173   0.6978   0.8786     C
H       0.2245   0.1957   0.8128     H
C       0.2269   0.7264   0.4626     C
H        0.231   0.5431   0.8103     H
O       0.2323   0.1706   0.9808     O
H       0.2566   0.4204   0.4474     H
O       0.2832   0.2871   0.2751     O
O       0.2837   0.9435   0.0118     O
C       0.2865    0.738   0.6736     C
Cd     0.29469  0.12624  0.11388    Cd
H       0.2949   0.7441   0.9347     H
H       0.3057   0.7399   0.7454     H
C       0.3388   0.7548   0.5369     C
C       0.3683   0.7611   0.6431     C
H       0.3942   0.7696   0.5143     H
O       0.4369   0.1547    0.289     O
O       0.4875   0.2204   0.1903     O
C       0.4896   0.7972   0.7265     C
C       0.5104   0.2028   0.2735     C
O       0.5125   0.7796   0.8097     O
O       0.5631   0.8453    0.711     O
H       0.6058   0.2304   0.4857     H
C       0.6317   0.2389   0.3569     C
C       0.6612   0.2452   0.4631     C
H       0.6943   0.2601   0.2546     H
H       0.7051   0.2559   0.0653     H
Cd     0.70531  0.87376  0.88612    Cd
C       0.7135    0.262   0.3264     C
O       0.7163   0.0565   0.9882     O
O       0.7168   0.7129   0.7249     O
H       0.7434   0.5796   0.5526     H
O       0.7677   0.8294   0.0192     O
H        0.769   0.4569   0.1897     H
C       0.7731   0.2736   0.5374     C
H       0.7755   0.8043   0.1872     H
C       0.7827   0.3022   0.1214     C
C        0.791   0.7885   0.7343     C
H       0.7925   0.2789   0.6109     H
C       0.7976   0.6379    0.558     C
H       0.8159   0.5263   0.4202     H
C       0.8195   0.1194   0.0554     C
C       0.8209   0.4221   0.1963     C
C       0.8244   0.2881      0.4     C
H       0.8269   0.7421   0.3152     H
O       0.8335   0.8969    0.818     O
C       0.8339   0.7553   0.6455     C
C       0.8399   0.7872   0.2015     C
C       0.8408   0.6063    0.479     C
C       0.8569   0.2945   0.5073     C
C       0.8576   0.2496   0.1284     C
C       0.8661   0.8347   0.0587     C
C       0.8706   0.7492   0.2776     C
H       0.8792   0.3019   0.3762     H
O        0.893   0.0801   0.0674     O
C       0.9013   0.8004    0.147     C
C       0.9113   0.8393   0.6512     C
H       0.9137    0.516   0.6592     H
C       0.9198   0.6899   0.4845     C
H       0.9216   0.2955   0.7539     H
C       0.9348   0.4926   0.2812     C
H       0.9358   0.9192   0.7101     H
O       0.9375   0.8631   0.0294     O
C       0.9535   0.8079   0.5719     C
C       0.9614   0.7215   0.3006     C
H       0.9655   0.2208   0.8716     H
C       0.9705   0.3184   0.2087     C
H       0.9773   0.7163    0.788     H
C       0.9814   0.2711   0.7616     C
Si     0.98988  0.65396  0.38909    Si
C       0.9909   0.7709   0.1655     C
C       0.9915   0.5617    0.715     C
H       0.9941   0.1333   0.4237     H
