data_I
_chemical_name_common  '/home/zhangsd/repos/MofS-CGCNN/ML/data/SSD/clean_cifs/ODODIW_clean'
_cell_length_a 13.93500
_cell_length_b 14.19600
_cell_length_c 14.67080
_cell_angle_alpha 107.98800
_cell_angle_beta  113.73500
_cell_angle_gamma 100.29800
_space_group_name_H-M_alt      'P 1'


loop_
_space_group_symop_operation_xyz
  'x, y, z' 

loop_
_atom_site_label
_atom_site_fract_x
_atom_site_fract_y
_atom_site_fract_z
_atom_site_type_symbol
C       0.0088   0.2796   0.8337     C
C       0.0325   0.2902    0.683     C
H       0.0398   0.2923   0.9089     H
H       0.0792   0.3085    0.654     H
C       0.0806   0.3036   0.7912     C
C       0.0832   0.7495   0.3842     C
C       0.1051   0.7618   0.2332     C
H       0.1143   0.7588   0.4585     H
H       0.1164    0.503   0.9207     H
H       0.1517   0.7814   0.2046     H
C        0.154   0.7758   0.3428     C
H       0.1591   0.6822   0.0219     H
H       0.1662   0.1672   0.8962     H
C       0.1909   0.5504   0.9554     C
C       0.2163   0.6579   0.0154     C
H       0.2178   0.1048    0.031     H
C       0.2272   0.2123   0.9675     C
Si     0.23617  0.36569     0.88    Si
H       0.2546   0.1689   0.7761     H
C        0.259   0.1742   0.0469     C
O       0.2704   0.8642   0.1488     O
C       0.2725   0.5117   0.9455     C
C       0.2775   0.8157   0.4128     C
C       0.2821    0.315   0.9893     C
C       0.2899   0.2135   0.7535     C
C       0.2995   0.3207   0.7909     C
Zn      0.3033  0.99584   0.2642    Zn
O       0.3123   0.1105   0.2139     O
O       0.3143   0.7805   0.4866     O
H       0.3226   0.0998   0.6612     H
C       0.3235   0.7295   0.0656     C
C       0.3305   0.1724   0.6853     C
O       0.3362   0.8773    0.395     O
C       0.3511    0.237   0.1497     C
C       0.3512   0.3832    0.755     C
C       0.3518   0.8424   0.1353     C
H       0.3579   0.4555   0.7779     H
C       0.3731   0.3782    0.095     C
C       0.3809    0.585   0.9947     C
C       0.3828    0.235    0.651     C
C       0.3839   0.1938   0.2355     C
C       0.3934   0.3414    0.686     C
C       0.4057   0.6933   0.0523     C
C       0.4095   0.3402   0.1743     C
H       0.4109   0.4493   0.1127     H
O        0.427   0.0951   0.5626     O
H       0.4291   0.3853   0.6631     H
C       0.4293    0.188   0.5788     C
H       0.4383   0.5607   0.9888     H
O       0.4477   0.9072   0.1778     O
O       0.4642   0.0449   0.3744     O
O       0.4651   0.2434   0.5395     O
Zn     0.47125  0.79671  0.55655    Zn
H       0.4733   0.3836   0.2443     H
O       0.4751   0.2443   0.3211     O
H       0.4785   0.7419   0.0822     H
H        0.481    0.013    0.317     H
Zn         0.5      0.0      0.5    Zn
H        0.519    0.987    0.683     H
H       0.5215   0.2581   0.9178     H
O       0.5249   0.7557   0.6789     O
H       0.5267   0.6164   0.7557     H
Zn     0.52875  0.20329  0.44345    Zn
O       0.5349   0.7566   0.4605     O
O       0.5358   0.9551   0.6256     O
O       0.5523   0.0928   0.8222     O
H       0.5617   0.4393   0.0112     H
C       0.5707    0.812   0.4212     C
H       0.5709   0.6147   0.3369     H
O        0.573   0.9049   0.4374     O
H       0.5891   0.5507   0.8873     H
C       0.5905   0.6598   0.8257     C
C       0.5943   0.3067   0.9477     C
C       0.6066   0.6586    0.314     C
C       0.6161   0.8062   0.7645     C
C       0.6172    0.765    0.349     C
C       0.6191    0.415   0.0053     C
C       0.6269   0.6218    0.905     C
H       0.6421   0.5445   0.2221     H
C       0.6482   0.1576   0.8647     C
C       0.6488   0.6168    0.245     C
C       0.6489    0.763   0.8503     C
O       0.6638   0.1227    0.605     O
C       0.6695   0.8276   0.3147     C
C       0.6765   0.2705   0.9344     C
H       0.6774   0.9002   0.3388     H
O       0.6857   0.2195   0.5134     O
O       0.6877   0.8895   0.7861     O
Zn      0.6967  0.00416   0.7358    Zn
C       0.7005   0.6793   0.2091     C
C       0.7101   0.7865   0.2465     C
C       0.7179    0.685   0.0107     C
C       0.7225   0.1843   0.5872     C
C       0.7275   0.4883   0.0545     C
O       0.7296   0.1358   0.8512     O
C        0.741   0.8258   0.9531     C
H       0.7454   0.8311   0.2239     H
Si     0.76383  0.63431     0.12    Si
C       0.7728   0.7877   0.0325     C
H       0.7822   0.8952    0.969     H
C       0.7837   0.3421   0.9846     C
C       0.8091   0.4496   0.0446     C
H       0.8338   0.8328   0.1038     H
H       0.8409   0.3178   0.9781     H
C        0.846   0.2242   0.6572     C
H       0.8483   0.2186   0.7954     H
H       0.8836    0.497   0.0793     H
H       0.8857   0.2412   0.5415     H
C       0.8949   0.2382   0.7668     C
C       0.9168   0.2505   0.6158     C
C       0.9194   0.6964   0.2088     C
H       0.9208   0.6915    0.346     H
H       0.9602   0.7077   0.0911     H
C       0.9675   0.7098    0.317     C
C       0.9912   0.7204   0.1663     C
