data_I
_chemical_name_common  '/home/zhangsd/repos/MofS-CGCNN/ML/data/SSD/clean_cifs/OGAQES_clean'
_cell_length_a  4.98650
_cell_length_b 21.38940
_cell_length_c 18.93380
_cell_angle_alpha 90.00000
_cell_angle_beta  90.00000
_cell_angle_gamma 90.00000
_space_group_name_H-M_alt      'P 1'


loop_
_space_group_symop_operation_xyz
  'x, y, z' 

loop_
_atom_site_label
_atom_site_fract_x
_atom_site_fract_y
_atom_site_fract_z
_atom_site_type_symbol
H       0.0174   0.6423   0.1195     H
H       0.0174   0.6423   0.3805     H
H       0.0174   0.8577   0.6195     H
H       0.0174   0.8577   0.8805     H
H       0.0207   0.2308   0.7077     H
H       0.0207   0.2308   0.7923     H
H       0.0207   0.2692   0.2077     H
H       0.0207   0.2692   0.2923     H
O       0.0317  0.10675     0.75     O
O       0.0317  0.39325     0.25     O
H       0.0774   0.6124     0.25     H
H       0.0774   0.8876     0.75     H
C        0.135  0.22518     0.75     C
C        0.135  0.27482     0.25     C
O       0.1823  0.54707  0.02838     O
O       0.1823  0.54707  0.47162     O
O       0.1823  0.95293  0.52838     O
O       0.1823  0.95293  0.97162     O
O       0.1949  0.52068  0.15331     O
O       0.1949  0.52068  0.34669     O
O       0.1949  0.97932  0.65331     O
O       0.1949  0.97932  0.84669     O
Ba     0.19596  0.56597  0.62022    Ba
Ba     0.19596  0.56597  0.87978    Ba
Ba     0.19596  0.93403  0.12022    Ba
Ba     0.19596  0.93403  0.37978    Ba
C       0.2152  0.63889  0.11724     C
C       0.2152  0.63889  0.38276     C
C       0.2152  0.86111  0.61724     C
C       0.2152  0.86111  0.88276     C
C       0.2246  0.64062     0.25     C
C       0.2246  0.85938     0.75     C
H       0.2649   0.0343     0.25     H
H       0.2649   0.4657     0.75     H
S        0.268  0.14776     0.75     S
S        0.268  0.35224     0.25     S
H       0.2785   0.6665   0.0787     H
H       0.2785   0.6665   0.4213     H
H       0.2785   0.8335   0.5787     H
H       0.2785   0.8335   0.9213     H
H       0.3003   0.0768   0.5077     H
H       0.3003   0.0768   0.9923     H
H       0.3003   0.1355   0.5386     H
H       0.3003   0.1355   0.9614     H
H       0.3003   0.3645   0.0386     H
H       0.3003   0.3645   0.4614     H
H       0.3003   0.4232   0.0077     H
H       0.3003   0.4232   0.4923     H
O       0.3006  0.09603  0.54757     O
O       0.3006  0.09603  0.95243     O
O       0.3006  0.40397  0.04757     O
O       0.3006  0.40397  0.45243     O
S      0.30344  0.56007  0.09686     S
S      0.30344  0.56007  0.40314     S
S      0.30344  0.93993  0.59686     S
S      0.30344  0.93993  0.90314     S
C       0.3319   0.6612  0.18595     C
C       0.3319   0.6612  0.31405     C
C       0.3319   0.8388  0.68595     C
C       0.3319   0.8388  0.81405     C
O       0.3405  0.50182     0.75     O
O       0.3405  0.99818     0.25     O
C       0.3529  0.22545     0.25     C
C       0.3529  0.27455     0.75     C
H       0.3829   0.2176   0.1431     H
H       0.3829   0.2176   0.3569     H
H       0.3829   0.2824   0.6431     H
H       0.3829   0.2824   0.8569     H
O        0.404  0.05644  0.09483     O
O        0.404  0.05644  0.40517     O
O        0.404  0.44356  0.59483     O
O        0.404  0.44356  0.90517     O
O       0.4248  0.14044  0.68587     O
O       0.4248  0.14044  0.81413     O
O       0.4248  0.35956  0.18587     O
O       0.4248  0.35956  0.31413     O
C       0.4569  0.20353  0.18652     C
C       0.4569  0.20353  0.31348     C
C       0.4569  0.29647  0.68652     C
C       0.4569  0.29647  0.81348     C
H       0.4889   0.5042     0.25     H
H       0.4889   0.9958     0.75     H
H       0.5111   0.0042     0.25     H
H       0.5111   0.4958     0.75     H
C       0.5431  0.70353  0.18652     C
C       0.5431  0.70353  0.31348     C
C       0.5431  0.79647  0.68652     C
C       0.5431  0.79647  0.81348     C
O       0.5752  0.64044  0.68587     O
O       0.5752  0.64044  0.81413     O
O       0.5752  0.85956  0.18587     O
O       0.5752  0.85956  0.31413     O
O        0.596  0.55644  0.09483     O
O        0.596  0.55644  0.40517     O
O        0.596  0.94356  0.59483     O
O        0.596  0.94356  0.90517     O
H       0.6171   0.7176   0.1431     H
H       0.6171   0.7176   0.3569     H
H       0.6171   0.7824   0.6431     H
H       0.6171   0.7824   0.8569     H
C       0.6471  0.72545     0.25     C
C       0.6471  0.77455     0.75     C
O       0.6595  0.00182     0.75     O
O       0.6595  0.49818     0.25     O
C       0.6681   0.1612  0.18595     C
C       0.6681   0.1612  0.31405     C
C       0.6681   0.3388  0.68595     C
C       0.6681   0.3388  0.81405     C
S      0.69656  0.06007  0.09686     S
S      0.69656  0.06007  0.40314     S
S      0.69656  0.43993  0.59686     S
S      0.69656  0.43993  0.90314     S
O       0.6994  0.59603  0.54757     O
O       0.6994  0.59603  0.95243     O
O       0.6994  0.90397  0.04757     O
O       0.6994  0.90397  0.45243     O
H       0.6997   0.5768   0.5077     H
H       0.6997   0.5768   0.9923     H
H       0.6997   0.6355   0.5386     H
H       0.6997   0.6355   0.9614     H
H       0.6997   0.8645   0.0386     H
H       0.6997   0.8645   0.4614     H
H       0.6997   0.9232   0.0077     H
H       0.6997   0.9232   0.4923     H
H       0.7215   0.1665   0.0787     H
H       0.7215   0.1665   0.4213     H
H       0.7215   0.3335   0.5787     H
H       0.7215   0.3335   0.9213     H
S        0.732  0.64776     0.75     S
S        0.732  0.85224     0.25     S
H       0.7351   0.5343     0.25     H
H       0.7351   0.9657     0.75     H
C       0.7754  0.14062     0.25     C
C       0.7754  0.35938     0.75     C
C       0.7848  0.13889  0.11724     C
C       0.7848  0.13889  0.38276     C
C       0.7848  0.36111  0.61724     C
C       0.7848  0.36111  0.88276     C
Ba     0.80404  0.06597  0.62022    Ba
Ba     0.80404  0.06597  0.87978    Ba
Ba     0.80404  0.43403  0.12022    Ba
Ba     0.80404  0.43403  0.37978    Ba
O       0.8051  0.02068  0.15331     O
O       0.8051  0.02068  0.34669     O
O       0.8051  0.47932  0.65331     O
O       0.8051  0.47932  0.84669     O
O       0.8177  0.04707  0.02838     O
O       0.8177  0.04707  0.47162     O
O       0.8177  0.45293  0.52838     O
O       0.8177  0.45293  0.97162     O
C        0.865  0.72518     0.75     C
C        0.865  0.77482     0.25     C
H       0.9226   0.1124     0.25     H
H       0.9226   0.3876     0.75     H
O       0.9683  0.60675     0.75     O
O       0.9683  0.89325     0.25     O
H       0.9793   0.7308   0.7077     H
H       0.9793   0.7308   0.7923     H
H       0.9793   0.7692   0.2077     H
H       0.9793   0.7692   0.2923     H
H       0.9826   0.1423   0.1195     H
H       0.9826   0.1423   0.3805     H
H       0.9826   0.3577   0.6195     H
H       0.9826   0.3577   0.8805     H
