data_I
_chemical_name_common  '/home/zhangsd/repos/MofS-CGCNN/ML/data/SSD/clean_cifs/OGUJIL_clean'
_cell_length_a  8.27230
_cell_length_b 20.34500
_cell_length_c  8.63430
_cell_angle_alpha 90.00000
_cell_angle_beta  92.36000
_cell_angle_gamma 90.00000
_space_group_name_H-M_alt      'P 1'


loop_
_space_group_symop_operation_xyz
  'x, y, z' 

loop_
_atom_site_label
_atom_site_fract_x
_atom_site_fract_y
_atom_site_fract_z
_atom_site_type_symbol
Cu         0.0      0.0      0.0    Cu
N       0.0005   0.5006   0.9279     N
H       0.0164   0.1316   0.7543     H
H       0.0167   0.6602   0.6299     H
C       0.0534  0.86668   0.8621     C
H       0.0586   0.1434   0.1479     H
H       0.0775   0.3449   0.6619     H
N       0.0804   0.0036  0.33536     N
N      0.11487  0.92172  0.91364     N
H        0.116   0.4977   0.3676     H
C       0.1209  0.64076   0.6414     C
C       0.1236  0.12535   0.7952     C
N       0.1487  0.76313    0.768     N
N       0.1507  0.00079  0.19038     N
N      0.15652  0.50047  0.13341     N
N         0.16  0.58353   0.5885     N
N      0.17476  0.07373  0.87118     N
N       0.1756   0.8263  0.82503     N
C       0.1833  0.36089   0.6454     C
H       0.1862   0.0042   0.5478     H
C       0.1923  0.49929   0.2883     C
C       0.1982  0.00305   0.4389     C
N      0.21693  0.41868  0.59159     N
N       0.2233  0.23125   0.7216     N
N       0.2468  0.16906  0.78326     N
N       0.2532  0.66906  0.71674     N
N       0.2767  0.73125   0.7784     N
N      0.28307  0.91868  0.90841     N
C       0.3018  0.50305   0.0611     C
C       0.3077  0.99929   0.2117     C
H       0.3138   0.5042   0.9522     H
C       0.3167  0.86089   0.8546     C
N       0.3244   0.3263  0.67497     N
N      0.32524  0.57373  0.62882     N
N         0.34  0.08353   0.9115     N
N      0.34348  0.00047  0.36659     N
N       0.3493  0.50079  0.30962     N
N       0.3513  0.26313    0.732     N
C       0.3764  0.62535   0.7048     C
C       0.3791  0.14076   0.8586     C
H        0.384   0.9977   0.1324     H
N      0.38513  0.42172  0.58636     N
N       0.4196   0.5036  0.16464     N
H       0.4225   0.8449   0.8381     H
H       0.4414   0.6434   0.3521     H
C       0.4466  0.36668   0.6379     C
H       0.4833   0.1602   0.8701     H
H       0.4836   0.6316   0.7457     H
N       0.4995   0.0006   0.5721     N
Cu         0.5      0.5      0.5    Cu
N       0.5005   0.9994   0.4279     N
H       0.5164   0.3684   0.2543     H
H       0.5167   0.8398   0.1299     H
C       0.5534  0.63332   0.3621     C
H       0.5586   0.3566   0.6479     H
H       0.5775   0.1551   0.1619     H
N       0.5804   0.4964  0.83536     N
N      0.61487  0.57828  0.41364     N
H        0.616   0.0023   0.8676     H
C       0.6209  0.85924   0.1414     C
C       0.6236  0.37465   0.2952     C
N       0.6487  0.73687    0.268     N
N       0.6507  0.49921  0.69038     N
N      0.65652  0.99953  0.63341     N
N         0.66  0.91647   0.0885     N
N      0.67476  0.42627  0.37118     N
N       0.6756   0.6737  0.32503     N
C       0.6833  0.13911   0.1454     C
H       0.6862   0.4958   0.0478     H
C       0.6923  0.00071   0.7883     C
C       0.6982  0.49695   0.9389     C
N      0.71693  0.08132  0.09159     N
N       0.7233  0.26875   0.2216     N
N       0.7468  0.33094  0.28326     N
N       0.7532  0.83094  0.21674     N
N       0.7767  0.76875   0.2784     N
N      0.78307  0.58132  0.40841     N
C       0.8018  0.99695   0.5611     C
C       0.8077  0.50071   0.7117     C
H       0.8138   0.9958   0.4522     H
C       0.8167  0.63911   0.3546     C
N       0.8244   0.1737  0.17497     N
N      0.82524  0.92627  0.12882     N
N         0.84  0.41647   0.4115     N
N      0.84348  0.49953  0.86659     N
N       0.8493  0.99921  0.80962     N
N       0.8513  0.23687    0.232     N
C       0.8764  0.87465   0.2048     C
C       0.8791  0.35924   0.3586     C
H        0.884   0.5023   0.6324     H
N      0.88513  0.07828  0.08636     N
N       0.9196   0.9964  0.66464     N
H       0.9225   0.6551   0.3381     H
H       0.9414   0.8566   0.8521     H
C       0.9466  0.13332   0.1379     C
H       0.9833   0.3398   0.3701     H
H       0.9836   0.8684   0.2457     H
N       0.9995   0.4994   0.0721     N
