data_I
_chemical_name_common  '/home/zhangsd/repos/MofS-CGCNN/ML/data/SSD/clean_cifs/OHAQEU_clean'
_cell_length_a 10.75510
_cell_length_b 10.75510
_cell_length_c 10.75510
_cell_angle_alpha 104.04100
_cell_angle_beta  112.25300
_cell_angle_gamma 112.25300
_space_group_name_H-M_alt      'P 1'


loop_
_space_group_symop_operation_xyz
  'x, y, z' 

loop_
_atom_site_label
_atom_site_fract_x
_atom_site_fract_y
_atom_site_fract_z
_atom_site_type_symbol
Nb         0.0  0.24964  0.24964    Nb
Nb         0.0  0.75036  0.75036    Nb
C       0.0526  0.29561  0.07641     C
C       0.0526  0.97619  0.75699     C
N      0.07173  0.08824  0.75631     N
N      0.07173  0.31542  0.98349     N
C      0.10181  0.29223  0.49222     C
C      0.10181  0.60959  0.80958     C
Fe     0.11028  0.30913  0.80115    Fe
N      0.14165  0.30643   0.6125     N
N      0.14165  0.52915  0.83522     N
C      0.19999  0.49222  0.39041     C
C      0.19999  0.80958  0.70777     C
C       0.2192  0.24301  0.29561     C
C       0.2192  0.92359  0.97619     C
N      0.30607   0.6125  0.47085     N
N      0.30607  0.83522  0.69357     N
N      0.33193  0.01651  0.08824     N
N      0.33193  0.24369  0.31542     N
Fe     0.49202  0.80115  0.69087    Fe
Fe     0.50798  0.19885  0.30913    Fe
N      0.66807  0.75631  0.68458     N
N      0.66807  0.98349  0.91176     N
N      0.69393  0.16478  0.30643     N
N      0.69393   0.3875  0.52915     N
C       0.7808  0.07641  0.02381     C
C       0.7808  0.75699  0.70439     C
C      0.80001  0.19042  0.29223     C
C      0.80001  0.50778  0.60959     C
N      0.85835  0.47085  0.16478     N
N      0.85835  0.69357   0.3875     N
Fe     0.88972  0.69087  0.19885    Fe
C      0.89819  0.39041  0.19042     C
C      0.89819  0.70777  0.50778     C
N      0.92827  0.68458  0.01651     N
N      0.92827  0.91176  0.24369     N
C       0.9474  0.02381  0.24301     C
C       0.9474  0.70439  0.92359     C
