data_I
_chemical_name_common  '/home/zhangsd/repos/MofS-CGCNN/ML/data/SSD/clean_cifs/OKILUR_clean'
_cell_length_a  7.74760
_cell_length_b 18.39300
_cell_length_c 18.75300
_cell_angle_alpha 90.00000
_cell_angle_beta  101.72000
_cell_angle_gamma 90.00000
_space_group_name_H-M_alt      'P 1'


loop_
_space_group_symop_operation_xyz
  'x, y, z' 

loop_
_atom_site_label
_atom_site_fract_x
_atom_site_fract_y
_atom_site_fract_z
_atom_site_type_symbol
C       0.0053   0.6806     0.63     C
C       0.0053   0.8194     0.13     C
H       0.0107   0.7179   0.2313     H
H       0.0107   0.7821   0.7313     H
O       0.0135   0.1444   0.9273     O
O       0.0135   0.3556   0.4273     O
O       0.0198   0.1529   0.8112     O
O       0.0198   0.3471   0.3112     O
O       0.0333   0.6086   0.3133     O
O       0.0333   0.8914   0.8133     O
C       0.0437   0.6971   0.1909     C
C       0.0437   0.8029   0.6909     C
C       0.0517   0.7406   0.1301     C
C       0.0517   0.7594   0.6301     C
C       0.0673   0.5785   0.2584     C
C       0.0673   0.9215   0.7584     C
Cd     0.08366  0.03696  0.86255    Cd
Cd     0.08366  0.46304  0.36255    Cd
C       0.0841    0.624   0.1915     C
C       0.0841    0.876   0.6915     C
O       0.0892   0.5104   0.2536     O
O       0.0892   0.9896   0.7536     O
C       0.0993   0.7097   0.0694     C
C       0.0993   0.7903   0.5694     C
H       0.1054   0.7381    0.029     H
H       0.1054   0.7619    0.529     H
C       0.1351   0.5927   0.1307     C
C       0.1351   0.9073   0.6307     C
C       0.1384   0.6348   0.0699     C
C       0.1384   0.8652   0.5699     C
H       0.1664   0.5439   0.1313     H
H       0.1664   0.9561   0.6313     H
O       0.1787   0.5206     0.47     O
O       0.1787   0.9794     0.97     O
C        0.193   0.6023   0.0061     C
C        0.193   0.8977   0.5061     C
N       0.2099   0.6356   0.9459     N
N       0.2099   0.8644   0.4459     N
N       0.2275   0.5313   0.0023     N
N       0.2275   0.9687   0.5023     N
N       0.2653   0.5847   0.9034     N
N       0.2653   0.9153   0.4034     N
C        0.273   0.5234   0.9369     C
C        0.273   0.9766   0.4369     C
H       0.2907   0.5921   0.8614     H
H       0.2907   0.9079   0.3614     H
C       0.3017   0.5636   0.4692     C
C       0.3017   0.9364   0.9692     C
H       0.3148   0.1015   0.5061     H
H       0.3148   0.3985   0.0061     H
C       0.3205   0.0477   0.4131     C
C       0.3205   0.4523   0.9131     C
H       0.3222   0.5996   0.5047     H
H       0.3222   0.9004   0.0047     H
C       0.3372   0.1076   0.4596     C
C       0.3372   0.3924   0.9596     C
H       0.3405   0.0204   0.3096     H
H       0.3405   0.4796   0.8096     H
C        0.351    0.059   0.3422     C
C        0.351    0.441   0.8422     C
C       0.3851    0.175   0.4396     C
C       0.3851    0.325   0.9396     C
O        0.394   0.2217   0.5571     O
O        0.394   0.2783   0.0571     O
C       0.3967   0.1278   0.3209     C
C       0.3967   0.3722   0.8209     C
O       0.4014   0.5617   0.4235     O
O       0.4014   0.9383   0.9235     O
C         0.41   0.2371   0.4936     C
C         0.41   0.2629   0.9936     C
C        0.412   0.1835   0.3675     C
C        0.412   0.3165   0.8675     C
C       0.4216   0.1385   0.2431     C
C       0.4216   0.3615   0.7431     C
O       0.4294   0.0846    0.204     O
O       0.4294   0.4154    0.704     O
O       0.4364   0.2022   0.2209     O
O       0.4364   0.2978   0.7209     O
H       0.4412   0.2292   0.3522     H
H       0.4412   0.2708   0.8522     H
O       0.4442   0.2005   0.9733     O
O       0.4442   0.2995   0.4733     O
Cd     0.45931  0.16342  0.10277    Cd
Cd     0.45931  0.33658  0.60277    Cd
Cd     0.54069  0.66342  0.39723    Cd
Cd     0.54069  0.83658  0.89723    Cd
O       0.5558   0.7005   0.5267     O
O       0.5558   0.7995   0.0267     O
H       0.5588   0.7292   0.1478     H
H       0.5588   0.7708   0.6478     H
O       0.5636   0.7022   0.2791     O
O       0.5636   0.7978   0.7791     O
O       0.5706   0.5846    0.296     O
O       0.5706   0.9154    0.796     O
C       0.5784   0.6385   0.2569     C
C       0.5784   0.8615   0.7569     C
C        0.588   0.6835   0.1325     C
C        0.588   0.8165   0.6325     C
C         0.59   0.7371   0.0064     C
C         0.59   0.7629   0.5064     C
O       0.5986   0.0617   0.0765     O
O       0.5986   0.4383   0.5765     O
C       0.6033   0.6278   0.1791     C
C       0.6033   0.8722   0.6791     C
O        0.606   0.7217   0.9429     O
O        0.606   0.7783   0.4429     O
C       0.6149    0.675   0.0604     C
C       0.6149    0.825   0.5604     C
C        0.649    0.559   0.1578     C
C        0.649    0.941   0.6578     C
H       0.6595   0.5204   0.1904     H
H       0.6595   0.9796   0.6904     H
C       0.6628   0.6076   0.0404     C
C       0.6628   0.8924   0.5404     C
H       0.6778   0.0996   0.9953     H
H       0.6778   0.4004   0.4953     H
C       0.6795   0.5477   0.0869     C
C       0.6795   0.9523   0.5869     C
H       0.6852   0.6015   0.9939     H
H       0.6852   0.8985   0.4939     H
C       0.6983   0.0636   0.0308     C
C       0.6983   0.4364   0.5308     C
H       0.7093   0.0921   0.6386     H
H       0.7093   0.4079   0.1386     H
C        0.727   0.0234   0.5631     C
C        0.727   0.4766   0.0631     C
N       0.7347   0.0847   0.5966     N
N       0.7347   0.4153   0.0966     N
N       0.7725   0.0313   0.4977     N
N       0.7725   0.4687   0.9977     N
N       0.7901   0.1356   0.5541     N
N       0.7901   0.3644   0.0541     N
C        0.807   0.1023   0.4939     C
C        0.807   0.3977   0.9939     C
O       0.8213   0.0206     0.03     O
O       0.8213   0.4794     0.53     O
H       0.8336   0.0439   0.3687     H
H       0.8336   0.4561   0.8687     H
C       0.8616   0.1348   0.4301     C
C       0.8616   0.3652   0.9301     C
C       0.8649   0.0927   0.3693     C
C       0.8649   0.4073   0.8693     C
H       0.8946   0.2381    0.471     H
H       0.8946   0.2619    0.971     H
C       0.9007   0.2097   0.4306     C
C       0.9007   0.2903   0.9306     C
O       0.9108   0.0104   0.2464     O
O       0.9108   0.4896   0.7464     O
C       0.9159    0.124   0.3085     C
C       0.9159    0.376   0.8085     C
Cd     0.91634  0.53696  0.63745    Cd
Cd     0.91634  0.96304  0.13745    Cd
C       0.9327   0.0785   0.2416     C
C       0.9327   0.4215   0.7416     C
C       0.9483   0.2406   0.3699     C
C       0.9483   0.2594   0.8699     C
C       0.9563   0.1971   0.3091     C
C       0.9563   0.3029   0.8091     C
O       0.9667   0.1086   0.1867     O
O       0.9667   0.3914   0.6867     O
O       0.9802   0.6529   0.6888     O
O       0.9802   0.8471   0.1888     O
O       0.9865   0.6444   0.5727     O
O       0.9865   0.8556   0.0727     O
H       0.9893   0.2179   0.2687     H
H       0.9893   0.2821   0.7687     H
C       0.9947   0.1806     0.87     C
C       0.9947   0.3194     0.37     C
