data_I
_chemical_name_common  '/home/zhangsd/repos/MofS-CGCNN/ML/data/SSD/clean_cifs/OMAMEU_clean'
_cell_length_a 10.47870
_cell_length_b 20.00910
_cell_length_c 14.95940
_cell_angle_alpha 90.00000
_cell_angle_beta  90.00000
_cell_angle_gamma 90.00000
_space_group_name_H-M_alt      'P 1'


loop_
_space_group_symop_operation_xyz
  'x, y, z' 

loop_
_atom_site_label
_atom_site_fract_x
_atom_site_fract_y
_atom_site_fract_z
_atom_site_type_symbol
P          0.0  0.11979     0.75     P
P          0.0  0.36202     0.75     P
P          0.0  0.63798     0.25     P
P          0.0  0.88021     0.25     P
O       0.0529   0.4086   0.0119     O
O       0.0529   0.5914   0.5119     O
O       0.0542    0.242   0.5204     O
O       0.0542    0.758   0.0204     O
O       0.0566    0.456   0.1622     O
O       0.0566    0.544   0.6622     O
Zn     0.07352  0.24372  0.88658    Zn
Zn     0.07352  0.75628  0.38658    Zn
O       0.0753   0.1616    0.814     O
O       0.0753   0.8384    0.314     O
O         0.08   0.3209   0.8112     O
O         0.08   0.6791   0.3112     O
H       0.0816   0.4328   0.2038     H
H       0.0816   0.5672   0.7038     H
O        0.087   0.0689   0.7019     O
O        0.087   0.9311   0.2019     O
O       0.0921   0.4068    0.698     O
O       0.0921   0.5932    0.198     O
Zn     0.09432  0.41107  0.56584    Zn
Zn     0.09432  0.58893  0.06584    Zn
Zn      0.1326  0.41614   0.4821    Zn
Zn      0.1326  0.58386   0.9821    Zn
P       0.1364  0.44127  0.07896     P
P       0.1364  0.55873  0.57896     P
H       0.1418    0.089   0.6734     H
H       0.1418    0.911   0.1734     H
O       0.1907   0.4937   0.5505     O
O       0.1907   0.5063   0.0505     O
P      0.19227  0.26569  0.52151     P
P      0.19227  0.73431  0.02151     P
O       0.2072     0.34   0.5397     O
O       0.2072     0.66   0.0397     O
O       0.2358   0.2671   0.1023     O
O       0.2358   0.7329   0.6023     O
H       0.2379   0.3079   0.0974     H
H       0.2379   0.6921   0.5974     H
O       0.2441   0.3935    0.103     O
O       0.2441   0.6065    0.603     O
O        0.245   0.2542   0.9348     O
O        0.245   0.7458   0.4348     O
O        0.255   0.2458   0.4348     O
O        0.255   0.7542   0.9348     O
O       0.2559   0.1065    0.603     O
O       0.2559   0.8935    0.103     O
H       0.2621   0.1921   0.5974     H
H       0.2621   0.8079   0.0974     H
O       0.2642   0.2329   0.6023     O
O       0.2642   0.7671   0.1023     O
O       0.2928     0.16   0.0397     O
O       0.2928     0.84   0.5397     O
P      0.30773  0.23431  0.02151     P
P      0.30773  0.76569  0.52151     P
O       0.3093   0.0063   0.0505     O
O       0.3093   0.9937   0.5505     O
H       0.3582    0.411   0.1734     H
H       0.3582    0.589   0.6734     H
P       0.3636  0.05873  0.57896     P
P       0.3636  0.94127  0.07896     P
Zn      0.3674  0.08386   0.9821    Zn
Zn      0.3674  0.91614   0.4821    Zn
Zn     0.40568  0.08893  0.06584    Zn
Zn     0.40568  0.91107  0.56584    Zn
O       0.4079   0.0932    0.198     O
O       0.4079   0.9068    0.698     O
O        0.413   0.4311   0.2019     O
O        0.413   0.5689   0.7019     O
H       0.4184   0.0672   0.7038     H
H       0.4184   0.9328   0.2038     H
O         0.42   0.1791   0.3112     O
O         0.42   0.8209   0.8112     O
O       0.4247   0.3384    0.314     O
O       0.4247   0.6616    0.814     O
Zn     0.42648  0.25628  0.38658    Zn
Zn     0.42648  0.74372  0.88658    Zn
O       0.4434    0.044   0.6622     O
O       0.4434    0.956   0.1622     O
O       0.4458    0.258   0.0204     O
O       0.4458    0.742   0.5204     O
O       0.4471   0.0914   0.5119     O
O       0.4471   0.9086   0.0119     O
P          0.5  0.13798     0.25     P
P          0.5  0.38021     0.25     P
P          0.5  0.61979     0.75     P
P          0.5  0.86202     0.75     P
O       0.5529   0.0914   0.9881     O
O       0.5529   0.9086   0.4881     O
O       0.5542    0.258   0.4796     O
O       0.5542    0.742   0.9796     O
O       0.5566    0.044   0.8378     O
O       0.5566    0.956   0.3378     O
Zn     0.57352  0.25628  0.11342    Zn
Zn     0.57352  0.74372  0.61342    Zn
O       0.5753   0.3384    0.186     O
O       0.5753   0.6616    0.686     O
O         0.58   0.1791   0.1888     O
O         0.58   0.8209   0.6888     O
H       0.5816   0.0672   0.7962     H
H       0.5816   0.9328   0.2962     H
O        0.587   0.4311   0.2981     O
O        0.587   0.5689   0.7981     O
O       0.5921   0.0932    0.302     O
O       0.5921   0.9068    0.802     O
Zn     0.59432  0.08893  0.43416    Zn
Zn     0.59432  0.91107  0.93416    Zn
Zn      0.6326  0.08386   0.5179    Zn
Zn      0.6326  0.91614   0.0179    Zn
P       0.6364  0.05873  0.92104     P
P       0.6364  0.94127  0.42104     P
H       0.6418    0.411   0.3266     H
H       0.6418    0.589   0.8266     H
O       0.6907   0.0063   0.4495     O
O       0.6907   0.9937   0.9495     O
P      0.69227  0.23431  0.47849     P
P      0.69227  0.76569  0.97849     P
O       0.7072     0.16   0.4603     O
O       0.7072     0.84   0.9603     O
O       0.7358   0.2329   0.8977     O
O       0.7358   0.7671   0.3977     O
H       0.7379   0.1921   0.9026     H
H       0.7379   0.8079   0.4026     H
O       0.7441   0.1065    0.897     O
O       0.7441   0.8935    0.397     O
O        0.745   0.2458   0.0652     O
O        0.745   0.7542   0.5652     O
O        0.755   0.2542   0.5652     O
O        0.755   0.7458   0.0652     O
O       0.7559   0.3935    0.397     O
O       0.7559   0.6065    0.897     O
H       0.7621   0.3079   0.4026     H
H       0.7621   0.6921   0.9026     H
O       0.7642   0.2671   0.3977     O
O       0.7642   0.7329   0.8977     O
O       0.7928     0.34   0.9603     O
O       0.7928     0.66   0.4603     O
P      0.80773  0.26569  0.97849     P
P      0.80773  0.73431  0.47849     P
O       0.8093   0.4937   0.9495     O
O       0.8093   0.5063   0.4495     O
H       0.8582    0.089   0.8266     H
H       0.8582    0.911   0.3266     H
P       0.8636  0.44127  0.42104     P
P       0.8636  0.55873  0.92104     P
Zn      0.8674  0.41614   0.0179    Zn
Zn      0.8674  0.58386   0.5179    Zn
Zn     0.90568  0.41107  0.93416    Zn
Zn     0.90568  0.58893  0.43416    Zn
O       0.9079   0.4068    0.802     O
O       0.9079   0.5932    0.302     O
O        0.913   0.0689   0.7981     O
O        0.913   0.9311   0.2981     O
H       0.9184   0.4328   0.2962     H
H       0.9184   0.5672   0.7962     H
O         0.92   0.3209   0.6888     O
O         0.92   0.6791   0.1888     O
O       0.9247   0.1616    0.686     O
O       0.9247   0.8384    0.186     O
Zn     0.92648  0.24372  0.61342    Zn
Zn     0.92648  0.75628  0.11342    Zn
O       0.9434    0.456   0.3378     O
O       0.9434    0.544   0.8378     O
O       0.9458    0.242   0.9796     O
O       0.9458    0.758   0.4796     O
O       0.9471   0.4086   0.4881     O
O       0.9471   0.5914   0.9881     O
