data_I
_chemical_name_common  '/home/zhangsd/repos/MofS-CGCNN/ML/data/SSD/clean_cifs/OMICOD_clean'
_cell_length_a 18.29500
_cell_length_b 14.54100
_cell_length_c 18.65500
_cell_angle_alpha 90.00000
_cell_angle_beta  90.00000
_cell_angle_gamma 90.00000
_space_group_name_H-M_alt      'P 1'


loop_
_space_group_symop_operation_xyz
  'x, y, z' 

loop_
_atom_site_label
_atom_site_fract_x
_atom_site_fract_y
_atom_site_fract_z
_atom_site_type_symbol
H        0.009    0.626   0.7431     H
H        0.009    0.874   0.2431     H
H       0.0296   0.5557   0.8573     H
H       0.0296   0.9443   0.3573     H
N      0.03816  0.22358  0.64421     N
N      0.03816  0.27642  0.14421     N
C        0.041  0.73997  0.85623     C
C        0.041  0.76003  0.35623     C
H       0.0448   0.7205   0.7235     H
H       0.0448   0.7795   0.2235     H
H       0.0505    0.701   0.3338     H
H       0.0505    0.799   0.8338     H
C      0.05509   0.6589  0.74069     C
C      0.05509   0.8411  0.24069     C
H       0.0566   0.1491   0.5553     H
H       0.0566   0.3509   0.0553     H
H       0.0572    0.744   0.9056     H
H       0.0572    0.756   0.4056     H
H       0.0736   0.6484   0.9939     H
H       0.0736   0.8516   0.4939     H
H       0.0756   0.2067   0.2339     H
H       0.0756   0.2933   0.7339     H
H       0.0761   0.0256   0.1921     H
H       0.0761   0.4744   0.6921     H
C      0.07672   0.1785  0.59496     C
C      0.07672   0.3215  0.09496     C
C      0.08107   0.5699  0.85145     C
C      0.08107   0.9301  0.35145     C
C      0.08679   0.2415  0.19362     C
C      0.08679   0.2585  0.69362     C
C      0.08714  0.66596  0.81758     C
C      0.08714  0.83404  0.31758     C
H        0.101   0.5257   0.8178     H
H        0.101   0.9743   0.3178     H
N      0.10214  0.61278  0.68862     N
N      0.10214  0.88722  0.18862     N
C       0.1043   0.5985  0.98569     C
C       0.1043   0.9015  0.48569     C
C      0.10472   0.5207  0.67224     C
C      0.10472   0.9793  0.17224     C
N      0.11735  0.55582  0.92099     N
N      0.11735  0.94418  0.42099     N
C       0.1452   0.5534  0.03506     C
C       0.1452   0.9466  0.53506     C
N      0.14752  0.18091   0.6098     N
N      0.14752  0.31909   0.1098     N
H       0.1478   0.5676   0.0836     H
H       0.1478   0.9324   0.5836     H
C      0.15165   0.6552  0.64734     C
C      0.15165   0.8448  0.14734     C
C      0.15372   0.2319  0.67183     C
C      0.15372   0.2681  0.17183     C
C        0.157   0.5108  0.62171     C
C        0.157   0.9892  0.12171     C
H       0.1602   0.7182   0.6475     H
H       0.1602   0.7818   0.1475     H
C       0.1635   0.0133  0.43323     C
C       0.1635   0.4867  0.93323     C
H       0.1659   0.7425   0.2831     H
H       0.1659   0.7575   0.7831     H
C      0.16677   0.7003  0.80993     C
C      0.16677   0.7997  0.30993     C
H       0.1683   0.6651   0.4166     H
H       0.1683   0.8349   0.9166     H
H       0.1695   0.1819   0.9865     H
H       0.1695   0.3181   0.4865     H
H       0.1708   0.0445   0.1006     H
H       0.1708   0.4555   0.6006     H
H       0.1803   0.0536   0.3982     H
H       0.1803   0.4464   0.8982     H
N      0.18225  0.01703  0.50147     N
N      0.18225  0.48297  0.00147     N
N      0.18667  0.59565  0.60638     N
N      0.18667  0.90435  0.10638     N
H       0.1935   0.6558   0.7814     H
H       0.1935   0.8442   0.2814     H
H       0.1974   0.2457    0.695     H
H       0.1974   0.2543    0.195     H
C      0.20239   0.7122  0.42115     C
C      0.20239   0.7878  0.92115     C
N      0.20785  0.71613  0.87646     N
N      0.20785  0.78387  0.37646     N
C      0.20834   0.2034  0.95905     C
C      0.20834   0.2966  0.45905     C
H       0.2183   0.1086   0.8786     H
H       0.2183   0.3914   0.3786     H
Zn     0.22629   0.1257  0.54842    Zn
Zn     0.22629   0.3743  0.04842    Zn
C      0.23516   0.1626  0.89966     C
C      0.23516   0.3374  0.39966     C
N      0.24815  0.21743   0.4725     N
N      0.24815  0.28257   0.9725     N
N      0.25185  0.71743   0.4725     N
N      0.25185  0.78257   0.9725     N
C      0.26484   0.6626  0.89966     C
C      0.26484   0.8374  0.39966     C
Zn     0.27371   0.6257  0.54842    Zn
Zn     0.27371   0.8743  0.04842    Zn
H       0.2817   0.6086   0.8786     H
H       0.2817   0.8914   0.3786     H
C      0.29166   0.7034  0.95905     C
C      0.29166   0.7966  0.45905     C
N      0.29215  0.21613  0.87646     N
N      0.29215  0.28387  0.37646     N
C      0.29761   0.2122  0.42115     C
C      0.29761   0.2878  0.92115     C
H       0.3026   0.7457    0.695     H
H       0.3026   0.7543    0.195     H
H       0.3065   0.1558   0.7814     H
H       0.3065   0.3442   0.2814     H
N      0.31333  0.09565  0.60638     N
N      0.31333  0.40435  0.10638     N
N      0.31775  0.51703  0.50147     N
N      0.31775  0.98297  0.00147     N
H       0.3197   0.5536   0.3982     H
H       0.3197   0.9464   0.8982     H
H       0.3292   0.5445   0.1006     H
H       0.3292   0.9555   0.6006     H
H       0.3305   0.6819   0.9865     H
H       0.3305   0.8181   0.4865     H
H       0.3317   0.1651   0.4166     H
H       0.3317   0.3349   0.9166     H
C      0.33323   0.2003  0.80993     C
C      0.33323   0.2997  0.30993     C
H       0.3341   0.2425   0.2831     H
H       0.3341   0.2575   0.7831     H
C       0.3365   0.5133  0.43323     C
C       0.3365   0.9867  0.93323     C
H       0.3398   0.2182   0.6475     H
H       0.3398   0.2818   0.1475     H
C        0.343   0.0108  0.62171     C
C        0.343   0.4892  0.12171     C
C      0.34628   0.7319  0.67183     C
C      0.34628   0.7681  0.17183     C
C      0.34835   0.1552  0.64734     C
C      0.34835   0.3448  0.14734     C
H       0.3522   0.0676   0.0836     H
H       0.3522   0.4324   0.5836     H
N      0.35248  0.68091   0.6098     N
N      0.35248  0.81909   0.1098     N
C       0.3548   0.0534  0.03506     C
C       0.3548   0.4466  0.53506     C
N      0.38265  0.05582  0.92099     N
N      0.38265  0.44418  0.42099     N
C      0.39528   0.0207  0.67224     C
C      0.39528   0.4793  0.17224     C
C       0.3957   0.0985  0.98569     C
C       0.3957   0.4015  0.48569     C
N      0.39786  0.11278  0.68862     N
N      0.39786  0.38722  0.18862     N
H        0.399   0.0257   0.8178     H
H        0.399   0.4743   0.3178     H
C      0.41286  0.16596  0.81758     C
C      0.41286  0.33404  0.31758     C
C      0.41321   0.7415  0.19362     C
C      0.41321   0.7585  0.69362     C
C      0.41893   0.0699  0.85145     C
C      0.41893   0.4301  0.35145     C
C      0.42328   0.6785  0.59496     C
C      0.42328   0.8215  0.09496     C
H       0.4239   0.5256   0.1921     H
H       0.4239   0.9744   0.6921     H
H       0.4244   0.7067   0.2339     H
H       0.4244   0.7933   0.7339     H
H       0.4264   0.1484   0.9939     H
H       0.4264   0.3516   0.4939     H
H       0.4428    0.244   0.9056     H
H       0.4428    0.256   0.4056     H
H       0.4434   0.6491   0.5553     H
H       0.4434   0.8509   0.0553     H
C      0.44491   0.1589  0.74069     C
C      0.44491   0.3411  0.24069     C
H       0.4495    0.201   0.3338     H
H       0.4495    0.299   0.8338     H
H       0.4552   0.2205   0.7235     H
H       0.4552   0.2795   0.2235     H
C        0.459  0.23997  0.85623     C
C        0.459  0.26003  0.35623     C
N      0.46184  0.72358  0.64421     N
N      0.46184  0.77642  0.14421     N
H       0.4704   0.0557   0.8573     H
H       0.4704   0.4443   0.3573     H
H        0.491    0.126   0.7431     H
H        0.491    0.374   0.2431     H
H        0.509    0.626   0.7569     H
H        0.509    0.874   0.2569     H
H       0.5296   0.5557   0.6427     H
H       0.5296   0.9443   0.1427     H
N      0.53816  0.22358  0.85579     N
N      0.53816  0.27642  0.35579     N
C        0.541  0.73997  0.64377     C
C        0.541  0.76003  0.14377     C
H       0.5448   0.7205   0.7765     H
H       0.5448   0.7795   0.2765     H
H       0.5505    0.701   0.1662     H
H       0.5505    0.799   0.6662     H
C      0.55509   0.6589  0.75931     C
C      0.55509   0.8411  0.25931     C
H       0.5566   0.1491   0.9447     H
H       0.5566   0.3509   0.4447     H
H       0.5572    0.744   0.5944     H
H       0.5572    0.756   0.0944     H
H       0.5736   0.6484   0.5061     H
H       0.5736   0.8516   0.0061     H
H       0.5756   0.2067   0.2661     H
H       0.5756   0.2933   0.7661     H
H       0.5761   0.0256   0.3079     H
H       0.5761   0.4744   0.8079     H
C      0.57672   0.1785  0.90504     C
C      0.57672   0.3215  0.40504     C
C      0.58107   0.5699  0.64855     C
C      0.58107   0.9301  0.14855     C
C      0.58679   0.2415  0.30638     C
C      0.58679   0.2585  0.80638     C
C      0.58714  0.66596  0.68242     C
C      0.58714  0.83404  0.18242     C
H        0.601   0.5257   0.6822     H
H        0.601   0.9743   0.1822     H
N      0.60214  0.61278  0.81138     N
N      0.60214  0.88722  0.31138     N
C       0.6043   0.5985  0.51431     C
C       0.6043   0.9015  0.01431     C
C      0.60472   0.5207  0.82776     C
C      0.60472   0.9793  0.32776     C
N      0.61735  0.55582  0.57901     N
N      0.61735  0.94418  0.07901     N
C       0.6452   0.5534  0.46494     C
C       0.6452   0.9466  0.96494     C
N      0.64752  0.18091   0.8902     N
N      0.64752  0.31909   0.3902     N
H       0.6478   0.5676   0.4164     H
H       0.6478   0.9324   0.9164     H
C      0.65165   0.6552  0.85266     C
C      0.65165   0.8448  0.35266     C
C      0.65372   0.2319  0.82817     C
C      0.65372   0.2681  0.32817     C
C        0.657   0.5108  0.87829     C
C        0.657   0.9892  0.37829     C
H       0.6602   0.7182   0.8525     H
H       0.6602   0.7818   0.3525     H
C       0.6635   0.0133  0.06677     C
C       0.6635   0.4867  0.56677     C
H       0.6659   0.7425   0.2169     H
H       0.6659   0.7575   0.7169     H
C      0.66677   0.7003  0.69007     C
C      0.66677   0.7997  0.19007     C
H       0.6683   0.6651   0.0834     H
H       0.6683   0.8349   0.5834     H
H       0.6695   0.1819   0.5135     H
H       0.6695   0.3181   0.0135     H
H       0.6708   0.0445   0.3994     H
H       0.6708   0.4555   0.8994     H
H       0.6803   0.0536   0.1018     H
H       0.6803   0.4464   0.6018     H
N      0.68225  0.01703  0.99853     N
N      0.68225  0.48297  0.49853     N
N      0.68667  0.59565  0.89362     N
N      0.68667  0.90435  0.39362     N
H       0.6935   0.6558   0.7186     H
H       0.6935   0.8442   0.2186     H
H       0.6974   0.2457    0.805     H
H       0.6974   0.2543    0.305     H
C      0.70239   0.7122  0.07885     C
C      0.70239   0.7878  0.57885     C
N      0.70785  0.71613  0.62354     N
N      0.70785  0.78387  0.12354     N
C      0.70834   0.2034  0.54095     C
C      0.70834   0.2966  0.04095     C
H       0.7183   0.1086   0.6214     H
H       0.7183   0.3914   0.1214     H
Zn     0.72629   0.1257  0.95158    Zn
Zn     0.72629   0.3743  0.45158    Zn
C      0.73516   0.1626  0.60034     C
C      0.73516   0.3374  0.10034     C
N      0.74815  0.21743   0.0275     N
N      0.74815  0.28257   0.5275     N
N      0.75185  0.71743   0.0275     N
N      0.75185  0.78257   0.5275     N
C      0.76484   0.6626  0.60034     C
C      0.76484   0.8374  0.10034     C
Zn     0.77371   0.6257  0.95158    Zn
Zn     0.77371   0.8743  0.45158    Zn
H       0.7817   0.6086   0.6214     H
H       0.7817   0.8914   0.1214     H
C      0.79166   0.7034  0.54095     C
C      0.79166   0.7966  0.04095     C
N      0.79215  0.21613  0.62354     N
N      0.79215  0.28387  0.12354     N
C      0.79761   0.2122  0.07885     C
C      0.79761   0.2878  0.57885     C
H       0.8026   0.7457    0.805     H
H       0.8026   0.7543    0.305     H
H       0.8065   0.1558   0.7186     H
H       0.8065   0.3442   0.2186     H
N      0.81333  0.09565  0.89362     N
N      0.81333  0.40435  0.39362     N
N      0.81775  0.51703  0.99853     N
N      0.81775  0.98297  0.49853     N
H       0.8197   0.5536   0.1018     H
H       0.8197   0.9464   0.6018     H
H       0.8292   0.5445   0.3994     H
H       0.8292   0.9555   0.8994     H
H       0.8305   0.6819   0.5135     H
H       0.8305   0.8181   0.0135     H
H       0.8317   0.1651   0.0834     H
H       0.8317   0.3349   0.5834     H
C      0.83323   0.2003  0.69007     C
C      0.83323   0.2997  0.19007     C
H       0.8341   0.2425   0.2169     H
H       0.8341   0.2575   0.7169     H
C       0.8365   0.5133  0.06677     C
C       0.8365   0.9867  0.56677     C
H       0.8398   0.2182   0.8525     H
H       0.8398   0.2818   0.3525     H
C        0.843   0.0108  0.87829     C
C        0.843   0.4892  0.37829     C
C      0.84628   0.7319  0.82817     C
C      0.84628   0.7681  0.32817     C
C      0.84835   0.1552  0.85266     C
C      0.84835   0.3448  0.35266     C
H       0.8522   0.0676   0.4164     H
H       0.8522   0.4324   0.9164     H
N      0.85248  0.68091   0.8902     N
N      0.85248  0.81909   0.3902     N
C       0.8548   0.0534  0.46494     C
C       0.8548   0.4466  0.96494     C
N      0.88265  0.05582  0.57901     N
N      0.88265  0.44418  0.07901     N
C      0.89528   0.0207  0.82776     C
C      0.89528   0.4793  0.32776     C
C       0.8957   0.0985  0.51431     C
C       0.8957   0.4015  0.01431     C
N      0.89786  0.11278  0.81138     N
N      0.89786  0.38722  0.31138     N
H        0.899   0.0257   0.6822     H
H        0.899   0.4743   0.1822     H
C      0.91286  0.16596  0.68242     C
C      0.91286  0.33404  0.18242     C
C      0.91321   0.7415  0.30638     C
C      0.91321   0.7585  0.80638     C
C      0.91893   0.0699  0.64855     C
C      0.91893   0.4301  0.14855     C
C      0.92328   0.6785  0.90504     C
C      0.92328   0.8215  0.40504     C
H       0.9239   0.5256   0.3079     H
H       0.9239   0.9744   0.8079     H
H       0.9244   0.7067   0.2661     H
H       0.9244   0.7933   0.7661     H
H       0.9264   0.1484   0.5061     H
H       0.9264   0.3516   0.0061     H
H       0.9428    0.244   0.5944     H
H       0.9428    0.256   0.0944     H
H       0.9434   0.6491   0.9447     H
H       0.9434   0.8509   0.4447     H
C      0.94491   0.1589  0.75931     C
C      0.94491   0.3411  0.25931     C
H       0.9495    0.201   0.1662     H
H       0.9495    0.299   0.6662     H
H       0.9552   0.2205   0.7765     H
H       0.9552   0.2795   0.2765     H
C        0.959  0.23997  0.64377     C
C        0.959  0.26003  0.14377     C
N      0.96184  0.72358  0.85579     N
N      0.96184  0.77642  0.35579     N
H       0.9704   0.0557   0.6427     H
H       0.9704   0.4443   0.1427     H
H        0.991    0.126   0.7569     H
H        0.991    0.374   0.2569     H
