data_I
_chemical_name_common  '/home/zhangsd/repos/MofS-CGCNN/ML/data/SSD/clean_cifs/OMOVET_clean'
_cell_length_a 18.76000
_cell_length_b 18.76000
_cell_length_c 17.99900
_cell_angle_alpha 90.00000
_cell_angle_beta  90.00000
_cell_angle_gamma 90.00000
_space_group_name_H-M_alt      'P 1'


loop_
_space_group_symop_operation_xyz
  'x, y, z' 

loop_
_atom_site_label
_atom_site_fract_x
_atom_site_fract_y
_atom_site_fract_z
_atom_site_type_symbol
Zn         0.0      0.0      0.0    Zn
N          0.0      0.0   0.1185     N
N          0.0      0.0   0.8815     N
N          0.0      0.5   0.1315     N
Zn         0.0      0.5     0.25    Zn
N          0.0      0.5   0.3685     N
N        0.001    0.662    0.297     N
N        0.001    0.838    0.953     N
C       0.0221   0.0299   0.7703     C
C       0.0221   0.4701   0.4797     C
H       0.0278   0.7326   0.9412     H
H       0.0278   0.7674   0.3088     H
N       0.0293   0.6136    0.251     N
N       0.0293   0.8864    0.999     N
C       0.0299   0.5221   0.0203     C
C       0.0299   0.9779   0.2297     C
N       0.0336   0.0484   0.8398     N
N       0.0336   0.4516   0.4102     N
C       0.0358   0.7243   0.2846     C
C       0.0358   0.7757   0.9654     C
O       0.0378   0.2092   0.7846     O
O       0.0378   0.2908   0.4654     O
H       0.0402   0.0527   0.7285     H
H       0.0402   0.4473   0.5215     H
N       0.0484   0.5336   0.0898     N
N       0.0484   0.9664   0.1602     N
H       0.0527   0.5402   0.9785     H
H       0.0527   0.9598   0.2715     H
S      0.05726     0.25    0.625     S
N       0.0797   0.6444   0.2108     N
N       0.0797   0.8556   0.0392     N
Zn     0.08407   0.1385  0.88833    Zn
Zn     0.08407   0.3615  0.36167    Zn
C       0.0845   0.7121   0.2305     C
C       0.0845   0.7879   0.0195     C
C       0.0966   0.1997   0.7628     C
C       0.0966   0.3003   0.4872     C
N       0.1136   0.0293    0.001     N
N       0.1136   0.4707    0.249     N
H       0.1158   0.7455   0.2107     H
H       0.1158   0.7545   0.0393     H
C       0.1196   0.2259    0.688     C
C       0.1196   0.2741    0.562     C
Zn      0.1385  0.58407  0.13833    Zn
Zn      0.1385  0.91593  0.11167    Zn
O        0.143    0.167   0.8005     O
O        0.143    0.333   0.4495     O
N       0.1444   0.0797   0.9608     N
N       0.1444   0.4203   0.2892     N
N        0.162    0.001    0.047     N
N        0.162    0.499    0.203     N
O        0.167    0.643   0.0505     O
O        0.167    0.857   0.1995     O
C        0.186   0.2352   0.6612     C
C        0.186   0.2648   0.5888     C
C       0.1997   0.5966   0.0128     C
C       0.1997   0.9034   0.2372     C
O       0.2092   0.5378   0.0346     O
O       0.2092   0.9622   0.2154     O
C       0.2121   0.0845   0.9805     C
C       0.2121   0.4155   0.2695     C
H       0.2234   0.7272   0.9372     H
H       0.2234   0.7728   0.3128     H
C       0.2243   0.0358   0.0346     C
C       0.2243   0.4642   0.2154     C
C       0.2259   0.6196    0.938     C
C       0.2259   0.8804    0.312     C
H       0.2272   0.2234   0.6872     H
H       0.2272   0.2766   0.5628     H
H       0.2326   0.0278   0.6912     H
H       0.2326   0.4722   0.5588     H
C       0.2352    0.686   0.9112     C
C       0.2352    0.814   0.3388     C
H       0.2455   0.1158   0.9607     H
H       0.2455   0.3842   0.2893     H
S         0.25  0.55726    0.875     S
S         0.25  0.94274    0.375     S
H       0.2545   0.1158   0.7893     H
H       0.2545   0.3842   0.4607     H
C       0.2648    0.686   0.8388     C
C       0.2648    0.814   0.4112     C
H       0.2674   0.0278   0.0588     H
H       0.2674   0.4722   0.1912     H
H       0.2728   0.2234   0.0628     H
H       0.2728   0.2766   0.1872     H
C       0.2741   0.6196    0.812     C
C       0.2741   0.8804    0.438     C
C       0.2757   0.0358   0.7154     C
C       0.2757   0.4642   0.5346     C
H       0.2766   0.7272   0.8128     H
H       0.2766   0.7728   0.4372     H
C       0.2879   0.0845   0.7695     C
C       0.2879   0.4155   0.4805     C
O       0.2908   0.5378   0.7154     O
O       0.2908   0.9622   0.5346     O
C       0.3003   0.5966   0.7372     C
C       0.3003   0.9034   0.5128     C
C        0.314   0.2352   0.0888     C
C        0.314   0.2648   0.1612     C
O        0.333    0.643   0.6995     O
O        0.333    0.857   0.5505     O
N        0.338    0.001    0.703     N
N        0.338    0.499    0.547     N
N       0.3556   0.0797   0.7892     N
N       0.3556   0.4203   0.4608     N
O        0.357    0.167   0.9495     O
O        0.357    0.333   0.3005     O
Zn      0.3615  0.58407  0.61167    Zn
Zn      0.3615  0.91593  0.63833    Zn
C       0.3804   0.2259    0.062     C
C       0.3804   0.2741    0.188     C
H       0.3842   0.7455   0.5393     H
H       0.3842   0.7545   0.7107     H
N       0.3864   0.0293    0.749     N
N       0.3864   0.4707    0.501     N
C       0.4034   0.1997   0.9872     C
C       0.4034   0.3003   0.2628     C
C       0.4155   0.7121   0.5195     C
C       0.4155   0.7879   0.7305     C
Zn     0.41593   0.1385  0.86167    Zn
Zn     0.41593   0.3615  0.38833    Zn
N       0.4203   0.6444   0.5392     N
N       0.4203   0.8556   0.7108     N
S      0.44274     0.25    0.125     S
H       0.4473   0.5402   0.7715     H
H       0.4473   0.9598   0.4785     H
N       0.4516   0.5336   0.6602     N
N       0.4516   0.9664   0.5898     N
H       0.4598   0.0527   0.0215     H
H       0.4598   0.4473   0.2285     H
O       0.4622   0.2092   0.9654     O
O       0.4622   0.2908   0.2846     O
C       0.4642   0.7243   0.4654     C
C       0.4642   0.7757   0.7846     C
N       0.4664   0.0484   0.9102     N
N       0.4664   0.4516   0.3398     N
C       0.4701   0.5221   0.7297     C
C       0.4701   0.9779   0.5203     C
N       0.4707   0.6136    0.499     N
N       0.4707   0.8864    0.751     N
H       0.4722   0.7326   0.8088     H
H       0.4722   0.7674   0.4412     H
C       0.4779   0.0299   0.9797     C
C       0.4779   0.4701   0.2703     C
N        0.499    0.662    0.453     N
N        0.499    0.838    0.797     N
N          0.5      0.0   0.6315     N
Zn         0.5      0.0     0.75    Zn
N          0.5      0.0   0.8685     N
N          0.5      0.5   0.3815     N
Zn         0.5      0.5      0.5    Zn
N          0.5      0.5   0.6185     N
N        0.501    0.162    0.797     N
N        0.501    0.338    0.453     N
C       0.5221   0.5299   0.2703     C
C       0.5221   0.9701   0.9797     C
H       0.5278   0.2326   0.4412     H
H       0.5278   0.2674   0.8088     H
N       0.5293   0.1136    0.751     N
N       0.5293   0.3864    0.499     N
C       0.5299   0.0221   0.5203     C
C       0.5299   0.4779   0.7297     C
N       0.5336   0.5484   0.3398     N
N       0.5336   0.9516   0.9102     N
C       0.5358   0.2243   0.7846     C
C       0.5358   0.2757   0.4654     C
O       0.5378   0.7092   0.2846     O
O       0.5378   0.7908   0.9654     O
H       0.5402   0.5527   0.2285     H
H       0.5402   0.9473   0.0215     H
N       0.5484   0.0336   0.5898     N
N       0.5484   0.4664   0.6602     N
H       0.5527   0.0402   0.4785     H
H       0.5527   0.4598   0.7715     H
S      0.55726     0.75    0.125     S
N       0.5797   0.1444   0.7108     N
N       0.5797   0.3556   0.5392     N
Zn     0.58407   0.6385  0.38833    Zn
Zn     0.58407   0.8615  0.86167    Zn
C       0.5845   0.2121   0.7305     C
C       0.5845   0.2879   0.5195     C
C       0.5966   0.6997   0.2628     C
C       0.5966   0.8003   0.9872     C
N       0.6136   0.5293    0.501     N
N       0.6136   0.9707    0.749     N
H       0.6158   0.2455   0.7107     H
H       0.6158   0.2545   0.5393     H
C       0.6196   0.7259    0.188     C
C       0.6196   0.7741    0.062     C
Zn      0.6385  0.08407  0.63833    Zn
Zn      0.6385  0.41593  0.61167    Zn
O        0.643    0.667   0.3005     O
O        0.643    0.833   0.9495     O
N       0.6444   0.5797   0.4608     N
N       0.6444   0.9203   0.7892     N
N        0.662    0.501    0.547     N
N        0.662    0.999    0.703     N
O        0.667    0.143   0.5505     O
O        0.667    0.357   0.6995     O
C        0.686   0.7352   0.1612     C
C        0.686   0.7648   0.0888     C
C       0.6997   0.0966   0.5128     C
C       0.6997   0.4034   0.7372     C
O       0.7092   0.0378   0.5346     O
O       0.7092   0.4622   0.7154     O
C       0.7121   0.5845   0.4805     C
C       0.7121   0.9155   0.7695     C
H       0.7234   0.2272   0.4372     H
H       0.7234   0.2728   0.8128     H
C       0.7243   0.5358   0.5346     C
C       0.7243   0.9642   0.7154     C
C       0.7259   0.1196    0.438     C
C       0.7259   0.3804    0.812     C
H       0.7272   0.7234   0.1872     H
H       0.7272   0.7766   0.0628     H
H       0.7326   0.5278   0.1912     H
H       0.7326   0.9722   0.0588     H
C       0.7352    0.186   0.4112     C
C       0.7352    0.314   0.8388     C
H       0.7455   0.6158   0.4607     H
H       0.7455   0.8842   0.7893     H
S         0.75  0.05726    0.375     S
S         0.75  0.44274    0.875     S
H       0.7545   0.6158   0.2893     H
H       0.7545   0.8842   0.9607     H
C       0.7648    0.186   0.3388     C
C       0.7648    0.314   0.9112     C
H       0.7674   0.5278   0.5588     H
H       0.7674   0.9722   0.6912     H
H       0.7728   0.7234   0.5628     H
H       0.7728   0.7766   0.6872     H
C       0.7741   0.1196    0.312     C
C       0.7741   0.3804    0.938     C
C       0.7757   0.5358   0.2154     C
C       0.7757   0.9642   0.0346     C
H       0.7766   0.2272   0.3128     H
H       0.7766   0.2728   0.9372     H
C       0.7879   0.5845   0.2695     C
C       0.7879   0.9155   0.9805     C
O       0.7908   0.0378   0.2154     O
O       0.7908   0.4622   0.0346     O
C       0.8003   0.0966   0.2372     C
C       0.8003   0.4034   0.0128     C
C        0.814   0.7352   0.5888     C
C        0.814   0.7648   0.6612     C
O        0.833    0.143   0.1995     O
O        0.833    0.357   0.0505     O
N        0.838    0.501    0.203     N
N        0.838    0.999    0.047     N
N       0.8556   0.5797   0.2892     N
N       0.8556   0.9203   0.9608     N
O        0.857    0.667   0.4495     O
O        0.857    0.833   0.8005     O
Zn      0.8615  0.08407  0.11167    Zn
Zn      0.8615  0.41593  0.13833    Zn
C       0.8804   0.7259    0.562     C
C       0.8804   0.7741    0.688     C
H       0.8842   0.2455   0.0393     H
H       0.8842   0.2545   0.2107     H
N       0.8864   0.5293    0.249     N
N       0.8864   0.9707    0.001     N
C       0.9034   0.6997   0.4872     C
C       0.9034   0.8003   0.7628     C
C       0.9155   0.2121   0.0195     C
C       0.9155   0.2879   0.2305     C
Zn     0.91593   0.6385  0.36167    Zn
Zn     0.91593   0.8615  0.88833    Zn
N       0.9203   0.1444   0.0392     N
N       0.9203   0.3556   0.2108     N
S      0.94274     0.75    0.625     S
H       0.9473   0.0402   0.2715     H
H       0.9473   0.4598   0.9785     H
N       0.9516   0.0336   0.1602     N
N       0.9516   0.4664   0.0898     N
H       0.9598   0.5527   0.5215     H
H       0.9598   0.9473   0.7285     H
O       0.9622   0.7092   0.4654     O
O       0.9622   0.7908   0.7846     O
C       0.9642   0.2243   0.9654     C
C       0.9642   0.2757   0.2846     C
N       0.9664   0.5484   0.4102     N
N       0.9664   0.9516   0.8398     N
C       0.9701   0.0221   0.2297     C
C       0.9701   0.4779   0.0203     C
N       0.9707   0.1136    0.999     N
N       0.9707   0.3864    0.251     N
H       0.9722   0.2326   0.3088     H
H       0.9722   0.2674   0.9412     H
C       0.9779   0.5299   0.4797     C
C       0.9779   0.9701   0.7703     C
N        0.999    0.162    0.953     N
N        0.999    0.338    0.297     N
