data_I
_chemical_name_common  '/home/zhangsd/repos/MofS-CGCNN/ML/data/SSD/clean_cifs/OMUSAS_clean'
_cell_length_a 35.75500
_cell_length_b 35.75500
_cell_length_c 35.75500
_cell_angle_alpha 90.00000
_cell_angle_beta  90.00000
_cell_angle_gamma 90.00000
_space_group_name_H-M_alt      'P 1'


loop_
_space_group_symop_operation_xyz
  'x, y, z' 

loop_
_atom_site_label
_atom_site_fract_x
_atom_site_fract_y
_atom_site_fract_z
_atom_site_type_symbol
C        0.005   0.1551   0.6741     C
C        0.005   0.8449   0.8259     C
C       0.0063   0.2042    0.628     C
C       0.0063   0.7958    0.872     C
C       0.0149   0.4402   0.6287     C
C       0.0149   0.5598   0.8713     C
C       0.0222   0.1864   0.6587     C
C       0.0222   0.8136   0.8413     C
C       0.0267   0.3093  0.61267     C
C       0.0267   0.6907  0.88733     C
C       0.0281   0.3584   0.6587     C
C       0.0281   0.6416   0.8413     C
C       0.0293   0.4319   0.6667     C
C       0.0293   0.5681   0.8333     C
C      0.04392   0.3406    0.628     C
C      0.04392   0.6594    0.872     C
C       0.0527   0.3943   0.6722     C
C       0.0527   0.6057   0.8278     C
C      0.05901   0.1917    0.671     C
C      0.05901   0.8083    0.829     C
C       0.0598   0.3713   0.5149     C
C       0.0598   0.6287   0.9851     C
C       0.0681   0.3333   0.5293     C
C       0.0681   0.6667   0.9707     C
C       0.0697   0.2291  0.67063     C
C       0.0697   0.7709  0.82937     C
C       0.0706    0.383   0.7129     C
C       0.0706    0.617   0.7871     C
C       0.0823   0.3683   0.6153     C
C       0.0823   0.6317   0.8847     C
C       0.0833  0.16466   0.6847     C
C       0.0833  0.83534   0.8153     C
C       0.0853   0.3966   0.6392     C
C       0.0853   0.6034   0.8608     C
C       0.0926     0.35   0.7163     C
C       0.0926     0.65   0.7837     C
C       0.1034   0.3608   0.5853     C
C       0.1034   0.6392   0.9147     C
C       0.1047  0.23939    0.684     C
C       0.1047  0.76061    0.816     C
C       0.1057   0.3278   0.5527     C
C       0.1057   0.6722   0.9473     C
C      0.11267   0.4733   0.6907     C
C      0.11267   0.5267   0.8093     C
C       0.1153   0.4177   0.6317     C
C       0.1153   0.5823   0.8683     C
C        0.117   0.2871   0.5706     C
C        0.117   0.7129   0.9294     C
C       0.1183    0.175   0.6982     C
C       0.1183    0.825   0.8018     C
C        0.128  0.45608   0.6594     C
C        0.128   0.4937   0.7958     C
C        0.128   0.5063   0.7042     C
C        0.128  0.54392   0.8406     C
C       0.1287   0.4851   0.5598     C
C       0.1287   0.5149   0.9402     C
C      0.12902   0.2123  0.69781     C
C      0.12902   0.7877  0.80219     C
C       0.1317   0.3847   0.5823     C
C       0.1317   0.6153   0.9177     C
C       0.1392   0.4147   0.6034     C
C       0.1392   0.5853   0.8966     C
C       0.1416   0.3413   0.5281     C
C       0.1416   0.6587   0.9719     C
C         0.15   0.2837   0.5926     C
C         0.15   0.7163   0.9074     C
C       0.1551   0.3259    0.495     C
C       0.1551   0.6741    0.005     C
C       0.1587   0.4719   0.6416     C
C       0.1587   0.4778   0.8136     C
C       0.1587   0.5222   0.6864     C
C       0.1587   0.5281   0.8584     C
C       0.1594    0.372  0.54392     C
C       0.1594    0.628  0.95608     C
C      0.16466   0.3153   0.4167     C
C      0.16466   0.6847   0.0833     C
C       0.1667   0.4707   0.5681     C
C       0.1667   0.5293   0.9319     C
C       0.1682   0.2233   0.7122     C
C       0.1682   0.7767   0.7878     C
C      0.17063   0.4303   0.7709     C
C      0.17063   0.5697   0.7291     C
C        0.171  0.44099   0.8083     C
C        0.171  0.55901   0.6917     C
C       0.1722   0.4473   0.6057     C
C       0.1722   0.5527   0.8943     C
O      0.17404   0.2561   0.7081     O
O      0.17404   0.7439   0.7919     O
C       0.1741    0.495   0.8449     C
C       0.1741    0.505   0.6551     C
C        0.175   0.3018   0.3817     C
C        0.175   0.6982   0.1183     C
C        0.184   0.3953  0.76061     C
C        0.184   0.6047  0.73939     C
C       0.1847   0.4167  0.83534     C
C       0.1847   0.5833  0.66466     C
C       0.1864   0.3413   0.4778     C
C       0.1864   0.6587   0.0222     C
O       0.1876   0.1966   0.7223     O
O       0.1876   0.8034   0.7777     O
C       0.1907  0.38733   0.5267     C
C       0.1907  0.61267   0.9733     C
C       0.1917    0.329  0.44099     C
C       0.1917    0.671  0.05901     C
Zn     0.19608  0.25177  0.26398    Zn
Zn     0.19608  0.74823  0.23602    Zn
O       0.1966   0.2777   0.3124     O
O       0.1966   0.7223   0.1876     O
C      0.19781  0.37098   0.7877     C
C      0.19781  0.62902   0.7123     C
C       0.1982   0.3817    0.825     C
C       0.1982   0.6183    0.675     C
C       0.2042    0.372   0.4937     C
C       0.2042    0.628   0.0063     C
O       0.2081  0.32596   0.7439     O
O       0.2081  0.67404   0.7561     O
C       0.2122   0.3318   0.7767     C
C       0.2122   0.6682   0.7233     C
C       0.2123  0.30219  0.37098     C
C       0.2123  0.69781  0.12902     C
C       0.2129   0.4294    0.617     C
C       0.2129   0.5706    0.883     C
C       0.2163   0.4074     0.65     C
C       0.2163   0.5926     0.85     C
Zn     0.22149  0.27851  0.72149    Zn
Zn     0.22149  0.72149  0.77851    Zn
O       0.2223   0.3124   0.8034     O
O       0.2223   0.6876   0.6966     O
C       0.2233   0.2878   0.3318     C
C       0.2233   0.7122   0.1682     C
C       0.2291  0.32937   0.4303     C
C       0.2291  0.67063   0.0697     C
Zn     0.23602  0.19608  0.74823    Zn
Zn     0.23602  0.80392  0.75177    Zn
C      0.23939    0.316   0.3953     C
C      0.23939    0.684   0.1047     C
O       0.2439   0.2919  0.67404     O
O       0.2439   0.7081  0.82596     O
O      0.24701  0.24701  0.24701     O
O      0.24701  0.75299  0.25299     O
Zn     0.24823  0.26398  0.80392    Zn
Zn     0.24823  0.73602  0.69608    Zn
Zn     0.25177  0.26398  0.19608    Zn
Zn     0.25177  0.73602  0.30392    Zn
O      0.25299  0.24701  0.75299     O
O      0.25299  0.75299  0.74701     O
O       0.2561   0.2919  0.32596     O
O       0.2561   0.7081  0.17404     O
C      0.26061    0.316   0.6047     C
C      0.26061    0.684   0.8953     C
Zn     0.26398  0.19608  0.25177    Zn
Zn     0.26398  0.80392  0.24823    Zn
C       0.2709  0.32937   0.5697     C
C       0.2709  0.67063   0.9303     C
C       0.2767   0.2878   0.6682     C
C       0.2767   0.7122   0.8318     C
O       0.2777   0.3124   0.1966     O
O       0.2777   0.6876   0.3034     O
Zn     0.27851  0.27851  0.27851    Zn
Zn     0.27851  0.72149  0.22149    Zn
C       0.2837   0.4074     0.35     C
C       0.2837   0.5926     0.15     C
C       0.2871   0.4294    0.383     C
C       0.2871   0.5706    0.117     C
C       0.2877  0.30219  0.62902     C
C       0.2877  0.69781  0.87098     C
C       0.2878   0.3318   0.2233     C
C       0.2878   0.6682   0.2767     C
O       0.2919  0.32596   0.2561     O
O       0.2919  0.67404   0.2439     O
C       0.2958    0.372   0.5063     C
C       0.2958    0.628   0.9937     C
C       0.3018   0.3817    0.175     C
C       0.3018   0.6183    0.325     C
C      0.30219  0.37098   0.2123     C
C      0.30219  0.62902   0.2877     C
O       0.3034   0.2777   0.6876     O
O       0.3034   0.7223   0.8124     O
Zn     0.30392  0.25177  0.73602    Zn
Zn     0.30392  0.74823  0.76398    Zn
C       0.3083    0.329  0.55901     C
C       0.3083    0.671  0.94099     C
C       0.3093  0.38733   0.4733     C
C       0.3093  0.61267   0.0267     C
O       0.3124   0.1966   0.2777     O
O       0.3124   0.8034   0.2223     O
C       0.3136   0.3413   0.5222     C
C       0.3136   0.6587   0.9778     C
C       0.3153   0.4167  0.16466     C
C       0.3153   0.5833  0.33534     C
C        0.316   0.3953  0.23939     C
C        0.316   0.6047  0.26061     C
C        0.325   0.3018   0.6183     C
C        0.325   0.6982   0.8817     C
C       0.3259    0.495   0.1551     C
C       0.3259    0.505   0.3449     C
O      0.32596   0.2561   0.2919     O
O      0.32596   0.7439   0.2081     O
C       0.3278   0.4473   0.3943     C
C       0.3278   0.5527   0.1057     C
C        0.329  0.44099   0.1917     C
C        0.329  0.55901   0.3083     C
C      0.32937   0.4303   0.2291     C
C      0.32937   0.5697   0.2709     C
C       0.3318   0.2233   0.2878     C
C       0.3318   0.7767   0.2122     C
C       0.3333   0.4707   0.4319     C
C       0.3333   0.5293   0.0681     C
C      0.33534   0.3153   0.5833     C
C      0.33534   0.6847   0.9167     C
C       0.3406    0.372  0.45608     C
C       0.3406    0.628  0.04392     C
C       0.3413   0.4719   0.3584     C
C       0.3413   0.4778   0.1864     C
C       0.3413   0.5222   0.3136     C
C       0.3413   0.5281   0.1416     C
C       0.3449   0.3259    0.505     C
C       0.3449   0.6741    0.995     C
C         0.35   0.2837   0.4074     C
C         0.35   0.7163   0.0926     C
C       0.3584   0.3413   0.4719     C
C       0.3584   0.6587   0.0281     C
C       0.3608   0.4147   0.3966     C
C       0.3608   0.5853   0.1034     C
C       0.3683   0.3847   0.4177     C
C       0.3683   0.6153   0.0823     C
C      0.37098   0.2123  0.30219     C
C      0.37098   0.7877  0.19781     C
C       0.3713   0.4851   0.4402     C
C       0.3713   0.5149   0.0598     C
C        0.372  0.45608   0.3406     C
C        0.372   0.4937   0.2042     C
C        0.372   0.5063   0.2958     C
C        0.372  0.54392   0.1594     C
C       0.3817    0.175   0.3018     C
C       0.3817    0.825   0.1982     C
C        0.383   0.2871   0.4294     C
C        0.383   0.7129   0.0706     C
C       0.3847   0.4177   0.3683     C
C       0.3847   0.5823   0.1317     C
C      0.38733   0.4733   0.3093     C
C      0.38733   0.5267   0.1907     C
C       0.3943   0.3278   0.4473     C
C       0.3943   0.6722   0.0527     C
C       0.3953  0.23939    0.316     C
C       0.3953  0.76061    0.184     C
C       0.3966   0.3608   0.4147     C
C       0.3966   0.6392   0.0853     C
C       0.4074     0.35   0.2837     C
C       0.4074     0.65   0.2163     C
C       0.4147   0.3966   0.3608     C
C       0.4147   0.6034   0.1392     C
C       0.4167  0.16466   0.3153     C
C       0.4167  0.83534   0.1847     C
C       0.4177   0.3683   0.3847     C
C       0.4177   0.6317   0.1153     C
C       0.4294    0.383   0.2871     C
C       0.4294    0.617   0.2129     C
C       0.4303   0.2291  0.32937     C
C       0.4303   0.7709  0.17063     C
C       0.4319   0.3333   0.4707     C
C       0.4319   0.6667   0.0293     C
C       0.4402   0.3713   0.4851     C
C       0.4402   0.6287   0.0149     C
C      0.44099   0.1917    0.329     C
C      0.44099   0.8083    0.171     C
C       0.4473   0.3943   0.3278     C
C       0.4473   0.6057   0.1722     C
C      0.45608   0.3406    0.372     C
C      0.45608   0.6594    0.128     C
C       0.4707   0.4319   0.3333     C
C       0.4707   0.5681   0.1667     C
C       0.4719   0.3584   0.3413     C
C       0.4719   0.6416   0.1587     C
C       0.4733   0.3093  0.38733     C
C       0.4733   0.6907  0.11267     C
C       0.4778   0.1864   0.3413     C
C       0.4778   0.8136   0.1587     C
C       0.4851   0.4402   0.3713     C
C       0.4851   0.5598   0.1287     C
C       0.4937   0.2042    0.372     C
C       0.4937   0.7958    0.128     C
C        0.495   0.1551   0.3259     C
C        0.495   0.8449   0.1741     C
C        0.505   0.3449   0.3259     C
C        0.505   0.6551   0.1741     C
C       0.5063   0.2958    0.372     C
C       0.5063   0.7042    0.128     C
C       0.5149   0.0598   0.3713     C
C       0.5149   0.9402   0.1287     C
C       0.5222   0.3136   0.3413     C
C       0.5222   0.6864   0.1587     C
C       0.5267   0.1907  0.38733     C
C       0.5267   0.8093  0.11267     C
C       0.5281   0.1416   0.3413     C
C       0.5281   0.8584   0.1587     C
C       0.5293   0.0681   0.3333     C
C       0.5293   0.9319   0.1667     C
C      0.54392   0.1594    0.372     C
C      0.54392   0.8406    0.128     C
C       0.5527   0.1057   0.3278     C
C       0.5527   0.8943   0.1722     C
C      0.55901   0.3083    0.329     C
C      0.55901   0.6917    0.171     C
C       0.5598   0.1287   0.4851     C
C       0.5598   0.8713   0.0149     C
C       0.5681   0.1667   0.4707     C
C       0.5681   0.8333   0.0293     C
C       0.5697   0.2709  0.32937     C
C       0.5697   0.7291  0.17063     C
C       0.5706    0.117   0.2871     C
C       0.5706    0.883   0.2129     C
C       0.5823   0.1317   0.3847     C
C       0.5823   0.8683   0.1153     C
C       0.5833  0.33534   0.3153     C
C       0.5833  0.66466   0.1847     C
C       0.5853   0.1034   0.3608     C
C       0.5853   0.8966   0.1392     C
C       0.5926     0.15   0.2837     C
C       0.5926     0.85   0.2163     C
C       0.6034   0.1392   0.4147     C
C       0.6034   0.8608   0.0853     C
C       0.6047  0.26061    0.316     C
C       0.6047  0.73939    0.184     C
C       0.6057   0.1722   0.4473     C
C       0.6057   0.8278   0.0527     C
C      0.61267   0.0267   0.3093     C
C      0.61267   0.9733   0.1907     C
C       0.6153   0.0823   0.3683     C
C       0.6153   0.9177   0.1317     C
C        0.617   0.2129   0.4294     C
C        0.617   0.7871   0.0706     C
C       0.6183    0.325   0.3018     C
C       0.6183    0.675   0.1982     C
C        0.628   0.0063   0.2042     C
C        0.628  0.04392   0.3406     C
C        0.628  0.95608   0.1594     C
C        0.628   0.9937   0.2958     C
C       0.6287   0.0149   0.4402     C
C       0.6287   0.9851   0.0598     C
C      0.62902   0.2877  0.30219     C
C      0.62902   0.7123  0.19781     C
C       0.6317   0.1153   0.4177     C
C       0.6317   0.8847   0.0823     C
C       0.6392   0.0853   0.3966     C
C       0.6392   0.9147   0.1034     C
C       0.6416   0.1587   0.4719     C
C       0.6416   0.8413   0.0281     C
C         0.65   0.2163   0.4074     C
C         0.65   0.7837   0.0926     C
C       0.6551   0.1741    0.505     C
C       0.6551   0.8259    0.995     C
C       0.6587   0.0222   0.1864     C
C       0.6587   0.0281   0.3584     C
C       0.6587   0.9719   0.1416     C
C       0.6587   0.9778   0.3136     C
C       0.6594    0.128  0.45608     C
C       0.6594    0.872  0.04392     C
C      0.66466   0.1847   0.5833     C
C      0.66466   0.8153   0.9167     C
C       0.6667   0.0293   0.4319     C
C       0.6667   0.9707   0.0681     C
C       0.6682   0.2767   0.2878     C
C       0.6682   0.7233   0.2122     C
C      0.67063   0.0697   0.2291     C
C      0.67063   0.9303   0.2709     C
C        0.671  0.05901   0.1917     C
C        0.671  0.94099   0.3083     C
C       0.6722   0.0527   0.3943     C
C       0.6722   0.9473   0.1057     C
O      0.67404   0.2439   0.2919     O
O      0.67404   0.7561   0.2081     O
C       0.6741    0.005   0.1551     C
C       0.6741    0.995   0.3449     C
C        0.675   0.1982   0.6183     C
C        0.675   0.8018   0.8817     C
C        0.684   0.1047  0.23939     C
C        0.684   0.8953  0.26061     C
C       0.6847   0.0833  0.16466     C
C       0.6847   0.9167  0.33534     C
C       0.6864   0.1587   0.5222     C
C       0.6864   0.8413   0.9778     C
O       0.6876   0.3034   0.2777     O
O       0.6876   0.6966   0.2223     O
C       0.6907  0.11267   0.4733     C
C       0.6907  0.88733   0.0267     C
C       0.6917    0.171  0.55901     C
C       0.6917    0.829  0.94099     C
Zn     0.69608  0.24823  0.73602    Zn
Zn     0.69608  0.75177  0.76398    Zn
O       0.6966   0.2223   0.6876     O
O       0.6966   0.7777   0.8124     O
C      0.69781  0.12902   0.2123     C
C      0.69781  0.87098   0.2877     C
C       0.6982   0.1183    0.175     C
C       0.6982   0.8817    0.325     C
C       0.7042    0.128   0.5063     C
C       0.7042    0.872   0.9937     C
O       0.7081  0.17404   0.2561     O
O       0.7081  0.82596   0.2439     O
C       0.7122   0.1682   0.2233     C
C       0.7122   0.8318   0.2767     C
C       0.7123  0.19781  0.62902     C
C       0.7123  0.80219  0.87098     C
C       0.7129   0.0706    0.383     C
C       0.7129   0.9294    0.117     C
C       0.7163   0.0926     0.35     C
C       0.7163   0.9074     0.15     C
Zn     0.72149  0.22149  0.27851    Zn
Zn     0.72149  0.77851  0.22149    Zn
O       0.7223   0.1876   0.1966     O
O       0.7223   0.8124   0.3034     O
C       0.7233   0.2122   0.6682     C
C       0.7233   0.7878   0.8318     C
C       0.7291  0.17063   0.5697     C
C       0.7291  0.82937   0.9303     C
Zn     0.73602  0.30392  0.25177    Zn
Zn     0.73602  0.69608  0.24823    Zn
C      0.73939    0.184   0.6047     C
C      0.73939    0.816   0.8953     C
O       0.7439   0.2081  0.32596     O
O       0.7439   0.7919  0.17404     O
O      0.74701  0.25299  0.75299     O
O      0.74701  0.74701  0.74701     O
Zn     0.74823  0.23602  0.19608    Zn
Zn     0.74823  0.76398  0.30392    Zn
Zn     0.75177  0.23602  0.80392    Zn
Zn     0.75177  0.76398  0.69608    Zn
O      0.75299  0.25299  0.24701     O
O      0.75299  0.74701  0.25299     O
O       0.7561   0.2081  0.67404     O
O       0.7561   0.7919  0.82596     O
C      0.76061    0.184   0.3953     C
C      0.76061    0.816   0.1047     C
Zn     0.76398  0.30392  0.74823    Zn
Zn     0.76398  0.69608  0.75177    Zn
C       0.7709  0.17063   0.4303     C
C       0.7709  0.82937   0.0697     C
C       0.7767   0.2122   0.3318     C
C       0.7767   0.7878   0.1682     C
O       0.7777   0.1876   0.8034     O
O       0.7777   0.8124   0.6966     O
Zn     0.77851  0.22149  0.72149    Zn
Zn     0.77851  0.77851  0.77851    Zn
C       0.7837   0.0926     0.65     C
C       0.7837   0.9074     0.85     C
C       0.7871   0.0706    0.617     C
C       0.7871   0.9294    0.883     C
C       0.7877  0.19781  0.37098     C
C       0.7877  0.80219  0.12902     C
C       0.7878   0.1682   0.7767     C
C       0.7878   0.8318   0.7233     C
O       0.7919  0.17404   0.7439     O
O       0.7919  0.82596   0.7561     O
C       0.7958    0.128   0.4937     C
C       0.7958    0.872   0.0063     C
C       0.8018   0.1183    0.825     C
C       0.8018   0.8817    0.675     C
C      0.80219  0.12902   0.7877     C
C      0.80219  0.87098   0.7123     C
O       0.8034   0.2223   0.3124     O
O       0.8034   0.7777   0.1876     O
Zn     0.80392  0.24823  0.26398    Zn
Zn     0.80392  0.75177  0.23602    Zn
C       0.8083    0.171  0.44099     C
C       0.8083    0.829  0.05901     C
C       0.8093  0.11267   0.5267     C
C       0.8093  0.88733   0.9733     C
O       0.8124   0.3034   0.7223     O
O       0.8124   0.6966   0.7777     O
C       0.8136   0.1587   0.4778     C
C       0.8136   0.8413   0.0222     C
C       0.8153   0.0833  0.83534     C
C       0.8153   0.9167  0.66466     C
C        0.816   0.1047  0.76061     C
C        0.816   0.8953  0.73939     C
C        0.825   0.1982   0.3817     C
C        0.825   0.8018   0.1183     C
C       0.8259    0.005   0.8449     C
C       0.8259    0.995   0.6551     C
O      0.82596   0.2439   0.7081     O
O      0.82596   0.7561   0.7919     O
C       0.8278   0.0527   0.6057     C
C       0.8278   0.9473   0.8943     C
C        0.829  0.05901   0.8083     C
C        0.829  0.94099   0.6917     C
C      0.82937   0.0697   0.7709     C
C      0.82937   0.9303   0.7291     C
C       0.8318   0.2767   0.7122     C
C       0.8318   0.7233   0.7878     C
C       0.8333   0.0293   0.5681     C
C       0.8333   0.9707   0.9319     C
C      0.83534   0.1847   0.4167     C
C      0.83534   0.8153   0.0833     C
C       0.8406    0.128  0.54392     C
C       0.8406    0.872  0.95608     C
C       0.8413   0.0222   0.8136     C
C       0.8413   0.0281   0.6416     C
C       0.8413   0.9719   0.8584     C
C       0.8413   0.9778   0.6864     C
C       0.8449   0.1741    0.495     C
C       0.8449   0.8259    0.005     C
C         0.85   0.2163   0.5926     C
C         0.85   0.7837   0.9074     C
C       0.8584   0.1587   0.5281     C
C       0.8584   0.8413   0.9719     C
C       0.8608   0.0853   0.6034     C
C       0.8608   0.9147   0.8966     C
C       0.8683   0.1153   0.5823     C
C       0.8683   0.8847   0.9177     C
C      0.87098   0.2877  0.69781     C
C      0.87098   0.7123  0.80219     C
C       0.8713   0.0149   0.5598     C
C       0.8713   0.9851   0.9402     C
C        0.872   0.0063   0.7958     C
C        0.872  0.04392   0.6594     C
C        0.872  0.95608   0.8406     C
C        0.872   0.9937   0.7042     C
C       0.8817    0.325   0.6982     C
C       0.8817    0.675   0.8018     C
C        0.883   0.2129   0.5706     C
C        0.883   0.7871   0.9294     C
C       0.8847   0.0823   0.6317     C
C       0.8847   0.9177   0.8683     C
C      0.88733   0.0267   0.6907     C
C      0.88733   0.9733   0.8093     C
C       0.8943   0.1722   0.5527     C
C       0.8943   0.8278   0.9473     C
C       0.8953  0.26061    0.684     C
C       0.8953  0.73939    0.816     C
C       0.8966   0.1392   0.5853     C
C       0.8966   0.8608   0.9147     C
C       0.9074     0.15   0.7163     C
C       0.9074     0.85   0.7837     C
C       0.9147   0.1034   0.6392     C
C       0.9147   0.8966   0.8608     C
C       0.9167  0.33534   0.6847     C
C       0.9167  0.66466   0.8153     C
C       0.9177   0.1317   0.6153     C
C       0.9177   0.8683   0.8847     C
C       0.9294    0.117   0.7129     C
C       0.9294    0.883   0.7871     C
C       0.9303   0.2709  0.67063     C
C       0.9303   0.7291  0.82937     C
C       0.9319   0.1667   0.5293     C
C       0.9319   0.8333   0.9707     C
C       0.9402   0.1287   0.5149     C
C       0.9402   0.8713   0.9851     C
C      0.94099   0.3083    0.671     C
C      0.94099   0.6917    0.829     C
C       0.9473   0.1057   0.6722     C
C       0.9473   0.8943   0.8278     C
C      0.95608   0.1594    0.628     C
C      0.95608   0.8406    0.872     C
C       0.9707   0.0681   0.6667     C
C       0.9707   0.9319   0.8333     C
C       0.9719   0.1416   0.6587     C
C       0.9719   0.8584   0.8413     C
C       0.9733   0.1907  0.61267     C
C       0.9733   0.8093  0.88733     C
C       0.9778   0.3136   0.6587     C
C       0.9778   0.6864   0.8413     C
C       0.9851   0.0598   0.6287     C
C       0.9851   0.9402   0.8713     C
C       0.9937   0.2958    0.628     C
C       0.9937   0.7042    0.872     C
C        0.995   0.3449   0.6741     C
C        0.995   0.6551   0.8259     C
