data_I
_chemical_name_common  '/home/zhangsd/repos/MofS-CGCNN/ML/data/SSD/clean_cifs/OPOYUO_clean'
_cell_length_a  8.77130
_cell_length_b 15.89940
_cell_length_c 18.16470
_cell_angle_alpha 90.00000
_cell_angle_beta  90.00000
_cell_angle_gamma 90.00410
_space_group_name_H-M_alt      'P 1'


loop_
_space_group_symop_operation_xyz
  'x, y, z' 

loop_
_atom_site_label
_atom_site_fract_x
_atom_site_fract_y
_atom_site_fract_z
_atom_site_type_symbol
C       0.0112   0.2602   0.4893     C
C       0.0112   0.7602   0.0107     C
C       0.0114   0.3952   0.9944     C
C       0.0114   0.8952   0.5056     C
H       0.0131   0.3777   0.1538     H
H       0.0131   0.8777   0.3462     H
C       0.0385   0.3176   0.7174     C
C       0.0385   0.8176   0.7826     C
H       0.0458   0.0175   0.1207     H
H       0.0458   0.5175   0.3793     H
N       0.0502   0.0338    0.506     N
N       0.0502   0.5338    0.994     N
H       0.0539   0.3853   0.4861     H
H       0.0539   0.8853   0.0139     H
C       0.0585   0.0707   0.1439     C
C       0.0585   0.5707   0.3561     C
C       0.0593    0.397   0.6852     C
C       0.0593    0.897   0.8148     C
C       0.0695    0.192   0.7803     C
C       0.0695    0.692   0.7197     C
C       0.0764    0.183   0.5043     C
C       0.0764    0.683   0.9957     C
H       0.0818   0.4381   0.2159     H
H       0.0818   0.9381   0.2841     H
C       0.0877   0.3125   0.2456     C
C       0.0877   0.8125   0.2544     C
H        0.092   0.2361   0.9737     H
H        0.092   0.7361   0.5263     H
C       0.0947   0.3844   0.1902     C
C       0.0947   0.8844   0.3098     C
C       0.0966   0.2272   0.2069     C
C       0.0966   0.7272   0.2931     C
H       0.0983   0.0805   0.8338     H
H       0.0983   0.5805   0.6662     H
C       0.0991   0.3325   0.4972     C
C       0.0991   0.8325   0.0028     C
H       0.1149   0.3924   0.9792     H
H       0.1149   0.8924   0.5208     H
C       0.1414   0.2681    0.764     C
C       0.1414   0.7681    0.736     C
C        0.145   0.1332   0.8236     C
C        0.145   0.6332   0.6764     C
H       0.1516   0.4274   0.6916     H
H       0.1516   0.9274   0.8084     H
H       0.1937   0.3837   0.1652     H
H       0.1937   0.8837   0.3348     H
C       0.1954   0.1134    0.135     C
C       0.1954   0.6134    0.365     C
H       0.2019   0.3739   0.3301     H
H       0.2019   0.8739   0.1699     H
H       0.2066   0.2737   0.3384     H
H       0.2066   0.7737   0.1616     H
C       0.2138   0.3206   0.3035     C
C       0.2138   0.8206   0.1965     C
C       0.2141   0.1935   0.1662     C
C       0.2141   0.6935   0.3338     C
C       0.2258   0.1816   0.5281     C
C       0.2258   0.6816   0.9719     C
N       0.2435  0.33107  0.51954     N
N       0.2435  0.83107  0.98046     N
H       0.2737   0.1296   0.5397     H
H       0.2737   0.6296   0.9603     H
O        0.283  0.00713  0.05666     O
O        0.283  0.50713  0.44334     O
C       0.2849   0.2852   0.7907     C
C       0.2849   0.7852   0.7093     C
C       0.2883   0.1511   0.8518     C
C       0.2883   0.6511   0.6482     C
C       0.3046   0.2557    0.535     C
C       0.3046   0.7557    0.965     C
H       0.3062   0.2239   0.1594     H
H       0.3062   0.7239   0.3406     H
O       0.3119  0.01599  0.90445     O
O       0.3119  0.51599  0.59555     O
H       0.3135   0.3194   0.2792     H
H       0.3135   0.8194   0.2208     H
C       0.3184   0.0738   0.0903     C
C       0.3184   0.5738   0.4097     C
H        0.334   0.3366   0.7783     H
H        0.334   0.8366   0.7217     H
C       0.3574   0.2276   0.8356     C
C       0.3574   0.7276   0.6644     C
C       0.3669   0.0894   0.9005     C
C       0.3669   0.5894   0.5995     C
Zn     0.38676  0.43292  0.51923    Zn
Zn     0.38676  0.93292  0.98077    Zn
H       0.4073   0.2536   0.5514     H
H       0.4073   0.7536   0.9486     H
O       0.4467  0.10856  0.08817     O
O       0.4467  0.60856  0.41183     O
H       0.4549   0.2403   0.8555     H
H       0.4549   0.7403   0.6445     H
O       0.4811  0.11525  0.93578     O
O       0.4811  0.61525  0.56422     O
O       0.5189  0.38475  0.43578     O
O       0.5189  0.88475  0.06422     O
H       0.5451   0.2597   0.3555     H
H       0.5451   0.7597   0.1445     H
O       0.5533  0.39144  0.58817     O
O       0.5533  0.89144  0.91183     O
H       0.5927   0.2464   0.0514     H
H       0.5927   0.7464   0.4486     H
Zn     0.61324  0.06708  0.01923    Zn
Zn     0.61324  0.56708  0.48077    Zn
C       0.6331   0.4106   0.4005     C
C       0.6331   0.9106   0.0995     C
C       0.6426   0.2724   0.3356     C
C       0.6426   0.7724   0.1644     C
H        0.666   0.1634   0.2783     H
H        0.666   0.6634   0.2217     H
C       0.6816   0.4262   0.5903     C
C       0.6816   0.9262   0.9097     C
H       0.6865   0.1806   0.7792     H
H       0.6865   0.6806   0.7208     H
O       0.6881  0.48401  0.40445     O
O       0.6881  0.98401  0.09555     O
H       0.6938   0.2761   0.6594     H
H       0.6938   0.7761   0.8406     H
C       0.6954   0.2443    0.035     C
C       0.6954   0.7443    0.465     C
C       0.7117   0.3489   0.3518     C
C       0.7117   0.8489   0.1482     C
C       0.7151   0.2148   0.2907     C
C       0.7151   0.7148   0.2093     C
O        0.717  0.49287  0.55666     O
O        0.717  0.99287  0.94334     O
H       0.7263   0.3704   0.0397     H
H       0.7263   0.8704   0.4603     H
N       0.7565  0.16893  0.01954     N
N       0.7565  0.66893  0.48046     N
C       0.7742   0.3184   0.0281     C
C       0.7742   0.8184   0.4719     C
C       0.7859   0.3065   0.6662     C
C       0.7859   0.8065   0.8338     C
C       0.7862   0.1794   0.8035     C
C       0.7862   0.6794   0.6965     C
H       0.7934   0.2263   0.8384     H
H       0.7934   0.7263   0.6616     H
H       0.7981   0.1261   0.8301     H
H       0.7981   0.6261   0.6699     H
C       0.8046   0.3866    0.635     C
C       0.8046   0.8866    0.865     C
H       0.8063   0.1163   0.6652     H
H       0.8063   0.6163   0.8348     H
H       0.8484   0.0726   0.1916     H
H       0.8484   0.5726   0.3084     H
C        0.855   0.3668   0.3236     C
C        0.855   0.8668   0.1764     C
C       0.8586   0.2319    0.264     C
C       0.8586   0.7319    0.236     C
H       0.8851   0.1076   0.4792     H
H       0.8851   0.6076   0.0208     H
C       0.9009   0.1675   0.9972     C
C       0.9009   0.6675   0.5028     C
H       0.9017   0.4195   0.3338     H
H       0.9017   0.9195   0.1662     H
C       0.9034   0.2728   0.7069     C
C       0.9034   0.7728   0.7931     C
C       0.9053   0.1156   0.6902     C
C       0.9053   0.6156   0.8098     C
H        0.908   0.2639   0.4737     H
H        0.908   0.7639   0.0263     H
C       0.9123   0.1875   0.7456     C
C       0.9123   0.6875   0.7544     C
H       0.9182   0.0619   0.7159     H
H       0.9182   0.5619   0.7841     H
C       0.9236    0.317   0.0043     C
C       0.9236    0.817   0.4957     C
C       0.9305    0.308   0.2803     C
C       0.9305    0.808   0.2197     C
C       0.9407    0.103   0.1852     C
C       0.9407    0.603   0.3148     C
C       0.9415   0.4293   0.6439     C
C       0.9415   0.9293   0.8561     C
H       0.9461   0.1147   0.9861     H
H       0.9461   0.6147   0.5139     H
N       0.9498   0.4662    0.006     N
N       0.9498   0.9662    0.494     N
H       0.9542   0.4825   0.6207     H
H       0.9542   0.9825   0.8793     H
C       0.9615   0.1824   0.2174     C
C       0.9615   0.6824   0.2826     C
H       0.9869   0.1223   0.6538     H
H       0.9869   0.6223   0.8462     H
C       0.9886   0.1048   0.4944     C
C       0.9886   0.6048   0.0056     C
C       0.9888   0.2398   0.9893     C
C       0.9888   0.7398   0.5107     C
