data_I
_chemical_name_common  '/home/zhangsd/repos/MofS-CGCNN/ML/data/SSD/clean_cifs/OPURIB01_clean'
_cell_length_a  4.88000
_cell_length_b 13.11000
_cell_length_c 13.28990
_cell_angle_alpha 90.00000
_cell_angle_beta  100.57900
_cell_angle_gamma 90.00000
_space_group_name_H-M_alt      'P 1'


loop_
_space_group_symop_operation_xyz
  'x, y, z' 

loop_
_atom_site_label
_atom_site_fract_x
_atom_site_fract_y
_atom_site_fract_z
_atom_site_type_symbol
H       0.0028   0.7532   0.6163     H
Ce     0.02222   0.2588   0.7877    Ce
H        0.031   0.3434   0.3087     H
O       0.0556   0.6485   0.3578     O
H       0.0613   0.9963   0.3394     H
O        0.087   0.9606    0.176     O
H       0.0995   0.7943   0.8697     H
C       0.1032   0.8007   0.6656     C
O       0.1305    0.387   0.6467     O
O       0.1521   0.0452   0.3253     O
O       0.1609   0.7539   0.0547     O
H       0.1776   0.5178   0.5024     H
C        0.198   0.0355   0.2334     C
C       0.2179   0.5948   0.3168     C
C       0.2356   0.7487   0.8508     C
O       0.2603   0.6148   0.2297     O
C       0.2739   0.7463   0.7489     C
H        0.278   0.7853   0.4864     H
H       0.3074   0.0788   0.0506     H
C       0.3074   0.4811   0.4739     C
C       0.3099   0.8693   0.6133     C
C       0.3643   0.8419   0.5206     C
C       0.3673    0.507   0.3778     C
C       0.3809   0.6994   0.0353     C
C       0.3865   0.1084   0.2021     C
C       0.3881   0.3644   0.6226     C
O       0.3973   0.1687   0.8916     O
C       0.3974   0.6868   0.9263     C
H       0.4055   0.9724   0.7282     H
C       0.4155   0.1185   0.1007     C
O       0.4434   0.8081   0.3205     O
C       0.4443   0.9532   0.6649     C
C       0.4448   0.4011   0.5235     C
C        0.458     0.67   0.7232     C
H       0.4743   0.6613   0.6551     H
H       0.5257   0.1613   0.3449     H
C        0.542     0.17   0.2768     C
C       0.5552   0.9011   0.4765     C
C       0.5557   0.4532   0.3351     C
O       0.5566   0.3081   0.6795     O
C       0.5845   0.6185   0.8993     C
H       0.5945   0.4724   0.2718     H
C       0.6026   0.1868   0.0737     C
O       0.6027   0.6687   0.1084     O
C       0.6119   0.8644   0.3774     C
C       0.6135   0.6084   0.7979     C
C       0.6191   0.1994   0.9647     C
C       0.6327    0.007   0.6222     C
C       0.6357   0.3419   0.4794     C
C       0.6901   0.3693   0.3867     C
H       0.6926   0.5788   0.9494     H
C       0.6926   0.9811   0.5261     C
H        0.722   0.2853   0.5136     H
C       0.7261   0.2463   0.2511     C
O       0.7397   0.1148   0.7703     O
C       0.7644   0.2487   0.1492     C
C       0.7821   0.0948   0.6832     C
C        0.802   0.5355   0.7666     C
H       0.8224   0.0178   0.4976     H
O       0.8391   0.2539   0.9453     O
O       0.8479   0.5452   0.6747     O
O       0.8695    0.887   0.3533     O
C       0.8968   0.3007   0.3344     C
H       0.9005   0.2943   0.1303     H
O        0.913   0.4606    0.824     O
H       0.9387   0.4963   0.6606     H
O       0.9444   0.1485   0.6422     O
H        0.969   0.8434   0.6913     H
Ce     0.97778   0.7588   0.2123    Ce
H       0.9972   0.2532   0.3837     H
