data_I
_chemical_name_common  '/home/zhangsd/repos/MofS-CGCNN/ML/data/SSD/clean_cifs/OQETEK_clean'
_cell_length_a 14.33300
_cell_length_b 14.64200
_cell_length_c 14.64200
_cell_angle_alpha 90.00000
_cell_angle_beta  90.00000
_cell_angle_gamma 90.00000
_space_group_name_H-M_alt      'P 1'


loop_
_space_group_symop_operation_xyz
  'x, y, z' 

loop_
_atom_site_label
_atom_site_fract_x
_atom_site_fract_y
_atom_site_fract_z
_atom_site_type_symbol
H       0.0081    0.515   0.8034     H
H       0.0084   0.2253   0.3902     H
Yb     0.01506  0.63346  0.41359    Yb
O       0.0317   0.7797   0.3508     O
O       0.0401   0.5786   0.5518     O
H       0.0488   0.9402   0.3024     H
C       0.0504   0.5437   0.6303     C
C       0.0605   0.2506   0.4183     C
C       0.0621   0.8109   0.4239     C
C       0.0662   0.3447   0.4288     C
C       0.0714   0.9653   0.3564     C
H       0.0753   0.0947    0.311     H
O       0.0759   0.7607   0.4917     O
C       0.0877   0.0573   0.3609     C
C       0.0878   0.9089   0.4306     C
C       0.1216   0.9446   0.5112     C
C       0.1228   0.0935   0.4407     C
O        0.124   0.5409   0.6727     O
H       0.1314   0.9075   0.5618     H
C       0.1327    0.193   0.4495     C
C       0.1408   0.0393   0.5148     C
C       0.1426   0.3819   0.4719     C
H       0.1457   0.4446   0.4814     H
O       0.1616   0.6142   0.3623     O
H       0.1658   0.0647   0.5676     H
C       0.2103   0.2331   0.4925     C
C        0.215   0.3264   0.5011     C
C       0.2375   0.6008   0.4009     C
O       0.2486   0.6083   0.4857     O
H       0.2581   0.1966    0.515     H
H       0.2584   0.6098   0.2253     H
Yb     0.26506  0.58641  0.63346    Yb
O       0.2817   0.6492   0.7797     O
O       0.2901   0.4482   0.5786     O
H       0.2988   0.6976   0.9402     H
C       0.3004   0.3697   0.5437     C
C       0.3105   0.5817   0.2506     C
C       0.3121   0.5761   0.8109     C
C       0.3162   0.5712   0.3447     C
C       0.3214   0.6436   0.9653     C
H       0.3253    0.689   0.0947     H
O       0.3259   0.5083   0.7607     O
C       0.3377   0.6391   0.0573     C
C       0.3378   0.5694   0.9089     C
C       0.3716   0.4888   0.9446     C
C       0.3728   0.5593   0.0935     C
O        0.374   0.3273   0.5409     O
H       0.3814   0.4382   0.9075     H
C       0.3827   0.5505    0.193     C
C       0.3908   0.4852   0.0393     C
C       0.3926   0.5281   0.3819     C
H       0.3957   0.5186   0.4446     H
O       0.4116   0.6377   0.6142     O
H       0.4158   0.4324   0.0647     H
C       0.4603   0.5075   0.2331     C
C        0.465   0.4989   0.3264     C
C       0.4875   0.5991   0.6008     C
O       0.4986   0.5143   0.6083     O
H       0.5081    0.485   0.1966     H
H       0.5084   0.7747   0.6098     H
Yb     0.51506  0.36654  0.58641    Yb
O       0.5317   0.2203   0.6492     O
O       0.5401   0.4214   0.4482     O
H       0.5488   0.0598   0.6976     H
C       0.5504   0.4563   0.3697     C
C       0.5605   0.7494   0.5817     C
C       0.5621   0.1891   0.5761     C
C       0.5662   0.6553   0.5712     C
C       0.5714   0.0347   0.6436     C
H       0.5753   0.9053    0.689     H
O       0.5759   0.2393   0.5083     O
C       0.5877   0.9427   0.6391     C
C       0.5878   0.0911   0.5694     C
C       0.6216   0.0554   0.4888     C
C       0.6228   0.9065   0.5593     C
O        0.624   0.4591   0.3273     O
H       0.6314   0.0925   0.4382     H
C       0.6327    0.807   0.5505     C
C       0.6408   0.9607   0.4852     C
C       0.6426   0.6181   0.5281     C
H       0.6457   0.5554   0.5186     H
O       0.6616   0.3858   0.6377     O
H       0.6658   0.9353   0.4324     H
C       0.7103   0.7669   0.5075     C
C        0.715   0.6736   0.4989     C
C       0.7375   0.3992   0.5991     C
O       0.7486   0.3917   0.5143     O
H       0.7581   0.8034    0.485     H
H       0.7584   0.3902   0.7747     H
Yb     0.76506  0.41359  0.36654    Yb
O       0.7817   0.3508   0.2203     O
O       0.7901   0.5518   0.4214     O
H       0.7988   0.3024   0.0598     H
C       0.8004   0.6303   0.4563     C
C       0.8105   0.4183   0.7494     C
C       0.8121   0.4239   0.1891     C
C       0.8162   0.4288   0.6553     C
C       0.8214   0.3564   0.0347     C
H       0.8253    0.311   0.9053     H
O       0.8259   0.4917   0.2393     O
C       0.8377   0.3609   0.9427     C
C       0.8378   0.4306   0.0911     C
C       0.8716   0.5112   0.0554     C
C       0.8728   0.4407   0.9065     C
O        0.874   0.6727   0.4591     O
H       0.8814   0.5618   0.0925     H
C       0.8827   0.4495    0.807     C
C       0.8908   0.5148   0.9607     C
C       0.8926   0.4719   0.6181     C
H       0.8957   0.4814   0.5554     H
O       0.9116   0.3623   0.3858     O
H       0.9158   0.5676   0.9353     H
C       0.9603   0.4925   0.7669     C
C        0.965   0.5011   0.6736     C
C       0.9875   0.4009   0.3992     C
O       0.9986   0.4857   0.3917     O
