data_I
_chemical_name_common  '/home/zhangsd/repos/MofS-CGCNN/ML/data/SSD/clean_cifs/OQUXAB_clean'
_cell_length_a 26.86350
_cell_length_b 20.06270
_cell_length_c 13.11070
_cell_angle_alpha 90.00000
_cell_angle_beta  90.00000
_cell_angle_gamma 90.00000
_space_group_name_H-M_alt      'P 1'


loop_
_space_group_symop_operation_xyz
  'x, y, z' 

loop_
_atom_site_label
_atom_site_fract_x
_atom_site_fract_y
_atom_site_fract_z
_atom_site_type_symbol
C       0.0024   0.0365    0.806     C
C       0.0024   0.4635    0.806     C
H        0.003   0.0036   0.1601     H
H        0.003   0.4964   0.1601     H
C       0.0163   0.1492    0.701     C
C       0.0163   0.3508    0.701     C
H       0.0203   0.1881   0.6636     H
H       0.0203   0.3119   0.6636     H
C       0.0281   0.6378    0.249     C
C       0.0281   0.8622    0.249     C
C       0.0343   0.5825      0.2     C
C       0.0343   0.9175      0.2     C
C       0.0479   0.0493    0.761     C
C       0.0479   0.4507    0.761     C
H       0.0533   0.6696   0.2507     H
H       0.0533   0.8304   0.2507     H
C        0.054   0.1054    0.705     C
C        0.054   0.3946    0.705     C
H       0.0688   0.5062    0.028     H
H       0.0688   0.9938    0.028     H
H       0.0742   0.0197   0.7695     H
H       0.0742   0.4803   0.7695     H
H       0.0793   0.1747   0.5217     H
H       0.0793   0.3253   0.5217     H
N       0.0818   0.5709   0.1484     N
N       0.0818   0.9291   0.1484     N
C       0.0919   0.5313    0.064     C
C       0.0919   0.9687    0.064     C
N       0.0996   0.1188   0.6547     N
N       0.0996   0.3812   0.6547     N
C       0.1047   0.1555   0.5597     C
C       0.1047   0.3445   0.5597     C
O       0.1245     0.75   0.7241     O
O       0.1247   0.6845   0.5536     O
O       0.1247   0.8155   0.5536     O
O       0.1249     0.25   0.9965     O
O       0.1271    0.182   0.1731     O
O       0.1271    0.318   0.1731     O
C       0.1273   0.5984    0.174     C
C       0.1273   0.9016    0.174     C
W      0.13071  0.65759  0.69155     W
W      0.13071  0.84241  0.69155     W
W      0.13149     0.75  0.44782     W
H        0.132   0.6256   0.2311     H
H        0.132   0.8744   0.2311     H
C       0.1406   0.5357    0.044     C
C       0.1406   0.9643    0.044     C
C       0.1453   0.1016    0.683     C
C       0.1453   0.3984    0.683     C
H       0.1526   0.0775   0.7419     H
H       0.1526   0.4225   0.7419     H
C       0.1535   0.1562    0.538     C
C       0.1535   0.3438    0.538     C
W      0.15442  0.16649  0.03839     W
W      0.15442  0.33351  0.03839     W
W      0.15514     0.25  0.25969     W
H        0.157   0.5117   0.9938     H
H        0.157   0.9883   0.9938     H
O       0.1614   0.6442   0.8243     O
O       0.1614   0.8558   0.8243     O
O       0.1624   0.6829   0.3645     O
O       0.1624   0.8171   0.3645     O
O       0.1631   0.5759   0.6457     O
O       0.1631   0.9241   0.6457     O
N       0.1637    0.582   0.1106     N
N       0.1637    0.918   0.1106     N
H       0.1675   0.1751   0.4798     H
H       0.1675   0.3249   0.4798     H
N       0.1804    0.124   0.6155     N
N       0.1804    0.376   0.6155     N
O       0.2003     0.25   0.1116     O
O       0.2012   0.1074   0.1031     O
O       0.2012   0.3926   0.1031     O
O       0.2013   0.1716   0.9317     O
O       0.2013   0.3284   0.9317     O
O       0.2031   0.1857   0.3066     O
O       0.2031   0.3143   0.3066     O
O        0.214   0.6801   0.6741     O
O        0.214   0.8199   0.6741     O
O       0.2149     0.75   0.4883     O
O       0.2178     0.75   0.8621     O
O       0.2209   0.6083   0.4863     O
O       0.2209   0.8917   0.4863     O
W      0.23181  0.65799  0.83997     W
W      0.23181  0.84201  0.83997     W
W      0.23297  0.57466  0.62006     W
W      0.23297  0.92534  0.62006     W
W      0.23325  0.66699  0.37631     W
W      0.23325  0.83301  0.37631     W
Ge     0.23587     0.75  0.61195    Ge
O       0.2399   0.6272   0.9601     O
O       0.2399   0.8728   0.9601     O
O       0.2403   0.6139   0.2743     O
O       0.2403   0.8861   0.2743     O
O       0.2408   0.0081   0.6025     O
O       0.2408   0.4919   0.6025     O
Co     0.24132  0.60972   0.1135    Co
Co     0.24132  0.89028   0.1135    Co
O       0.2425   0.5762   0.7642     O
O       0.2425   0.9238   0.7642     O
O       0.2449     0.75   0.3032     O
O       0.2551     0.25   0.8032     O
O       0.2575   0.0762   0.2642     O
O       0.2575   0.4238   0.2642     O
Co     0.25868  0.10972   0.6135    Co
Co     0.25868  0.39028   0.6135    Co
O       0.2592   0.5081   0.1025     O
O       0.2592   0.9919   0.1025     O
O       0.2597   0.1139   0.7743     O
O       0.2597   0.3861   0.7743     O
O       0.2601   0.1272   0.4601     O
O       0.2601   0.3728   0.4601     O
Ge     0.26413     0.25  0.11195    Ge
W      0.26675  0.16699  0.87631     W
W      0.26675  0.33301  0.87631     W
W      0.26703  0.07466  0.12006     W
W      0.26703  0.42534  0.12006     W
W      0.26819  0.15799  0.33997     W
W      0.26819  0.34201  0.33997     W
O       0.2791   0.1083   0.9863     O
O       0.2791   0.3917   0.9863     O
O       0.2822     0.25   0.3621     O
O       0.2851     0.25   0.9883     O
O        0.286   0.1801   0.1741     O
O        0.286   0.3199   0.1741     O
O       0.2969   0.6857   0.8066     O
O       0.2969   0.8143   0.8066     O
O       0.2987   0.6716   0.4317     O
O       0.2987   0.8284   0.4317     O
O       0.2988   0.6074   0.6031     O
O       0.2988   0.8926   0.6031     O
O       0.2997     0.75   0.6116     O
N       0.3196    0.624   0.1155     N
N       0.3196    0.876   0.1155     N
H       0.3325   0.6751   0.9798     H
H       0.3325   0.8249   0.9798     H
N       0.3363    0.082   0.6106     N
N       0.3363    0.418   0.6106     N
O       0.3369   0.0759   0.1457     O
O       0.3369   0.4241   0.1457     O
O       0.3376   0.1829   0.8645     O
O       0.3376   0.3171   0.8645     O
O       0.3386   0.1442   0.3243     O
O       0.3386   0.3558   0.3243     O
H        0.343   0.0117   0.4938     H
H        0.343   0.4883   0.4938     H
W      0.34486     0.75  0.75969     W
W      0.34558  0.66649  0.53839     W
W      0.34558  0.83351  0.53839     W
C       0.3465   0.6562    0.038     C
C       0.3465   0.8438    0.038     C
H       0.3474   0.5775   0.2419     H
H       0.3474   0.9225   0.2419     H
C       0.3547   0.6016    0.183     C
C       0.3547   0.8984    0.183     C
C       0.3594   0.0357    0.544     C
C       0.3594   0.4643    0.544     C
H        0.368   0.1256   0.7311     H
H        0.368   0.3744   0.7311     H
W      0.36851     0.25  0.94782     W
W      0.36929  0.15759  0.19155     W
W      0.36929  0.34241  0.19155     W
C       0.3727   0.0984    0.674     C
C       0.3727   0.4016    0.674     C
O       0.3729    0.682   0.6731     O
O       0.3729    0.818   0.6731     O
O       0.3751     0.75   0.4965     O
O       0.3753   0.1845   0.0536     O
O       0.3753   0.3155   0.0536     O
O       0.3755     0.25   0.2241     O
C       0.3953   0.6555   0.0597     C
C       0.3953   0.8445   0.0597     C
N       0.4004   0.6188   0.1547     N
N       0.4004   0.8812   0.1547     N
C       0.4081   0.0313    0.564     C
C       0.4081   0.4687    0.564     C
N       0.4182   0.0709   0.6484     N
N       0.4182   0.4291   0.6484     N
H       0.4207   0.6747   0.0217     H
H       0.4207   0.8253   0.0217     H
H       0.4258   0.5197   0.2695     H
H       0.4258   0.9803   0.2695     H
H       0.4312   0.0062    0.528     H
H       0.4312   0.4938    0.528     H
C        0.446   0.6054    0.205     C
C        0.446   0.8946    0.205     C
H       0.4467   0.1696   0.7507     H
H       0.4467   0.3304   0.7507     H
C       0.4521   0.5493    0.261     C
C       0.4521   0.9507    0.261     C
C       0.4657   0.0825      0.7     C
C       0.4657   0.4175      0.7     C
C       0.4719   0.1378    0.749     C
C       0.4719   0.3622    0.749     C
H       0.4797   0.6881   0.1636     H
H       0.4797   0.8119   0.1636     H
C       0.4837   0.6492    0.201     C
C       0.4837   0.8508    0.201     C
H        0.497   0.5036   0.6601     H
H        0.497   0.9964   0.6601     H
C       0.4976   0.5365    0.306     C
C       0.4976   0.9635    0.306     C
C       0.5024   0.0365    0.694     C
C       0.5024   0.4635    0.694     C
H        0.503   0.0036   0.3399     H
H        0.503   0.4964   0.3399     H
C       0.5163   0.1492    0.799     C
C       0.5163   0.3508    0.799     C
H       0.5203   0.1881   0.8364     H
H       0.5203   0.3119   0.8364     H
C       0.5281   0.6378    0.251     C
C       0.5281   0.8622    0.251     C
C       0.5343   0.5825      0.3     C
C       0.5343   0.9175      0.3     C
C       0.5479   0.0493    0.739     C
C       0.5479   0.4507    0.739     C
H       0.5533   0.6696   0.2493     H
H       0.5533   0.8304   0.2493     H
C        0.554   0.1054    0.795     C
C        0.554   0.3946    0.795     C
H       0.5688   0.5062    0.472     H
H       0.5688   0.9938    0.472     H
H       0.5742   0.0197   0.7305     H
H       0.5742   0.4803   0.7305     H
H       0.5793   0.1747   0.9783     H
H       0.5793   0.3253   0.9783     H
N       0.5818   0.5709   0.3516     N
N       0.5818   0.9291   0.3516     N
C       0.5919   0.5313    0.436     C
C       0.5919   0.9687    0.436     C
N       0.5996   0.1188   0.8453     N
N       0.5996   0.3812   0.8453     N
C       0.6047   0.1555   0.9403     C
C       0.6047   0.3445   0.9403     C
O       0.6245     0.75   0.7759     O
O       0.6247   0.6845   0.9464     O
O       0.6247   0.8155   0.9464     O
O       0.6249     0.25   0.5035     O
O       0.6271    0.182   0.3269     O
O       0.6271    0.318   0.3269     O
C       0.6273   0.5984    0.326     C
C       0.6273   0.9016    0.326     C
W      0.63071  0.65759  0.80845     W
W      0.63071  0.84241  0.80845     W
W      0.63149     0.75  0.05218     W
H        0.632   0.6256   0.2689     H
H        0.632   0.8744   0.2689     H
C       0.6406   0.5357    0.456     C
C       0.6406   0.9643    0.456     C
C       0.6453   0.1016    0.817     C
C       0.6453   0.3984    0.817     C
H       0.6526   0.0775   0.7581     H
H       0.6526   0.4225   0.7581     H
C       0.6535   0.1562    0.962     C
C       0.6535   0.3438    0.962     C
W      0.65442  0.16649  0.46161     W
W      0.65442  0.33351  0.46161     W
W      0.65514     0.25  0.24031     W
H        0.657   0.5117   0.5062     H
H        0.657   0.9883   0.5062     H
O       0.6614   0.6442   0.6757     O
O       0.6614   0.8558   0.6757     O
O       0.6624   0.6829   0.1355     O
O       0.6624   0.8171   0.1355     O
O       0.6631   0.5759   0.8543     O
O       0.6631   0.9241   0.8543     O
N       0.6637    0.582   0.3894     N
N       0.6637    0.918   0.3894     N
H       0.6675   0.1751   0.0202     H
H       0.6675   0.3249   0.0202     H
N       0.6804    0.124   0.8845     N
N       0.6804    0.376   0.8845     N
O       0.7003     0.25   0.3884     O
O       0.7012   0.1074   0.3969     O
O       0.7012   0.3926   0.3969     O
O       0.7013   0.1716   0.5683     O
O       0.7013   0.3284   0.5683     O
O       0.7031   0.1857   0.1934     O
O       0.7031   0.3143   0.1934     O
O        0.714   0.6801   0.8259     O
O        0.714   0.8199   0.8259     O
O       0.7149     0.75   0.0117     O
O       0.7178     0.75   0.6379     O
O       0.7209   0.6083   0.0137     O
O       0.7209   0.8917   0.0137     O
W      0.73181  0.65799  0.66003     W
W      0.73181  0.84201  0.66003     W
W      0.73297  0.57466  0.87994     W
W      0.73297  0.92534  0.87994     W
W      0.73325  0.66699  0.12369     W
W      0.73325  0.83301  0.12369     W
Ge     0.73587     0.75  0.88805    Ge
O       0.7399   0.6272   0.5399     O
O       0.7399   0.8728   0.5399     O
O       0.7403   0.6139   0.2257     O
O       0.7403   0.8861   0.2257     O
O       0.7408   0.0081   0.8975     O
O       0.7408   0.4919   0.8975     O
Co     0.74132  0.60972   0.3865    Co
Co     0.74132  0.89028   0.3865    Co
O       0.7425   0.5762   0.7358     O
O       0.7425   0.9238   0.7358     O
O       0.7449     0.75   0.1968     O
O       0.7551     0.25   0.6968     O
O       0.7575   0.0762   0.2358     O
O       0.7575   0.4238   0.2358     O
Co     0.75868  0.10972   0.8865    Co
Co     0.75868  0.39028   0.8865    Co
O       0.7592   0.5081   0.3975     O
O       0.7592   0.9919   0.3975     O
O       0.7597   0.1139   0.7257     O
O       0.7597   0.3861   0.7257     O
O       0.7601   0.1272   0.0399     O
O       0.7601   0.3728   0.0399     O
Ge     0.76413     0.25  0.38805    Ge
W      0.76675  0.16699  0.62369     W
W      0.76675  0.33301  0.62369     W
W      0.76703  0.07466  0.37994     W
W      0.76703  0.42534  0.37994     W
W      0.76819  0.15799  0.16003     W
W      0.76819  0.34201  0.16003     W
O       0.7791   0.1083   0.5137     O
O       0.7791   0.3917   0.5137     O
O       0.7822     0.25   0.1379     O
O       0.7851     0.25   0.5117     O
O        0.786   0.1801   0.3259     O
O        0.786   0.3199   0.3259     O
O       0.7969   0.6857   0.6934     O
O       0.7969   0.8143   0.6934     O
O       0.7987   0.6716   0.0683     O
O       0.7987   0.8284   0.0683     O
O       0.7988   0.6074   0.8969     O
O       0.7988   0.8926   0.8969     O
O       0.7997     0.75   0.8884     O
N       0.8196    0.624   0.3845     N
N       0.8196    0.876   0.3845     N
H       0.8325   0.6751   0.5202     H
H       0.8325   0.8249   0.5202     H
N       0.8363    0.082   0.8894     N
N       0.8363    0.418   0.8894     N
O       0.8369   0.0759   0.3543     O
O       0.8369   0.4241   0.3543     O
O       0.8376   0.1829   0.6355     O
O       0.8376   0.3171   0.6355     O
O       0.8386   0.1442   0.1757     O
O       0.8386   0.3558   0.1757     O
H        0.843   0.0117   0.0062     H
H        0.843   0.4883   0.0062     H
W      0.84486     0.75  0.74031     W
W      0.84558  0.66649  0.96161     W
W      0.84558  0.83351  0.96161     W
C       0.8465   0.6562    0.462     C
C       0.8465   0.8438    0.462     C
H       0.8474   0.5775   0.2581     H
H       0.8474   0.9225   0.2581     H
C       0.8547   0.6016    0.317     C
C       0.8547   0.8984    0.317     C
C       0.8594   0.0357    0.956     C
C       0.8594   0.4643    0.956     C
H        0.868   0.1256   0.7689     H
H        0.868   0.3744   0.7689     H
W      0.86851     0.25  0.55218     W
W      0.86929  0.15759  0.30845     W
W      0.86929  0.34241  0.30845     W
C       0.8727   0.0984    0.826     C
C       0.8727   0.4016    0.826     C
O       0.8729    0.682   0.8269     O
O       0.8729    0.818   0.8269     O
O       0.8751     0.75   0.0035     O
O       0.8753   0.1845   0.4464     O
O       0.8753   0.3155   0.4464     O
O       0.8755     0.25   0.2759     O
C       0.8953   0.6555   0.4403     C
C       0.8953   0.8445   0.4403     C
N       0.9004   0.6188   0.3453     N
N       0.9004   0.8812   0.3453     N
C       0.9081   0.0313    0.936     C
C       0.9081   0.4687    0.936     C
N       0.9182   0.0709   0.8516     N
N       0.9182   0.4291   0.8516     N
H       0.9207   0.6747   0.4783     H
H       0.9207   0.8253   0.4783     H
H       0.9258   0.5197   0.2305     H
H       0.9258   0.9803   0.2305     H
H       0.9312   0.0062    0.972     H
H       0.9312   0.4938    0.972     H
C        0.946   0.6054    0.295     C
C        0.946   0.8946    0.295     C
H       0.9467   0.1696   0.7493     H
H       0.9467   0.3304   0.7493     H
C       0.9521   0.5493    0.239     C
C       0.9521   0.9507    0.239     C
C       0.9657   0.0825      0.8     C
C       0.9657   0.4175      0.8     C
C       0.9719   0.1378    0.751     C
C       0.9719   0.3622    0.751     C
H       0.9797   0.6881   0.3364     H
H       0.9797   0.8119   0.3364     H
C       0.9837   0.6492    0.299     C
C       0.9837   0.8508    0.299     C
H        0.997   0.5036   0.8399     H
H        0.997   0.9964   0.8399     H
C       0.9976   0.5365    0.194     C
C       0.9976   0.9635    0.194     C
