data_I
_chemical_name_common  '/home/zhangsd/repos/MofS-CGCNN/ML/data/SSD/clean_cifs/OQUXEF_clean'
_cell_length_a 26.78000
_cell_length_b 19.96300
_cell_length_c 12.98000
_cell_angle_alpha 90.00000
_cell_angle_beta  90.00000
_cell_angle_gamma 90.00000
_space_group_name_H-M_alt      'P 1'


loop_
_space_group_symop_operation_xyz
  'x, y, z' 

loop_
_atom_site_label
_atom_site_fract_x
_atom_site_fract_y
_atom_site_fract_z
_atom_site_type_symbol
C       0.0017   0.0329   0.6853     C
C       0.0017   0.4671   0.6853     C
H       0.0035   0.0069   0.3504     H
H       0.0035   0.4931   0.3504     H
C       0.0188    0.151    0.794     C
C       0.0188    0.349    0.794     C
H       0.0237   0.1893   0.8333     H
H       0.0237   0.3107   0.8333     H
C       0.0264   0.6435   0.2624     C
C       0.0264   0.8565   0.2624     C
C       0.0341   0.5827   0.3143     C
C       0.0341   0.9173   0.3143     C
C       0.0476   0.0442   0.7422     C
C       0.0476   0.4558   0.7422     C
H       0.0501   0.6776   0.2647     H
H       0.0501   0.8224   0.2647     H
C       0.0542   0.1046   0.7909     C
C       0.0542   0.3954   0.7909     C
H        0.063   0.5092   0.4773     H
H        0.063   0.9908   0.4773     H
H       0.0721   0.0112   0.7455     H
H       0.0721   0.4888   0.7455     H
H       0.0761    0.176   0.9707     H
H       0.0761    0.324   0.9707     H
N       0.0805   0.5712    0.364     N
N       0.0805   0.9288    0.364     N
C       0.0873   0.5341    0.444     C
C       0.0873   0.9659    0.444     C
N       0.0991   0.1156   0.8455     N
N       0.0991   0.3844   0.8455     N
C       0.1019   0.1553   0.9349     C
C       0.1019   0.3447   0.9349     C
O       0.1241   0.6824   0.9559     O
O       0.1241   0.8176   0.9559     O
O       0.1242     0.75    0.782     O
C       0.1247   0.5989   0.3334     C
C       0.1247   0.9011   0.3334     C
O       0.1258     0.25   0.5206     O
O       0.1262   0.1823   0.3438     O
O       0.1262   0.3177   0.3438     O
H       0.1292   0.6248   0.2746     H
H       0.1292   0.8752   0.2746     H
W      0.13244     0.75  0.06014     W
W      0.13333  0.65871  0.81769     W
W      0.13333  0.84129  0.81769     W
C       0.1378    0.538    0.471     C
C       0.1378    0.962    0.471     C
C       0.1467   0.0985     0.82     C
C       0.1467   0.4015     0.82     C
H       0.1525   0.5144   0.5249     H
H       0.1525   0.9856   0.5249     H
C       0.1528   0.1561   0.9565     C
C       0.1528   0.3439   0.9565     C
W      0.15367     0.25  0.25651     W
W      0.15436  0.16726  0.47766     W
W      0.15436  0.33274  0.47766     W
H       0.1553   0.0742   0.7615     H
H       0.1553   0.4258   0.7615     H
N       0.1631   0.5819   0.4063     N
N       0.1631   0.9181   0.4063     N
O       0.1635   0.6843   0.1443     O
O       0.1635   0.8157   0.1443     O
O       0.1637   0.5779    0.865     O
O       0.1637   0.9221    0.865     O
O       0.1645   0.6452    0.688     O
O       0.1645   0.8548    0.688     O
H        0.166   0.1791   0.0126     H
H        0.166   0.3209   0.0126     H
N        0.181   0.1219   0.8921     N
N        0.181   0.3781   0.8921     N
O       0.1988   0.1062   0.4115     O
O       0.1988   0.3938   0.4115     O
O       0.1992   0.1848    0.203     O
O       0.1992   0.3152    0.203     O
O       0.2006   0.1695   0.5883     O
O       0.2006   0.3305   0.5883     O
O       0.2063     0.25   0.4028     O
O       0.2175     0.75   0.0133     O
O       0.2186   0.6868    0.845     O
O       0.2186   0.8132    0.845     O
O       0.2218   0.6057   0.0297     O
O       0.2218   0.8943   0.0297     O
O       0.2223     0.75   0.6428     O
W      0.23339  0.66761  0.13458     W
W      0.23339  0.83239  0.13458     W
W      0.23477  0.57694  0.89263     W
W      0.23477  0.92306  0.89263     W
W      0.23497  0.65932  0.67322     W
W      0.23497  0.84068  0.67322     W
B       0.2372     0.75    0.901     B
O       0.2389   0.6159   0.2374     O
O       0.2389   0.8841   0.2374     O
Co     0.24085  0.60895   0.3991    Co
Co     0.24085  0.89105   0.3991    Co
O        0.242   0.0078   0.9108     O
O        0.242   0.4922   0.9108     O
O       0.2425   0.6281    0.553     O
O       0.2425   0.8719    0.553     O
O       0.2448     0.75   0.2071     O
O       0.2457    0.578    0.748     O
O       0.2457    0.922    0.748     O
O       0.2543    0.078    0.248     O
O       0.2543    0.422    0.248     O
O       0.2552     0.25   0.7071     O
O       0.2575   0.1281    0.053     O
O       0.2575   0.3719    0.053     O
O        0.258   0.5078   0.4108     O
O        0.258   0.9922   0.4108     O
Co     0.25915  0.10895   0.8991    Co
Co     0.25915  0.39105   0.8991    Co
O       0.2611   0.1159   0.7374     O
O       0.2611   0.3841   0.7374     O
B       0.2628     0.25    0.401     B
W      0.26503  0.15932  0.17322     W
W      0.26503  0.34068  0.17322     W
W      0.26523  0.07694  0.39263     W
W      0.26523  0.42306  0.39263     W
W      0.26661  0.16761  0.63458     W
W      0.26661  0.33239  0.63458     W
O       0.2777     0.25   0.1428     O
O       0.2782   0.1057   0.5297     O
O       0.2782   0.3943   0.5297     O
O       0.2814   0.1868    0.345     O
O       0.2814   0.3132    0.345     O
O       0.2825     0.25   0.5133     O
O       0.2937     0.75   0.9028     O
O       0.2994   0.6695   0.0883     O
O       0.2994   0.8305   0.0883     O
O       0.3008   0.6848    0.703     O
O       0.3008   0.8152    0.703     O
O       0.3012   0.6062   0.9115     O
O       0.3012   0.8938   0.9115     O
N        0.319   0.6219   0.3921     N
N        0.319   0.8781   0.3921     N
H        0.334   0.6791   0.5126     H
H        0.334   0.8209   0.5126     H
O       0.3355   0.1452    0.188     O
O       0.3355   0.3548    0.188     O
O       0.3363   0.0779    0.365     O
O       0.3363   0.4221    0.365     O
O       0.3365   0.1843   0.6443     O
O       0.3365   0.3157   0.6443     O
N       0.3369   0.0819   0.9063     N
N       0.3369   0.4181   0.9063     N
H       0.3447   0.5742   0.2615     H
H       0.3447   0.9258   0.2615     H
W      0.34564  0.66726  0.97766     W
W      0.34564  0.83274  0.97766     W
W      0.34633     0.75  0.75651     W
C       0.3472   0.6561   0.4565     C
C       0.3472   0.8439   0.4565     C
H       0.3475   0.0144   0.0249     H
H       0.3475   0.4856   0.0249     H
C       0.3533   0.5985     0.32     C
C       0.3533   0.9015     0.32     C
C       0.3622    0.038    0.971     C
C       0.3622    0.462    0.971     C
W      0.36667  0.15871  0.31769     W
W      0.36667  0.34129  0.31769     W
W      0.36756     0.25  0.56014     W
H       0.3708   0.1248   0.7746     H
H       0.3708   0.3752   0.7746     H
O       0.3738   0.6823   0.8438     O
O       0.3738   0.8177   0.8438     O
O       0.3742     0.75   0.0206     O
C       0.3753   0.0989   0.8334     C
C       0.3753   0.4011   0.8334     C
O       0.3758     0.25    0.282     O
O       0.3759   0.1824   0.4559     O
O       0.3759   0.3176   0.4559     O
C       0.3981   0.6553   0.4349     C
C       0.3981   0.8447   0.4349     C
N       0.4009   0.6156   0.3455     N
N       0.4009   0.8844   0.3455     N
C       0.4127   0.0341    0.944     C
C       0.4127   0.4659    0.944     C
N       0.4195   0.0712    0.864     N
N       0.4195   0.4288    0.864     N
H       0.4239    0.676   0.4707     H
H       0.4239    0.824   0.4707     H
H       0.4279   0.5112   0.2455     H
H       0.4279   0.9888   0.2455     H
H        0.437   0.0092   0.9773     H
H        0.437   0.4908   0.9773     H
C       0.4458   0.6046   0.2909     C
C       0.4458   0.8954   0.2909     C
H       0.4499   0.1776   0.7647     H
H       0.4499   0.3224   0.7647     H
C       0.4524   0.5442   0.2422     C
C       0.4524   0.9558   0.2422     C
C       0.4659   0.0827   0.8143     C
C       0.4659   0.4173   0.8143     C
C       0.4736   0.1435   0.7624     C
C       0.4736   0.3565   0.7624     C
H       0.4763   0.6893   0.3333     H
H       0.4763   0.8107   0.3333     H
C       0.4812    0.651    0.294     C
C       0.4812    0.849    0.294     C
H       0.4965   0.5069   0.8504     H
H       0.4965   0.9931   0.8504     H
C       0.4983   0.5329   0.1853     C
C       0.4983   0.9671   0.1853     C
C       0.5017   0.0329   0.8147     C
C       0.5017   0.4671   0.8147     C
H       0.5035   0.0069   0.1496     H
H       0.5035   0.4931   0.1496     H
C       0.5188    0.151    0.706     C
C       0.5188    0.349    0.706     C
H       0.5237   0.1893   0.6667     H
H       0.5237   0.3107   0.6667     H
C       0.5264   0.6435   0.2376     C
C       0.5264   0.8565   0.2376     C
C       0.5341   0.5827   0.1857     C
C       0.5341   0.9173   0.1857     C
C       0.5476   0.0442   0.7578     C
C       0.5476   0.4558   0.7578     C
H       0.5501   0.6776   0.2353     H
H       0.5501   0.8224   0.2353     H
C       0.5542   0.1046   0.7091     C
C       0.5542   0.3954   0.7091     C
H        0.563   0.5092   0.0227     H
H        0.563   0.9908   0.0227     H
H       0.5721   0.0112   0.7545     H
H       0.5721   0.4888   0.7545     H
H       0.5761    0.176   0.5293     H
H       0.5761    0.324   0.5293     H
N       0.5805   0.5712    0.136     N
N       0.5805   0.9288    0.136     N
C       0.5873   0.5341    0.056     C
C       0.5873   0.9659    0.056     C
N       0.5991   0.1156   0.6545     N
N       0.5991   0.3844   0.6545     N
C       0.6019   0.1553   0.5651     C
C       0.6019   0.3447   0.5651     C
O       0.6241   0.6824   0.5441     O
O       0.6241   0.8176   0.5441     O
O       0.6242     0.75    0.718     O
C       0.6247   0.5989   0.1666     C
C       0.6247   0.9011   0.1666     C
O       0.6258     0.25   0.9794     O
O       0.6262   0.1823   0.1562     O
O       0.6262   0.3177   0.1562     O
H       0.6292   0.6248   0.2254     H
H       0.6292   0.8752   0.2254     H
W      0.63244     0.75  0.43986     W
W      0.63333  0.65871  0.68231     W
W      0.63333  0.84129  0.68231     W
C       0.6378    0.538    0.029     C
C       0.6378    0.962    0.029     C
C       0.6467   0.0985     0.68     C
C       0.6467   0.4015     0.68     C
H       0.6525   0.5144   0.9751     H
H       0.6525   0.9856   0.9751     H
C       0.6528   0.1561   0.5435     C
C       0.6528   0.3439   0.5435     C
W      0.65367     0.25  0.24349     W
W      0.65436  0.16726  0.02234     W
W      0.65436  0.33274  0.02234     W
H       0.6553   0.0742   0.7385     H
H       0.6553   0.4258   0.7385     H
N       0.6631   0.5819   0.0937     N
N       0.6631   0.9181   0.0937     N
O       0.6635   0.6843   0.3557     O
O       0.6635   0.8157   0.3557     O
O       0.6637   0.5779    0.635     O
O       0.6637   0.9221    0.635     O
O       0.6645   0.6452    0.812     O
O       0.6645   0.8548    0.812     O
H        0.666   0.1791   0.4874     H
H        0.666   0.3209   0.4874     H
N        0.681   0.1219   0.6079     N
N        0.681   0.3781   0.6079     N
O       0.6988   0.1062   0.0885     O
O       0.6988   0.3938   0.0885     O
O       0.6992   0.1848    0.297     O
O       0.6992   0.3152    0.297     O
O       0.7006   0.1695   0.9117     O
O       0.7006   0.3305   0.9117     O
O       0.7063     0.25   0.0972     O
O       0.7175     0.75   0.4867     O
O       0.7186   0.6868    0.655     O
O       0.7186   0.8132    0.655     O
O       0.7218   0.6057   0.4703     O
O       0.7218   0.8943   0.4703     O
O       0.7223     0.75   0.8572     O
W      0.73339  0.66761  0.36542     W
W      0.73339  0.83239  0.36542     W
W      0.73477  0.57694  0.60737     W
W      0.73477  0.92306  0.60737     W
W      0.73497  0.65932  0.82678     W
W      0.73497  0.84068  0.82678     W
B       0.7372     0.75    0.599     B
O       0.7389   0.6159   0.2626     O
O       0.7389   0.8841   0.2626     O
Co     0.74085  0.60895   0.1009    Co
Co     0.74085  0.89105   0.1009    Co
O        0.742   0.0078   0.5892     O
O        0.742   0.4922   0.5892     O
O       0.7425   0.6281    0.947     O
O       0.7425   0.8719    0.947     O
O       0.7448     0.75   0.2929     O
O       0.7457    0.578    0.752     O
O       0.7457    0.922    0.752     O
O       0.7543    0.078    0.252     O
O       0.7543    0.422    0.252     O
O       0.7552     0.25   0.7929     O
O       0.7575   0.1281    0.447     O
O       0.7575   0.3719    0.447     O
O        0.758   0.5078   0.0892     O
O        0.758   0.9922   0.0892     O
Co     0.75915  0.10895   0.6009    Co
Co     0.75915  0.39105   0.6009    Co
O       0.7611   0.1159   0.7626     O
O       0.7611   0.3841   0.7626     O
B       0.7628     0.25    0.099     B
W      0.76503  0.15932  0.32678     W
W      0.76503  0.34068  0.32678     W
W      0.76523  0.07694  0.10737     W
W      0.76523  0.42306  0.10737     W
W      0.76661  0.16761  0.86542     W
W      0.76661  0.33239  0.86542     W
O       0.7777     0.25   0.3572     O
O       0.7782   0.1057   0.9703     O
O       0.7782   0.3943   0.9703     O
O       0.7814   0.1868    0.155     O
O       0.7814   0.3132    0.155     O
O       0.7825     0.25   0.9867     O
O       0.7937     0.75   0.5972     O
O       0.7994   0.6695   0.4117     O
O       0.7994   0.8305   0.4117     O
O       0.8008   0.6848    0.797     O
O       0.8008   0.8152    0.797     O
O       0.8012   0.6062   0.5885     O
O       0.8012   0.8938   0.5885     O
N        0.819   0.6219   0.1079     N
N        0.819   0.8781   0.1079     N
H        0.834   0.6791   0.9874     H
H        0.834   0.8209   0.9874     H
O       0.8355   0.1452    0.312     O
O       0.8355   0.3548    0.312     O
O       0.8363   0.0779    0.135     O
O       0.8363   0.4221    0.135     O
O       0.8365   0.1843   0.8557     O
O       0.8365   0.3157   0.8557     O
N       0.8369   0.0819   0.5937     N
N       0.8369   0.4181   0.5937     N
H       0.8447   0.5742   0.2385     H
H       0.8447   0.9258   0.2385     H
W      0.84564  0.66726  0.52234     W
W      0.84564  0.83274  0.52234     W
W      0.84633     0.75  0.74349     W
C       0.8472   0.6561   0.0435     C
C       0.8472   0.8439   0.0435     C
H       0.8475   0.0144   0.4751     H
H       0.8475   0.4856   0.4751     H
C       0.8533   0.5985     0.18     C
C       0.8533   0.9015     0.18     C
C       0.8622    0.038    0.529     C
C       0.8622    0.462    0.529     C
W      0.86667  0.15871  0.18231     W
W      0.86667  0.34129  0.18231     W
W      0.86756     0.25  0.93986     W
H       0.8708   0.1248   0.7254     H
H       0.8708   0.3752   0.7254     H
O       0.8738   0.6823   0.6562     O
O       0.8738   0.8177   0.6562     O
O       0.8742     0.75   0.4794     O
C       0.8753   0.0989   0.6666     C
C       0.8753   0.4011   0.6666     C
O       0.8758     0.25    0.218     O
O       0.8759   0.1824   0.0441     O
O       0.8759   0.3176   0.0441     O
C       0.8981   0.6553   0.0651     C
C       0.8981   0.8447   0.0651     C
N       0.9009   0.6156   0.1545     N
N       0.9009   0.8844   0.1545     N
C       0.9127   0.0341    0.556     C
C       0.9127   0.4659    0.556     C
N       0.9195   0.0712    0.636     N
N       0.9195   0.4288    0.636     N
H       0.9239    0.676   0.0293     H
H       0.9239    0.824   0.0293     H
H       0.9279   0.5112   0.2545     H
H       0.9279   0.9888   0.2545     H
H        0.937   0.0092   0.5227     H
H        0.937   0.4908   0.5227     H
C       0.9458   0.6046   0.2091     C
C       0.9458   0.8954   0.2091     C
H       0.9499   0.1776   0.7353     H
H       0.9499   0.3224   0.7353     H
C       0.9524   0.5442   0.2578     C
C       0.9524   0.9558   0.2578     C
C       0.9659   0.0827   0.6857     C
C       0.9659   0.4173   0.6857     C
C       0.9736   0.1435   0.7376     C
C       0.9736   0.3565   0.7376     C
H       0.9763   0.6893   0.1667     H
H       0.9763   0.8107   0.1667     H
C       0.9812    0.651    0.206     C
C       0.9812    0.849    0.206     C
H       0.9965   0.5069   0.6496     H
H       0.9965   0.9931   0.6496     H
C       0.9983   0.5329   0.3147     C
C       0.9983   0.9671   0.3147     C
