data_I
_chemical_name_common  '/home/zhangsd/repos/MofS-CGCNN/ML/data/SSD/clean_cifs/OQUXIJ_clean'
_cell_length_a 26.54800
_cell_length_b 20.07600
_cell_length_c 12.96400
_cell_angle_alpha 90.00000
_cell_angle_beta  90.00000
_cell_angle_gamma 90.00000
_space_group_name_H-M_alt      'P 1'


loop_
_space_group_symop_operation_xyz
  'x, y, z' 

loop_
_atom_site_label
_atom_site_fract_x
_atom_site_fract_y
_atom_site_fract_z
_atom_site_type_symbol
C        0.002   0.5331   0.1854     C
C        0.002   0.9669   0.1854     C
H       0.0038   0.5075    0.847     H
H       0.0038   0.9925    0.847     H
C       0.0195   0.6522    0.284     C
C       0.0195   0.8478    0.284     C
H       0.0259   0.6929   0.3152     H
H       0.0259   0.8071   0.3152     H
C       0.0273   0.1417    0.769     C
C       0.0273   0.3583    0.769     C
C       0.0342   0.0834   0.8181     C
C       0.0342   0.4166   0.8181     C
C       0.0472   0.5444   0.2383     C
C       0.0472   0.9556   0.2383     C
H       0.0522   0.1742   0.7682     H
H       0.0522   0.3258   0.7682     H
C       0.0541   0.6041   0.2871     C
C       0.0541   0.8959   0.2871     C
H       0.0665   0.0026   0.9855     H
H       0.0665   0.4974   0.9855     H
H       0.0721   0.5119   0.2403     H
H       0.0721   0.9881   0.2403     H
H       0.0755   0.6786   0.4681     H
H       0.0755   0.8214   0.4681     H
N       0.0803   0.0724   0.8714     N
N       0.0803   0.4276   0.8714     N
C       0.0899   0.0301    0.953     C
C       0.0899   0.4699    0.953     C
N       0.0989   0.6186   0.3445     N
N       0.0989   0.8814   0.3445     N
C       0.1018   0.6572   0.4344     C
C       0.1018   0.8428   0.4344     C
O       0.1227     0.75   0.0269     O
O       0.1239   0.1848   0.4591     O
O       0.1239   0.3152   0.4591     O
O       0.1239   0.6826   0.8489     O
O       0.1239   0.8174   0.8489     O
O       0.1251     0.25   0.2861     O
C       0.1259   0.0999    0.847     C
C       0.1259   0.4001    0.847     C
W      0.13104     0.25  0.56551     W
H       0.1313   0.1283   0.7914     H
H       0.1313   0.3717   0.7914     H
W      0.13182  0.15782  0.31856     W
W      0.13182  0.34218  0.31856     W
C       0.1385   0.0355   0.9769     C
C       0.1385   0.4645   0.9769     C
C        0.147   0.5989   0.3236     C
C        0.147   0.9011   0.3236     C
C       0.1518   0.6568   0.4622     C
C       0.1518   0.8432   0.4622     C
W      0.15234     0.75  0.76044     W
W      0.15292  0.66718  0.98433     W
W      0.15292  0.83282  0.98433     W
H       0.1546    0.012   0.0293     H
H       0.1546    0.488   0.0293     H
H       0.1561   0.5734   0.2667     H
H       0.1561   0.9266   0.2667     H
O       0.1592   0.1821   0.6541     O
O       0.1592   0.3179   0.6541     O
N       0.1616   0.0811   0.9124     N
N       0.1616   0.4189   0.9124     N
O       0.1617   0.0752   0.3671     O
O       0.1617   0.4248   0.3671     O
O       0.1624   0.1415   0.1855     O
O       0.1624   0.3585   0.1855     O
H       0.1645   0.6786   0.5199     H
H       0.1645   0.8214   0.5199     H
N       0.1802   0.6208   0.3957     N
N       0.1802   0.8792   0.3957     N
O       0.1983     0.75   0.9109     O
O       0.1995   0.6847    0.711     O
O       0.1995   0.8153    0.711     O
O       0.1998   0.6075   0.9158     O
O       0.1998   0.8925   0.9158     O
O       0.2011   0.6722   0.0926     O
O       0.2011   0.8278   0.0926     O
O       0.2138     0.25   0.5352     O
O       0.2142   0.1783    0.339     O
O       0.2142   0.3217    0.339     O
O       0.2196   0.1085   0.5307     O
O       0.2196   0.3915   0.5307     O
O       0.2214     0.25   0.1507     O
W      0.23107  0.16945  0.64064     W
W      0.23107  0.33055  0.64064     W
W      0.23305  0.07704  0.39507     W
W      0.23305  0.42296  0.39507     W
W       0.2338  0.15814  0.17629     W
W       0.2338  0.34186  0.17629     W
O       0.2372   0.1148   0.7442     O
O       0.2372   0.3852   0.7442     O
Co     0.24075  0.10694   0.9034    Co
Co     0.24075  0.39306   0.9034    Co
O       0.2415   0.5071   0.4155     O
O       0.2415   0.9929   0.4155     O
O       0.2432   0.1278   0.0546     O
O       0.2432   0.3722   0.0546     O
O       0.2437     0.25   0.7209     O
O       0.2457   0.0749   0.2517     O
O       0.2457   0.4251   0.2517     O
O       0.2543   0.5749   0.7517     O
O       0.2543   0.9251   0.7517     O
O       0.2563     0.75   0.2209     O
O       0.2568   0.6278   0.5546     O
O       0.2568   0.8722   0.5546     O
O       0.2585   0.0071   0.9155     O
O       0.2585   0.4929   0.9155     O
Co     0.25925  0.60694   0.4034    Co
Co     0.25925  0.89306   0.4034    Co
O       0.2628   0.6148   0.2442     O
O       0.2628   0.8852   0.2442     O
W       0.2662  0.65814  0.67629     W
W       0.2662  0.84186  0.67629     W
W      0.26695  0.57704  0.89507     W
W      0.26695  0.92296  0.89507     W
W      0.26893  0.66945  0.14064     W
W      0.26893  0.83055  0.14064     W
O       0.2786     0.75   0.6507     O
O       0.2804   0.6085   0.0307     O
O       0.2804   0.8915   0.0307     O
O       0.2858   0.6783    0.839     O
O       0.2858   0.8217    0.839     O
O       0.2862     0.75   0.0352     O
O       0.2989   0.1722   0.5926     O
O       0.2989   0.3278   0.5926     O
O       0.3002   0.1075   0.4158     O
O       0.3002   0.3925   0.4158     O
O       0.3005   0.1847    0.211     O
O       0.3005   0.3153    0.211     O
O       0.3017     0.25   0.4109     O
N       0.3198   0.1208   0.8957     N
N       0.3198   0.3792   0.8957     N
H       0.3355   0.1786   0.0199     H
H       0.3355   0.3214   0.0199     H
O       0.3376   0.6415   0.6855     O
O       0.3376   0.8585   0.6855     O
O       0.3383   0.5752   0.8671     O
O       0.3383   0.9248   0.8671     O
N       0.3384   0.5811   0.4124     N
N       0.3384   0.9189   0.4124     N
O       0.3408   0.6821   0.1541     O
O       0.3408   0.8179   0.1541     O
H       0.3439   0.0734   0.7667     H
H       0.3439   0.4266   0.7667     H
H       0.3454    0.512   0.5293     H
H       0.3454    0.988   0.5293     H
W      0.34708  0.16718  0.48433     W
W      0.34708  0.33282  0.48433     W
W      0.34766     0.25  0.26044     W
C       0.3482   0.1568   0.9622     C
C       0.3482   0.3432   0.9622     C
C        0.353   0.0989   0.8236     C
C        0.353   0.4011   0.8236     C
C       0.3615   0.5355   0.4769     C
C       0.3615   0.9645   0.4769     C
W      0.36818  0.65782  0.81856     W
W      0.36818  0.84218  0.81856     W
H       0.3687   0.6283   0.2914     H
H       0.3687   0.8717   0.2914     H
W      0.36896     0.75  0.06551     W
C       0.3741   0.5999    0.347     C
C       0.3741   0.9001    0.347     C
O       0.3749     0.75   0.7861     O
O       0.3761   0.1826   0.3489     O
O       0.3761   0.3174   0.3489     O
O       0.3761   0.6848   0.9591     O
O       0.3761   0.8152   0.9591     O
O       0.3773     0.25   0.5269     O
C       0.3982   0.1572   0.9344     C
C       0.3982   0.3428   0.9344     C
N       0.4011   0.1186   0.8445     N
N       0.4011   0.3814   0.8445     N
C       0.4101   0.5301    0.453     C
C       0.4101   0.9699    0.453     C
N       0.4197   0.5724   0.3714     N
N       0.4197   0.9276   0.3714     N
H       0.4245   0.1786   0.9681     H
H       0.4245   0.3214   0.9681     H
H       0.4279   0.0119   0.7403     H
H       0.4279   0.4881   0.7403     H
H       0.4335   0.5026   0.4855     H
H       0.4335   0.9974   0.4855     H
C       0.4459   0.1041   0.7871     C
C       0.4459   0.3959   0.7871     C
H       0.4478   0.6742   0.2682     H
H       0.4478   0.8258   0.2682     H
C       0.4528   0.0444   0.7383     C
C       0.4528   0.4556   0.7383     C
C       0.4658   0.5834   0.3181     C
C       0.4658   0.9166   0.3181     C
C       0.4727   0.6417    0.269     C
C       0.4727   0.8583    0.269     C
H       0.4741   0.1929   0.8152     H
H       0.4741   0.3071   0.8152     H
C       0.4805   0.1522    0.784     C
C       0.4805   0.3478    0.784     C
H       0.4962   0.0075    0.347     H
H       0.4962   0.4925    0.347     H
C        0.498   0.0331   0.6854     C
C        0.498   0.4669   0.6854     C
C        0.502   0.5331   0.3146     C
C        0.502   0.9669   0.3146     C
H       0.5038   0.5075    0.653     H
H       0.5038   0.9925    0.653     H
C       0.5195   0.6522    0.216     C
C       0.5195   0.8478    0.216     C
H       0.5259   0.6929   0.1848     H
H       0.5259   0.8071   0.1848     H
C       0.5273   0.1417    0.731     C
C       0.5273   0.3583    0.731     C
C       0.5342   0.0834   0.6819     C
C       0.5342   0.4166   0.6819     C
C       0.5472   0.5444   0.2617     C
C       0.5472   0.9556   0.2617     C
H       0.5522   0.1742   0.7318     H
H       0.5522   0.3258   0.7318     H
C       0.5541   0.6041   0.2129     C
C       0.5541   0.8959   0.2129     C
H       0.5665   0.0026   0.5145     H
H       0.5665   0.4974   0.5145     H
H       0.5721   0.5119   0.2597     H
H       0.5721   0.9881   0.2597     H
H       0.5755   0.6786   0.0319     H
H       0.5755   0.8214   0.0319     H
N       0.5803   0.0724   0.6286     N
N       0.5803   0.4276   0.6286     N
C       0.5899   0.0301    0.547     C
C       0.5899   0.4699    0.547     C
N       0.5989   0.6186   0.1555     N
N       0.5989   0.8814   0.1555     N
C       0.6018   0.6572   0.0656     C
C       0.6018   0.8428   0.0656     C
O       0.6227     0.75   0.4731     O
O       0.6239   0.1848   0.0409     O
O       0.6239   0.3152   0.0409     O
O       0.6239   0.6826   0.6511     O
O       0.6239   0.8174   0.6511     O
O       0.6251     0.25   0.2139     O
C       0.6259   0.0999    0.653     C
C       0.6259   0.4001    0.653     C
W      0.63104     0.25  0.93449     W
H       0.6313   0.1283   0.7086     H
H       0.6313   0.3717   0.7086     H
W      0.63182  0.15782  0.18144     W
W      0.63182  0.34218  0.18144     W
C       0.6385   0.0355   0.5231     C
C       0.6385   0.4645   0.5231     C
C        0.647   0.5989   0.1764     C
C        0.647   0.9011   0.1764     C
C       0.6518   0.6568   0.0378     C
C       0.6518   0.8432   0.0378     C
W      0.65234     0.75  0.73956     W
W      0.65292  0.66718  0.51567     W
W      0.65292  0.83282  0.51567     W
H       0.6546    0.012   0.4707     H
H       0.6546    0.488   0.4707     H
H       0.6561   0.5734   0.2333     H
H       0.6561   0.9266   0.2333     H
O       0.6592   0.1821   0.8459     O
O       0.6592   0.3179   0.8459     O
N       0.6616   0.0811   0.5876     N
N       0.6616   0.4189   0.5876     N
O       0.6617   0.0752   0.1329     O
O       0.6617   0.4248   0.1329     O
O       0.6624   0.1415   0.3145     O
O       0.6624   0.3585   0.3145     O
H       0.6645   0.6786   0.9801     H
H       0.6645   0.8214   0.9801     H
N       0.6802   0.6208   0.1043     N
N       0.6802   0.8792   0.1043     N
O       0.6983     0.75   0.5891     O
O       0.6995   0.6847    0.789     O
O       0.6995   0.8153    0.789     O
O       0.6998   0.6075   0.5842     O
O       0.6998   0.8925   0.5842     O
O       0.7011   0.6722   0.4074     O
O       0.7011   0.8278   0.4074     O
O       0.7138     0.25   0.9648     O
O       0.7142   0.1783    0.161     O
O       0.7142   0.3217    0.161     O
O       0.7196   0.1085   0.9693     O
O       0.7196   0.3915   0.9693     O
O       0.7214     0.25   0.3493     O
W      0.73107  0.16945  0.85936     W
W      0.73107  0.33055  0.85936     W
W      0.73305  0.07704  0.10493     W
W      0.73305  0.42296  0.10493     W
W       0.7338  0.15814  0.32371     W
W       0.7338  0.34186  0.32371     W
O       0.7372   0.1148   0.7558     O
O       0.7372   0.3852   0.7558     O
Co     0.74075  0.10694   0.5966    Co
Co     0.74075  0.39306   0.5966    Co
O       0.7415   0.5071   0.0845     O
O       0.7415   0.9929   0.0845     O
O       0.7432   0.1278   0.4454     O
O       0.7432   0.3722   0.4454     O
O       0.7437     0.25   0.7791     O
O       0.7457   0.0749   0.2483     O
O       0.7457   0.4251   0.2483     O
O       0.7543   0.5749   0.7483     O
O       0.7543   0.9251   0.7483     O
O       0.7563     0.75   0.2791     O
O       0.7568   0.6278   0.9454     O
O       0.7568   0.8722   0.9454     O
O       0.7585   0.0071   0.5845     O
O       0.7585   0.4929   0.5845     O
Co     0.75925  0.60694   0.0966    Co
Co     0.75925  0.89306   0.0966    Co
O       0.7628   0.6148   0.2558     O
O       0.7628   0.8852   0.2558     O
W       0.7662  0.65814  0.82371     W
W       0.7662  0.84186  0.82371     W
W      0.76695  0.57704  0.60493     W
W      0.76695  0.92296  0.60493     W
W      0.76893  0.66945  0.35936     W
W      0.76893  0.83055  0.35936     W
O       0.7786     0.75   0.8493     O
O       0.7804   0.6085   0.4693     O
O       0.7804   0.8915   0.4693     O
O       0.7858   0.6783    0.661     O
O       0.7858   0.8217    0.661     O
O       0.7862     0.75   0.4648     O
O       0.7989   0.1722   0.9074     O
O       0.7989   0.3278   0.9074     O
O       0.8002   0.1075   0.0842     O
O       0.8002   0.3925   0.0842     O
O       0.8005   0.1847    0.289     O
O       0.8005   0.3153    0.289     O
O       0.8017     0.25   0.0891     O
N       0.8198   0.1208   0.6043     N
N       0.8198   0.3792   0.6043     N
H       0.8355   0.1786   0.4801     H
H       0.8355   0.3214   0.4801     H
O       0.8376   0.6415   0.8145     O
O       0.8376   0.8585   0.8145     O
O       0.8383   0.5752   0.6329     O
O       0.8383   0.9248   0.6329     O
N       0.8384   0.5811   0.0876     N
N       0.8384   0.9189   0.0876     N
O       0.8408   0.6821   0.3459     O
O       0.8408   0.8179   0.3459     O
H       0.8439   0.0734   0.7333     H
H       0.8439   0.4266   0.7333     H
H       0.8454    0.512   0.9707     H
H       0.8454    0.988   0.9707     H
W      0.84708  0.16718  0.01567     W
W      0.84708  0.33282  0.01567     W
W      0.84766     0.25  0.23956     W
C       0.8482   0.1568   0.5378     C
C       0.8482   0.3432   0.5378     C
C        0.853   0.0989   0.6764     C
C        0.853   0.4011   0.6764     C
C       0.8615   0.5355   0.0231     C
C       0.8615   0.9645   0.0231     C
W      0.86818  0.65782  0.68144     W
W      0.86818  0.84218  0.68144     W
H       0.8687   0.6283   0.2086     H
H       0.8687   0.8717   0.2086     H
W      0.86896     0.75  0.43449     W
C       0.8741   0.5999    0.153     C
C       0.8741   0.9001    0.153     C
O       0.8749     0.75   0.7139     O
O       0.8761   0.1826   0.1511     O
O       0.8761   0.3174   0.1511     O
O       0.8761   0.6848   0.5409     O
O       0.8761   0.8152   0.5409     O
O       0.8773     0.25   0.9731     O
C       0.8982   0.1572   0.5656     C
C       0.8982   0.3428   0.5656     C
N       0.9011   0.1186   0.6555     N
N       0.9011   0.3814   0.6555     N
C       0.9101   0.5301    0.047     C
C       0.9101   0.9699    0.047     C
N       0.9197   0.5724   0.1286     N
N       0.9197   0.9276   0.1286     N
H       0.9245   0.1786   0.5319     H
H       0.9245   0.3214   0.5319     H
H       0.9279   0.0119   0.7597     H
H       0.9279   0.4881   0.7597     H
H       0.9335   0.5026   0.0145     H
H       0.9335   0.9974   0.0145     H
C       0.9459   0.1041   0.7129     C
C       0.9459   0.3959   0.7129     C
H       0.9478   0.6742   0.2318     H
H       0.9478   0.8258   0.2318     H
C       0.9528   0.0444   0.7617     C
C       0.9528   0.4556   0.7617     C
C       0.9658   0.5834   0.1819     C
C       0.9658   0.9166   0.1819     C
C       0.9727   0.6417    0.231     C
C       0.9727   0.8583    0.231     C
H       0.9741   0.1929   0.6848     H
H       0.9741   0.3071   0.6848     H
C       0.9805   0.1522    0.716     C
C       0.9805   0.3478    0.716     C
H       0.9962   0.0075    0.153     H
H       0.9962   0.4925    0.153     H
C        0.998   0.0331   0.8146     C
C        0.998   0.4669   0.8146     C
