data_I
_chemical_name_common  '/home/zhangsd/repos/MofS-CGCNN/ML/data/SSD/clean_cifs/OSIXIY_clean'
_cell_length_a 11.65630
_cell_length_b 11.93180
_cell_length_c 21.38660
_cell_angle_alpha 90.00000
_cell_angle_beta  90.00000
_cell_angle_gamma 113.84400
_space_group_name_H-M_alt      'P 1'


loop_
_space_group_symop_operation_xyz
  'x, y, z' 

loop_
_atom_site_label
_atom_site_fract_x
_atom_site_fract_y
_atom_site_fract_z
_atom_site_type_symbol
C       0.0068   0.5617   0.1059     C
H       0.0208   0.0024    0.132     H
C       0.0234   0.0698   0.8924     C
Ag     0.03427  0.58794  0.31382    Ag
H       0.0355   0.9028   0.0888     H
H       0.0372   0.5113   0.8702     H
H       0.0407   0.6791   0.1784     H
H       0.0526   0.4118   0.9131     H
Ag     0.05504  0.09894  0.68632    Ag
H       0.0555   0.5449    0.074     H
H       0.0621   0.1898   0.8204     H
H       0.0705   0.0513   0.9246     H
C       0.0912   0.6596   0.1478     C
H       0.1031   0.3842   0.4048     H
N       0.1084    0.552  0.40615     N
C       0.1109   0.1683  0.85123     C
H        0.115   0.3489    0.064     H
C       0.1191   0.4545  0.42832     C
H       0.1266   0.2313   0.0376     H
N       0.1304   0.0617  0.59443     N
N       0.1306   0.9012  0.29892     N
H       0.1333   0.8971   0.5963     H
H       0.1339   0.2552   0.1099     H
H       0.1354   0.7327   0.1232     H
N       0.1394   0.6341  0.45502     N
H       0.1394   0.7395   0.9439     H
C       0.1395   0.9636   0.5717     C
Ag     0.14103  0.81845  0.44771    Ag
H       0.1412   0.8633   0.9183     H
H       0.1448   0.0674   0.4002     H
N        0.146   0.1379  0.54372     N
H       0.1471   0.1908   0.4267     H
N       0.1486   0.4055  0.70072     N
Ag     0.15085  0.32355   0.5529    Ag
C       0.1549   0.2932   0.0695     C
H       0.1556   0.2406   0.8764     H
N       0.1557   0.4659  0.48867     N
N       0.1586    0.968  0.50975     N
C       0.1622   0.0788  0.49482     C
C       0.1661   0.5791  0.50318     C
H       0.1695   0.7739   0.8733     H
H       0.1707   0.6965   0.5725     H
N       0.1712   0.5852  0.24064     N
C       0.1793   0.8056   0.9151     C
H       0.1826   0.5783   0.5974     H
C       0.1851   0.1323  0.43033     C
C       0.1853   0.6257  0.18145     C
H        0.188   0.9603   0.2133     H
N       0.1891   0.0897  0.75909     N
N       0.1896   0.8596  0.34373     N
C       0.2039    0.133  0.81814     C
H       0.2046   0.4613   0.7871     H
C       0.2057   0.9297  0.25038     C
N       0.2085   0.3666  0.65569     N
C       0.2101   0.6401   0.5649     C
C       0.2232   0.4325  0.74966     C
C       0.2768   0.5675  0.24966     C
C       0.2899   0.3599   0.0649     C
N       0.2915   0.6334  0.15569     N
C       0.2943   0.0703  0.75038     C
H       0.2954   0.5387   0.2871     H
C       0.2961    0.867  0.31814     C
N       0.3104   0.1404  0.84373     N
N       0.3109   0.9103  0.25909     N
H        0.312   0.0397   0.7133     H
C       0.3147   0.3743  0.68145     C
C       0.3149   0.8677  0.93033     C
H       0.3174   0.4217   0.0974     H
C       0.3207   0.1944   0.4151     C
N       0.3288   0.4148  0.74064     N
H       0.3293   0.3035   0.0725     H
H       0.3305   0.2261   0.3733     H
C       0.3339   0.4209  0.00318     C
C       0.3378   0.9212  0.99482     C
N       0.3414    0.032  0.00975     N
N       0.3443   0.5341  0.98867     N
H       0.3444   0.7594   0.3764     H
C       0.3451   0.7068   0.5695     C
Ag     0.34915  0.67645   0.0529    Ag
N       0.3514   0.5945  0.20072     N
H       0.3529   0.8092   0.9267     H
N        0.354   0.8621  0.04372     N
H       0.3552   0.9326   0.9002     H
H       0.3588   0.1367   0.4183     H
Ag     0.35897  0.18155  0.94771    Ag
C       0.3605   0.0364   0.0717     C
H       0.3606   0.2605   0.4439     H
N       0.3606   0.3659  0.95502     N
H       0.3646   0.2673   0.6232     H
H       0.3661   0.7448   0.6099     H
H       0.3667   0.1029   0.0963     H
N       0.3694   0.0988  0.79892     N
N       0.3696   0.9383  0.09443     N
H       0.3734   0.7687   0.5376     H
C       0.3809   0.5455  0.92832     C
H        0.385   0.6511    0.564     H
C       0.3891   0.8317  0.35123     C
N       0.3916    0.448  0.90615     N
H       0.3969   0.6158   0.9048     H
C       0.4088   0.3404   0.6478     C
H       0.4295   0.9487   0.4246     H
H       0.4379   0.8102   0.3204     H
H       0.4445   0.4551    0.574     H
Ag     0.44496  0.90106  0.18632    Ag
H       0.4474   0.5882   0.4131     H
H       0.4593   0.3209   0.6784     H
H       0.4628   0.4887   0.3702     H
H       0.4645   0.0972   0.5888     H
Ag     0.46573  0.41206  0.81382    Ag
C       0.4766   0.9302   0.3924     C
H       0.4792   0.9976    0.632     H
C       0.4932   0.4383   0.6059     C
C       0.5068   0.5617   0.3941     C
H       0.5208   0.0024    0.368     H
C       0.5234   0.0698   0.6076     C
Ag     0.53427  0.58794  0.18618    Ag
H       0.5355   0.9028   0.4112     H
H       0.5372   0.5113   0.6298     H
H       0.5407   0.6791   0.3216     H
H       0.5526   0.4118   0.5869     H
Ag     0.55504  0.09894  0.81368    Ag
H       0.5555   0.5449    0.426     H
H       0.5621   0.1898   0.6796     H
H       0.5705   0.0513   0.5754     H
C       0.5912   0.6596   0.3522     C
H       0.6031   0.3842   0.0952     H
N       0.6084    0.552  0.09385     N
C       0.6109   0.1683  0.64877     C
H        0.615   0.3489    0.436     H
C       0.6191   0.4545  0.07168     C
H       0.6266   0.2313   0.4624     H
N       0.6304   0.0617  0.90557     N
N       0.6306   0.9012  0.20108     N
H       0.6333   0.8971   0.9037     H
H       0.6339   0.2552   0.3901     H
H       0.6354   0.7327   0.3768     H
N       0.6394   0.6341  0.04498     N
H       0.6394   0.7395   0.5561     H
C       0.6395   0.9636   0.9283     C
Ag     0.64103  0.81845  0.05229    Ag
H       0.6412   0.8633   0.5817     H
H       0.6448   0.0674   0.0998     H
N        0.646   0.1379  0.95628     N
H       0.6471   0.1908   0.0733     H
N       0.6486   0.4055  0.79928     N
Ag     0.65085  0.32355   0.9471    Ag
C       0.6549   0.2932   0.4305     C
H       0.6556   0.2406   0.6236     H
N       0.6557   0.4659  0.01133     N
N       0.6586    0.968  0.99025     N
C       0.6622   0.0788  0.00518     C
C       0.6661   0.5791  0.99682     C
H       0.6695   0.7739   0.6267     H
H       0.6707   0.6965   0.9275     H
N       0.6712   0.5852  0.25936     N
C       0.6793   0.8056   0.5849     C
H       0.6826   0.5783   0.9026     H
C       0.6851   0.1323  0.06967     C
C       0.6853   0.6257  0.31855     C
H        0.688   0.9603   0.2867     H
N       0.6891   0.0897  0.74091     N
N       0.6896   0.8596  0.15627     N
C       0.7039    0.133  0.68186     C
H       0.7046   0.4613   0.7129     H
C       0.7057   0.9297  0.24962     C
N       0.7085   0.3666  0.84431     N
C       0.7101   0.6401   0.9351     C
C       0.7232   0.4325  0.75034     C
C       0.7768   0.5675  0.25034     C
C       0.7899   0.3599   0.4351     C
N       0.7915   0.6334  0.34431     N
C       0.7943   0.0703  0.74962     C
H       0.7954   0.5387   0.2129     H
C       0.7961    0.867  0.18186     C
N       0.8104   0.1404  0.65627     N
N       0.8109   0.9103  0.24091     N
H        0.812   0.0397   0.7867     H
C       0.8147   0.3743  0.81855     C
C       0.8149   0.8677  0.56967     C
H       0.8174   0.4217   0.4026     H
C       0.8207   0.1944   0.0849     C
N       0.8288   0.4148  0.75936     N
H       0.8293   0.3035   0.4275     H
H       0.8305   0.2261   0.1267     H
C       0.8339   0.4209  0.49682     C
C       0.8378   0.9212  0.50518     C
N       0.8414    0.032  0.49025     N
N       0.8443   0.5341  0.51133     N
H       0.8444   0.7594   0.1236     H
C       0.8451   0.7068   0.9305     C
Ag     0.84915  0.67645   0.4471    Ag
N       0.8514   0.5945  0.29928     N
H       0.8529   0.8092   0.5733     H
N        0.854   0.8621  0.45628     N
H       0.8552   0.9326   0.5998     H
H       0.8588   0.1367   0.0817     H
Ag     0.85897  0.18155  0.55229    Ag
C       0.8605   0.0364   0.4283     C
H       0.8606   0.2605   0.0561     H
N       0.8606   0.3659  0.54498     N
H       0.8646   0.2673   0.8768     H
H       0.8661   0.7448   0.8901     H
H       0.8667   0.1029   0.4037     H
N       0.8694   0.0988  0.70108     N
N       0.8696   0.9383  0.40557     N
H       0.8734   0.7687   0.9624     H
C       0.8809   0.5455  0.57168     C
H        0.885   0.6511    0.936     H
C       0.8891   0.8317  0.14877     C
N       0.8916    0.448  0.59385     N
H       0.8969   0.6158   0.5952     H
C       0.9088   0.3404   0.8522     C
H       0.9295   0.9487   0.0754     H
H       0.9379   0.8102   0.1796     H
H       0.9445   0.4551    0.926     H
Ag     0.94496  0.90106  0.31368    Ag
H       0.9474   0.5882   0.0869     H
H       0.9593   0.3209   0.8216     H
H       0.9628   0.4887   0.1298     H
H       0.9645   0.0972   0.9112     H
Ag     0.96573  0.41206  0.68618    Ag
C       0.9766   0.9302   0.1076     C
H       0.9792   0.9976    0.868     H
C       0.9932   0.4383   0.8941     C
