data_I
_chemical_name_common  '/home/zhangsd/repos/MofS-CGCNN/ML/data/SSD/clean_cifs/OTATOT_clean'
_cell_length_a 10.03890
_cell_length_b 17.74230
_cell_length_c 19.74570
_cell_angle_alpha 90.00000
_cell_angle_beta  90.00000
_cell_angle_gamma 90.00000
_space_group_name_H-M_alt      'P 1'


loop_
_space_group_symop_operation_xyz
  'x, y, z' 

loop_
_atom_site_label
_atom_site_fract_x
_atom_site_fract_y
_atom_site_fract_z
_atom_site_type_symbol
C       0.0033  0.06318  0.85472     C
C       0.0033  0.43682  0.64528     C
H       0.0132   0.7259   0.5551     H
H       0.0132   0.7741   0.9449     H
C       0.0242  0.52136   0.4701     C
C       0.0242  0.97864   0.0299     C
H       0.0278   0.2461   0.9416     H
H       0.0278   0.2539   0.5584     H
Tb     0.03138     0.75     0.25    Tb
C       0.0471  0.02255   0.9099     C
C       0.0471  0.47745   0.5901     C
H       0.0516   0.0623   0.8145     H
H       0.0516   0.4377   0.6855     H
C       0.0644  0.20743  0.03558     C
C       0.0644  0.29257  0.46442     C
C       0.0892  0.21967  0.96765     C
C       0.0892  0.28033  0.53235     C
N      0.10885  0.60402  0.35889     N
N      0.10885  0.89598  0.14111     N
H       0.1242   0.6368   0.0413     H
H       0.1242   0.8632   0.4587     H
H        0.126   0.5046   0.5933     H
H        0.126   0.9954   0.9067     H
O      0.12685  0.21973  0.82859     O
O      0.12685  0.28027  0.67141     O
H       0.1363   0.1597   0.1197     H
H       0.1363   0.3403   0.3803     H
C       0.1418  0.56198  0.47062     C
C       0.1418  0.93802  0.02938     C
O      0.14915   0.6446  0.30523     O
O      0.14915   0.8554  0.19477     O
C       0.1537  0.16824  0.07407     C
C       0.1537  0.33176  0.42593     C
O      0.15641  0.69829   0.1599     O
O      0.15641  0.80171   0.3401     O
H       0.1708   0.6146   0.9281     H
H       0.1708   0.8854   0.5719     H
C        0.183  0.60273  0.41548     C
C        0.183  0.89727  0.08452     C
H       0.1943   0.5616   0.5094     H
H       0.1943   0.9384   0.9906     H
C       0.2034  0.65409  0.02241     C
C       0.2034  0.84591  0.47759     C
C       0.2048  0.19288  0.93804     C
C       0.2048  0.30712  0.56196     C
C        0.228   0.2045  0.86341     C
C        0.228   0.2955  0.63659     C
C        0.231  0.64145  0.95453     C
C        0.231  0.85855  0.54547     C
H       0.2374   0.1295   0.5827     H
H       0.2374   0.3705   0.9173     H
H       0.2626   0.6295   0.4173     H
H       0.2626   0.8705   0.0827     H
C        0.269  0.14145  0.04547     C
C        0.269  0.35855  0.45453     C
C        0.272   0.7045  0.13659     C
C        0.272   0.7955  0.36341     C
C       0.2952  0.69288  0.06196     C
C       0.2952  0.80712  0.43804     C
C       0.2966  0.15409  0.97759     C
C       0.2966  0.34591  0.52241     C
H       0.3057   0.0616   0.4906     H
H       0.3057   0.4384   0.0094     H
C        0.317  0.10273  0.58452     C
C        0.317  0.39727  0.91548     C
H       0.3292   0.1146   0.0719     H
H       0.3292   0.3854   0.4281     H
O      0.34359  0.19829   0.8401     O
O      0.34359  0.30171   0.6599     O
C       0.3463  0.66824  0.92593     C
C       0.3463  0.83176  0.57407     C
O      0.35085   0.1446  0.69477     O
O      0.35085   0.3554  0.80523     O
C       0.3582  0.06198  0.52938     C
C       0.3582  0.43802  0.97062     C
H       0.3637   0.6597   0.8803     H
H       0.3637   0.8403   0.6197     H
O      0.37315  0.71973  0.17141     O
O      0.37315  0.78027  0.32859     O
H        0.374   0.0046   0.4067     H
H        0.374   0.4954   0.0933     H
H       0.3758   0.1368   0.9587     H
H       0.3758   0.3632   0.5413     H
N      0.39115  0.10402  0.64111     N
N      0.39115  0.39598  0.85889     N
C       0.4108  0.71967  0.03235     C
C       0.4108  0.78033  0.46765     C
C       0.4356  0.70743  0.96442     C
C       0.4356  0.79257  0.53558     C
H       0.4484   0.5623   0.1855     H
H       0.4484   0.9377   0.3145     H
C       0.4529  0.52255   0.0901     C
C       0.4529  0.97745   0.4099     C
Tb     0.46862     0.25     0.75    Tb
H       0.4722   0.7461   0.0584     H
H       0.4722   0.7539   0.4416     H
C       0.4758  0.02136   0.5299     C
C       0.4758  0.47864   0.9701     C
H       0.4868   0.2259   0.4449     H
H       0.4868   0.2741   0.0551     H
C       0.4967  0.56318  0.14528     C
C       0.4967  0.93682  0.35472     C
C       0.5033  0.06318  0.64528     C
C       0.5033  0.43682  0.85472     C
H       0.5132   0.7259   0.9449     H
H       0.5132   0.7741   0.5551     H
C       0.5242  0.52136   0.0299     C
C       0.5242  0.97864   0.4701     C
H       0.5278   0.2461   0.5584     H
H       0.5278   0.2539   0.9416     H
Tb     0.53138     0.75     0.25    Tb
C       0.5471  0.02255   0.5901     C
C       0.5471  0.47745   0.9099     C
H       0.5516   0.0623   0.6855     H
H       0.5516   0.4377   0.8145     H
C       0.5644  0.20743  0.46442     C
C       0.5644  0.29257  0.03558     C
C       0.5892  0.21967  0.53235     C
C       0.5892  0.28033  0.96765     C
N      0.60885  0.60402  0.14111     N
N      0.60885  0.89598  0.35889     N
H       0.6242   0.6368   0.4587     H
H       0.6242   0.8632   0.0413     H
H        0.626   0.5046   0.9067     H
H        0.626   0.9954   0.5933     H
O      0.62685  0.21973  0.67141     O
O      0.62685  0.28027  0.82859     O
H       0.6363   0.1597   0.3803     H
H       0.6363   0.3403   0.1197     H
C       0.6418  0.56198  0.02938     C
C       0.6418  0.93802  0.47062     C
O      0.64915   0.6446  0.19477     O
O      0.64915   0.8554  0.30523     O
C       0.6537  0.16824  0.42593     C
C       0.6537  0.33176  0.07407     C
O      0.65641  0.69829   0.3401     O
O      0.65641  0.80171   0.1599     O
H       0.6708   0.6146   0.5719     H
H       0.6708   0.8854   0.9281     H
C        0.683  0.60273  0.08452     C
C        0.683  0.89727  0.41548     C
H       0.6943   0.5616   0.9906     H
H       0.6943   0.9384   0.5094     H
C       0.7034  0.65409  0.47759     C
C       0.7034  0.84591  0.02241     C
C       0.7048  0.19288  0.56196     C
C       0.7048  0.30712  0.93804     C
C        0.728   0.2045  0.63659     C
C        0.728   0.2955  0.86341     C
C        0.731  0.64145  0.54547     C
C        0.731  0.85855  0.95453     C
H       0.7374   0.1295   0.9173     H
H       0.7374   0.3705   0.5827     H
H       0.7626   0.6295   0.0827     H
H       0.7626   0.8705   0.4173     H
C        0.769  0.14145  0.45453     C
C        0.769  0.35855  0.04547     C
C        0.772   0.7045  0.36341     C
C        0.772   0.7955  0.13659     C
C       0.7952  0.69288  0.43804     C
C       0.7952  0.80712  0.06196     C
C       0.7966  0.15409  0.52241     C
C       0.7966  0.34591  0.97759     C
H       0.8057   0.0616   0.0094     H
H       0.8057   0.4384   0.4906     H
C        0.817  0.10273  0.91548     C
C        0.817  0.39727  0.58452     C
H       0.8292   0.1146   0.4281     H
H       0.8292   0.3854   0.0719     H
O      0.84359  0.19829   0.6599     O
O      0.84359  0.30171   0.8401     O
C       0.8463  0.66824  0.57407     C
C       0.8463  0.83176  0.92593     C
O      0.85085   0.1446  0.80523     O
O      0.85085   0.3554  0.69477     O
C       0.8582  0.06198  0.97062     C
C       0.8582  0.43802  0.52938     C
H       0.8637   0.6597   0.6197     H
H       0.8637   0.8403   0.8803     H
O      0.87315  0.71973  0.32859     O
O      0.87315  0.78027  0.17141     O
H        0.874   0.0046   0.0933     H
H        0.874   0.4954   0.4067     H
H       0.8758   0.1368   0.5413     H
H       0.8758   0.3632   0.9587     H
N      0.89115  0.10402  0.85889     N
N      0.89115  0.39598  0.64111     N
C       0.9108  0.71967  0.46765     C
C       0.9108  0.78033  0.03235     C
C       0.9356  0.70743  0.53558     C
C       0.9356  0.79257  0.96442     C
H       0.9484   0.5623   0.3145     H
H       0.9484   0.9377   0.1855     H
C       0.9529  0.52255   0.4099     C
C       0.9529  0.97745   0.0901     C
Tb     0.96862     0.25     0.75    Tb
H       0.9722   0.7461   0.4416     H
H       0.9722   0.7539   0.0584     H
C       0.9758  0.02136   0.9701     C
C       0.9758  0.47864   0.5299     C
H       0.9868   0.2259   0.0551     H
H       0.9868   0.2741   0.4449     H
C       0.9967  0.56318  0.35472     C
C       0.9967  0.93682  0.14528     C
