data_I
_chemical_name_common  '/home/zhangsd/repos/MofS-CGCNN/ML/data/SSD/clean_cifs/OTAVOV_clean'
_cell_length_a 10.13900
_cell_length_b 17.80400
_cell_length_c 20.01000
_cell_angle_alpha 90.00000
_cell_angle_beta  90.00000
_cell_angle_gamma 90.00000
_space_group_name_H-M_alt      'P 1'


loop_
_space_group_symop_operation_xyz
  'x, y, z' 

loop_
_atom_site_label
_atom_site_fract_x
_atom_site_fract_y
_atom_site_fract_z
_atom_site_type_symbol
C       0.0019   0.5607   0.8562     C
C       0.0019   0.9393   0.6438     C
H       0.0167   0.2258    0.553     H
H       0.0167   0.2742    0.947     H
C       0.0241   0.0211   0.4707     C
C       0.0241   0.4789   0.0293     C
H       0.0286   0.7461   0.9414     H
H       0.0286   0.7539   0.5586     H
La     0.03061     0.25     0.25    La
C       0.0474   0.5214   0.9118     C
C       0.0474   0.9786   0.5882     C
H       0.0498   0.5598   0.8166     H
H       0.0498   0.9402   0.6834     H
C        0.061   0.7074   0.0345     C
C        0.061   0.7926   0.4655     C
C        0.088   0.7198    0.968     C
C        0.088   0.7802    0.532     C
N       0.1098   0.0994   0.3597     N
N       0.1098   0.4006   0.1403     N
H       0.1247   0.6608   0.1173     H
H       0.1247   0.8392   0.3827     H
H       0.1256   0.1349   0.0371     H
H       0.1256   0.3651   0.4629     H
H       0.1265   0.0049   0.5907     H
H       0.1265   0.4951   0.9093     H
O       0.1373   0.7184   0.8302     O
O       0.1373   0.7816   0.6698     O
C       0.1413   0.0601   0.4699     C
C       0.1413   0.4399   0.0301     C
C       0.1451    0.669   0.0726     C
C       0.1451    0.831   0.4274     C
O       0.1483   0.1403   0.3069     O
O       0.1483   0.3597   0.1931     O
O       0.1484   0.1956   0.1519     O
O       0.1484   0.3044   0.3481     O
H       0.1812   0.1144   0.9254     H
H       0.1812   0.3856   0.5746     H
C       0.1833   0.0997   0.4159     C
C       0.1833   0.4003   0.0841     C
H       0.1939   0.0593    0.508     H
H       0.1939   0.4407    0.992     H
C       0.2046   0.1529   0.0197     C
C       0.2046   0.3471   0.4803     C
C       0.2075   0.6923   0.9406     C
C       0.2075   0.8077   0.5594     C
C       0.2356   0.7028   0.8672     C
C       0.2356   0.7972   0.6328     C
C        0.238   0.1412    0.953     C
C        0.238   0.3588    0.547     C
H       0.2383   0.6267   0.5823     H
H       0.2383   0.8733   0.9177     H
H       0.2617   0.1267   0.4177     H
H       0.2617   0.3733   0.0823     H
C        0.262   0.6412    0.047     C
C        0.262   0.8588    0.453     C
C       0.2644   0.2028   0.1328     C
C       0.2644   0.2972   0.3672     C
C       0.2925   0.1923   0.0594     C
C       0.2925   0.3077   0.4406     C
C       0.2954   0.6529   0.9803     C
C       0.2954   0.8471   0.5197     C
H       0.3061   0.5593    0.492     H
H       0.3061   0.9407    0.008     H
C       0.3167   0.5997   0.5841     C
C       0.3167   0.9003   0.9159     C
H       0.3188   0.6144   0.0746     H
H       0.3188   0.8856   0.4254     H
O       0.3516   0.6956   0.8481     O
O       0.3516   0.8044   0.6519     O
O       0.3517   0.6403   0.6931     O
O       0.3517   0.8597   0.8069     O
C       0.3549    0.169   0.9274     C
C       0.3549    0.331   0.5726     C
C       0.3587   0.5601   0.5301     C
C       0.3587   0.9399   0.9699     C
O       0.3627   0.2184   0.1698     O
O       0.3627   0.2816   0.3302     O
H       0.3735   0.5049   0.4093     H
H       0.3735   0.9951   0.0907     H
H       0.3744   0.6349   0.9629     H
H       0.3744   0.8651   0.5371     H
H       0.3753   0.1608   0.8827     H
H       0.3753   0.3392   0.6173     H
N       0.3902   0.5994   0.6403     N
N       0.3902   0.9006   0.8597     N
C        0.412   0.2198    0.032     C
C        0.412   0.2802    0.468     C
C        0.439   0.2074   0.9655     C
C        0.439   0.2926   0.5345     C
H       0.4502   0.0598   0.1834     H
H       0.4502   0.4402   0.3166     H
C       0.4526   0.0214   0.0882     C
C       0.4526   0.4786   0.4118     C
La     0.46939     0.75     0.75    La
H       0.4714   0.2461   0.0586     H
H       0.4714   0.2539   0.4414     H
C       0.4759   0.5211   0.5293     C
C       0.4759   0.9789   0.9707     C
H       0.4833   0.7258    0.447     H
H       0.4833   0.7742    0.053     H
C       0.4981   0.0607   0.1438     C
C       0.4981   0.4393   0.3562     C
C       0.5019   0.5607   0.6438     C
C       0.5019   0.9393   0.8562     C
H       0.5167   0.2258    0.947     H
H       0.5167   0.2742    0.553     H
C       0.5241   0.0211   0.0293     C
C       0.5241   0.4789   0.4707     C
H       0.5286   0.7461   0.5586     H
H       0.5286   0.7539   0.9414     H
La     0.53061     0.25     0.25    La
C       0.5474   0.5214   0.5882     C
C       0.5474   0.9786   0.9118     C
H       0.5498   0.5598   0.6834     H
H       0.5498   0.9402   0.8166     H
C        0.561   0.7074   0.4655     C
C        0.561   0.7926   0.0345     C
C        0.588   0.7198    0.532     C
C        0.588   0.7802    0.968     C
N       0.6098   0.0994   0.1403     N
N       0.6098   0.4006   0.3597     N
H       0.6247   0.6608   0.3827     H
H       0.6247   0.8392   0.1173     H
H       0.6256   0.1349   0.4629     H
H       0.6256   0.3651   0.0371     H
H       0.6265   0.0049   0.9093     H
H       0.6265   0.4951   0.5907     H
O       0.6373   0.7184   0.6698     O
O       0.6373   0.7816   0.8302     O
C       0.6413   0.0601   0.0301     C
C       0.6413   0.4399   0.4699     C
C       0.6451    0.669   0.4274     C
C       0.6451    0.831   0.0726     C
O       0.6483   0.1403   0.1931     O
O       0.6483   0.3597   0.3069     O
O       0.6484   0.1956   0.3481     O
O       0.6484   0.3044   0.1519     O
H       0.6812   0.1144   0.5746     H
H       0.6812   0.3856   0.9254     H
C       0.6833   0.0997   0.0841     C
C       0.6833   0.4003   0.4159     C
H       0.6939   0.0593    0.992     H
H       0.6939   0.4407    0.508     H
C       0.7046   0.1529   0.4803     C
C       0.7046   0.3471   0.0197     C
C       0.7075   0.6923   0.5594     C
C       0.7075   0.8077   0.9406     C
C       0.7356   0.7028   0.6328     C
C       0.7356   0.7972   0.8672     C
C        0.738   0.1412    0.547     C
C        0.738   0.3588    0.953     C
H       0.7383   0.6267   0.9177     H
H       0.7383   0.8733   0.5823     H
H       0.7617   0.1267   0.0823     H
H       0.7617   0.3733   0.4177     H
C        0.762   0.6412    0.453     C
C        0.762   0.8588    0.047     C
C       0.7644   0.2028   0.3672     C
C       0.7644   0.2972   0.1328     C
C       0.7925   0.1923   0.4406     C
C       0.7925   0.3077   0.0594     C
C       0.7954   0.6529   0.5197     C
C       0.7954   0.8471   0.9803     C
H       0.8061   0.5593    0.008     H
H       0.8061   0.9407    0.492     H
C       0.8167   0.5997   0.9159     C
C       0.8167   0.9003   0.5841     C
H       0.8188   0.6144   0.4254     H
H       0.8188   0.8856   0.0746     H
O       0.8516   0.6956   0.6519     O
O       0.8516   0.8044   0.8481     O
O       0.8517   0.6403   0.8069     O
O       0.8517   0.8597   0.6931     O
C       0.8549    0.169   0.5726     C
C       0.8549    0.331   0.9274     C
C       0.8587   0.5601   0.9699     C
C       0.8587   0.9399   0.5301     C
O       0.8627   0.2184   0.3302     O
O       0.8627   0.2816   0.1698     O
H       0.8735   0.5049   0.0907     H
H       0.8735   0.9951   0.4093     H
H       0.8744   0.6349   0.5371     H
H       0.8744   0.8651   0.9629     H
H       0.8753   0.1608   0.6173     H
H       0.8753   0.3392   0.8827     H
N       0.8902   0.5994   0.8597     N
N       0.8902   0.9006   0.6403     N
C        0.912   0.2198    0.468     C
C        0.912   0.2802    0.032     C
C        0.939   0.2074   0.5345     C
C        0.939   0.2926   0.9655     C
H       0.9502   0.0598   0.3166     H
H       0.9502   0.4402   0.1834     H
C       0.9526   0.0214   0.4118     C
C       0.9526   0.4786   0.0882     C
La     0.96939     0.75     0.75    La
H       0.9714   0.2461   0.4414     H
H       0.9714   0.2539   0.0586     H
C       0.9759   0.5211   0.9707     C
C       0.9759   0.9789   0.5293     C
H       0.9833   0.7258    0.053     H
H       0.9833   0.7742    0.447     H
C       0.9981   0.0607   0.3562     C
C       0.9981   0.4393   0.1438     C
