data_I
_chemical_name_common  '/home/zhangsd/repos/MofS-CGCNN/ML/data/SSD/clean_cifs/OTAXOX_clean'
_cell_length_a  9.96380
_cell_length_b 18.08200
_cell_length_c 18.45000
_cell_angle_alpha 90.00000
_cell_angle_beta  90.00000
_cell_angle_gamma 90.00000
_space_group_name_H-M_alt      'P 1'


loop_
_space_group_symop_operation_xyz
  'x, y, z' 

loop_
_atom_site_label
_atom_site_fract_x
_atom_site_fract_y
_atom_site_fract_z
_atom_site_type_symbol
Mg         0.0      0.0      0.5    Mg
Mg         0.0     0.25  0.68441    Mg
Mg         0.0      0.5      0.5    Mg
Mg         0.0     0.75  0.31559    Mg
O       0.0015   0.4149  0.42807     O
O       0.0015   0.9149  0.57193     O
O       0.0138  0.45312  0.31404     O
O       0.0138  0.95312  0.68596     O
C       0.0194   0.4041   0.3631     C
C       0.0194   0.9041   0.6369     C
O       0.0286  0.07916  0.58382     O
O       0.0286  0.57916  0.41618     O
H       0.0385    0.356   0.3486     H
H       0.0385    0.856   0.6514     H
O       0.0544   0.0272  0.15762     O
O       0.0544   0.5272  0.84238     O
Mg     0.07509  0.44144  0.67847    Mg
Mg     0.07509  0.94144  0.32153    Mg
O       0.0824  0.07585  0.75137     O
O       0.0824  0.57585  0.24863     O
C       0.0998   0.1361   0.5708     C
C       0.0998   0.6361   0.4292     C
O       0.1038   0.1927  0.60773     O
O       0.1038   0.6927  0.39227     O
O       0.1042   0.1973  0.76458     O
O       0.1042   0.6973  0.23542     O
Mg     0.11579  0.46482  0.21717    Mg
Mg     0.11579  0.96482  0.78283    Mg
H       0.1283    0.493   0.0523     H
H       0.1283    0.993   0.9477     H
C        0.132    0.133   0.7792     C
C        0.132    0.633   0.2208     C
O       0.1322   0.3551      0.2     O
O       0.1322   0.8551      0.8     O
O       0.1505  0.33369  0.68343     O
O       0.1505  0.83369  0.31657     O
H       0.1537   0.1348   0.5297     H
H       0.1537   0.6348   0.4703     H
C       0.1657   0.0011   0.1733     C
C       0.1657   0.5011   0.8267     C
O       0.1964  0.47043  0.76727     O
O       0.1964  0.97043  0.23273     O
H       0.1968   0.1258   0.8148     H
H       0.1968   0.6258   0.1852     H
O       0.2039   0.4911  0.51247     O
O       0.2039   0.9911  0.48753     O
H       0.2096   0.2646   0.1826     H
H       0.2096   0.7646   0.8174     H
C       0.2191   0.4883   0.0632     C
C       0.2191   0.9883   0.9368     C
C       0.2281   0.3147   0.1884     C
C       0.2281   0.8147   0.8116     C
H       0.2327   0.0044   0.1383     H
H       0.2327   0.5044   0.8617     H
O       0.2482  0.47962  0.12846     O
O       0.2482  0.97962  0.87154     O
O       0.2518  0.47962  0.62846     O
O       0.2518  0.97962  0.37154     O
H       0.2673   0.0044   0.6383     H
H       0.2673   0.5044   0.3617     H
C       0.2719   0.3147   0.6884     C
C       0.2719   0.8147   0.3116     C
C       0.2809   0.4883   0.5632     C
C       0.2809   0.9883   0.4368     C
H       0.2904   0.2646   0.6826     H
H       0.2904   0.7646   0.3174     H
O       0.2961   0.4911  0.01247     O
O       0.2961   0.9911  0.98753     O
H       0.3032   0.1258   0.3148     H
H       0.3032   0.6258   0.6852     H
O       0.3036  0.47043  0.26727     O
O       0.3036  0.97043  0.73273     O
C       0.3343   0.0011   0.6733     C
C       0.3343   0.5011   0.3267     C
H       0.3463   0.1348   0.0297     H
H       0.3463   0.6348   0.9703     H
O       0.3495  0.33369  0.18343     O
O       0.3495  0.83369  0.81657     O
O       0.3678   0.3551      0.7     O
O       0.3678   0.8551      0.3     O
C        0.368    0.133   0.2792     C
C        0.368    0.633   0.7208     C
H       0.3717    0.493   0.5523     H
H       0.3717    0.993   0.4477     H
Mg     0.38421  0.46482  0.71717    Mg
Mg     0.38421  0.96482  0.28283    Mg
O       0.3958   0.1973  0.26458     O
O       0.3958   0.6973  0.73542     O
O       0.3962   0.1927  0.10773     O
O       0.3962   0.6927  0.89227     O
C       0.4002   0.1361   0.0708     C
C       0.4002   0.6361   0.9292     C
O       0.4176  0.07585  0.25137     O
O       0.4176  0.57585  0.74863     O
Mg     0.42491  0.44144  0.17847    Mg
Mg     0.42491  0.94144  0.82153    Mg
O       0.4456   0.0272  0.65762     O
O       0.4456   0.5272  0.34238     O
H       0.4615    0.356   0.8486     H
H       0.4615    0.856   0.1514     H
O       0.4714  0.07916  0.08382     O
O       0.4714  0.57916  0.91618     O
C       0.4806   0.4041   0.8631     C
C       0.4806   0.9041   0.1369     C
O       0.4862  0.45312  0.81404     O
O       0.4862  0.95312  0.18596     O
O       0.4985   0.4149  0.92807     O
O       0.4985   0.9149  0.07193     O
Mg         0.5      0.0      0.0    Mg
Mg         0.5     0.25  0.18441    Mg
Mg         0.5      0.5      0.0    Mg
Mg         0.5     0.75  0.81559    Mg
O       0.5015   0.0851  0.92807     O
O       0.5015   0.5851  0.07193     O
O       0.5138  0.04688  0.81404     O
O       0.5138  0.54688  0.18596     O
C       0.5194   0.0959   0.8631     C
C       0.5194   0.5959   0.1369     C
O       0.5286  0.42084  0.08382     O
O       0.5286  0.92084  0.91618     O
H       0.5385    0.144   0.8486     H
H       0.5385    0.644   0.1514     H
O       0.5544   0.4728  0.65762     O
O       0.5544   0.9728  0.34238     O
Mg     0.57509  0.05856  0.17847    Mg
Mg     0.57509  0.55856  0.82153    Mg
O       0.5824  0.42415  0.25137     O
O       0.5824  0.92415  0.74863     O
C       0.5998   0.3639   0.0708     C
C       0.5998   0.8639   0.9292     C
O       0.6038   0.3073  0.10773     O
O       0.6038   0.8073  0.89227     O
O       0.6042   0.3027  0.26458     O
O       0.6042   0.8027  0.73542     O
Mg     0.61579  0.03518  0.71717    Mg
Mg     0.61579  0.53518  0.28283    Mg
H       0.6283    0.007   0.5523     H
H       0.6283    0.507   0.4477     H
C        0.632    0.367   0.2792     C
C        0.632    0.867   0.7208     C
O       0.6322   0.1449      0.7     O
O       0.6322   0.6449      0.3     O
O       0.6505  0.16631  0.18343     O
O       0.6505  0.66631  0.81657     O
H       0.6537   0.3652   0.0297     H
H       0.6537   0.8652   0.9703     H
C       0.6657   0.4989   0.6733     C
C       0.6657   0.9989   0.3267     C
O       0.6964  0.02957  0.26727     O
O       0.6964  0.52957  0.73273     O
H       0.6968   0.3742   0.3148     H
H       0.6968   0.8742   0.6852     H
O       0.7039   0.0089  0.01247     O
O       0.7039   0.5089  0.98753     O
H       0.7096   0.2354   0.6826     H
H       0.7096   0.7354   0.3174     H
C       0.7191   0.0117   0.5632     C
C       0.7191   0.5117   0.4368     C
C       0.7281   0.1853   0.6884     C
C       0.7281   0.6853   0.3116     C
H       0.7327   0.4956   0.6383     H
H       0.7327   0.9956   0.3617     H
O       0.7482  0.02038  0.62846     O
O       0.7482  0.52038  0.37154     O
O       0.7518  0.02038  0.12846     O
O       0.7518  0.52038  0.87154     O
H       0.7673   0.4956   0.1383     H
H       0.7673   0.9956   0.8617     H
C       0.7719   0.1853   0.1884     C
C       0.7719   0.6853   0.8116     C
C       0.7809   0.0117   0.0632     C
C       0.7809   0.5117   0.9368     C
H       0.7904   0.2354   0.1826     H
H       0.7904   0.7354   0.8174     H
O       0.7961   0.0089  0.51247     O
O       0.7961   0.5089  0.48753     O
H       0.8032   0.3742   0.8148     H
H       0.8032   0.8742   0.1852     H
O       0.8036  0.02957  0.76727     O
O       0.8036  0.52957  0.23273     O
C       0.8343   0.4989   0.1733     C
C       0.8343   0.9989   0.8267     C
H       0.8463   0.3652   0.5297     H
H       0.8463   0.8652   0.4703     H
O       0.8495  0.16631  0.68343     O
O       0.8495  0.66631  0.31657     O
O       0.8678   0.1449      0.2     O
O       0.8678   0.6449      0.8     O
C        0.868    0.367   0.7792     C
C        0.868    0.867   0.2208     C
H       0.8717    0.007   0.0523     H
H       0.8717    0.507   0.9477     H
Mg     0.88421  0.03518  0.21717    Mg
Mg     0.88421  0.53518  0.78283    Mg
O       0.8958   0.3027  0.76458     O
O       0.8958   0.8027  0.23542     O
O       0.8962   0.3073  0.60773     O
O       0.8962   0.8073  0.39227     O
C       0.9002   0.3639   0.5708     C
C       0.9002   0.8639   0.4292     C
O       0.9176  0.42415  0.75137     O
O       0.9176  0.92415  0.24863     O
Mg     0.92491  0.05856  0.67847    Mg
Mg     0.92491  0.55856  0.32153    Mg
O       0.9456   0.4728  0.15762     O
O       0.9456   0.9728  0.84238     O
H       0.9615    0.144   0.3486     H
H       0.9615    0.644   0.6514     H
O       0.9714  0.42084  0.58382     O
O       0.9714  0.92084  0.41618     O
C       0.9806   0.0959   0.3631     C
C       0.9806   0.5959   0.6369     C
O       0.9862  0.04688  0.31404     O
O       0.9862  0.54688  0.68596     O
O       0.9985   0.0851  0.42807     O
O       0.9985   0.5851  0.57193     O
