data_I
_chemical_name_common  '/home/zhangsd/repos/MofS-CGCNN/ML/data/SSD/clean_cifs/OVIWIA_clean'
_cell_length_a  9.35680
_cell_length_b  9.50260
_cell_length_c 12.12820
_cell_angle_alpha 90.00000
_cell_angle_beta  103.91200
_cell_angle_gamma 90.00000
_space_group_name_H-M_alt      'P 1'


loop_
_space_group_symop_operation_xyz
  'x, y, z' 

loop_
_atom_site_label
_atom_site_fract_x
_atom_site_fract_y
_atom_site_fract_z
_atom_site_type_symbol
Co         0.0      0.0      0.0    Co
O       0.0747   0.3046   0.4347     O
P      0.09105  0.68253  0.61585     P
O       0.1235    0.684   0.7443     O
O       0.1293   0.8416   0.9456     O
H       0.1475     0.84   0.4861     H
O       0.1533   0.9718   0.7257     O
O       0.1541   0.5527   0.5696     O
C        0.168   0.9699    0.624     C
O       0.1736   0.0791   0.5663     O
C       0.1846     0.83   0.5693     C
H       0.2091   0.3074   0.9156     H
U      0.21744  0.32214  0.61977     U
U      0.28256  0.82214  0.88023     U
H       0.2909   0.8074   0.5844     H
C       0.3154     0.33   0.9307     C
O       0.3264   0.5791   0.9337     O
C        0.332   0.4699    0.876     C
O       0.3459   0.0527   0.9304     O
O       0.3467   0.4718   0.7743     O
H       0.3525     0.34   0.0139     H
O       0.3707   0.3416   0.5544     O
O       0.3765    0.184   0.7557     O
P      0.40895  0.18253  0.88415     P
O       0.4253   0.8046   0.0653     O
Co         0.5      0.5      0.5    Co
O       0.5747   0.1954   0.9347     O
P      0.59105  0.81747  0.11585     P
O       0.6235    0.816   0.2443     O
O       0.6293   0.6584   0.4456     O
H       0.6475     0.66   0.9861     H
O       0.6533   0.5282   0.2257     O
O       0.6541   0.9473   0.0696     O
C        0.668   0.5301    0.124     C
O       0.6736   0.4209   0.0663     O
C       0.6846     0.67   0.0693     C
H       0.7091   0.1926   0.4156     H
U      0.71744  0.17786  0.11977     U
U      0.78256  0.67786  0.38023     U
H       0.7909   0.6926   0.0844     H
C       0.8154     0.17   0.4307     C
O       0.8264   0.9209   0.4337     O
C        0.832   0.0301    0.376     C
O       0.8459   0.4473   0.4304     O
O       0.8467   0.0282   0.2743     O
H       0.8525     0.16   0.5139     H
O       0.8707   0.1584   0.0544     O
O       0.8765    0.316   0.2557     O
P      0.90895  0.31747  0.38415     P
O       0.9253   0.6954   0.5653     O
