data_I
_chemical_name_common  '/home/zhangsd/repos/MofS-CGCNN/ML/data/SSD/clean_cifs/OWETIU_clean'
_cell_length_a 15.61600
_cell_length_b 17.36500
_cell_length_c 19.96200
_cell_angle_alpha 75.81300
_cell_angle_beta  89.46800
_cell_angle_gamma 76.03600
_space_group_name_H-M_alt      'P 1'


loop_
_space_group_symop_operation_xyz
  'x, y, z' 

loop_
_atom_site_label
_atom_site_fract_x
_atom_site_fract_y
_atom_site_fract_z
_atom_site_type_symbol
Ag         0.0      0.0      0.0    Ag
Ag         0.0      0.5     -0.0    Ag
N       0.0021   0.3756   0.0411     N
O       0.0088   0.6556   0.4385     O
O       0.0101   0.1538   0.7935     O
N       0.0125   0.7375   0.8856     N
O       0.0157   0.6992   0.2958     O
C       0.0189   0.2423   0.0562     C
C       0.0201   0.6557   0.8954     C
W      0.02076  0.25964  0.80029     W
O       0.0234   0.0461   0.7139     O
H         0.03   0.1906   0.0476     H
C       0.0311   0.3118   0.0128     C
C       0.0315   0.7975   0.8218     C
Ag     0.03408  0.42813  0.46368    Ag
H       0.0381   0.6261   0.8625     H
H       0.0432   0.1046   0.2581     H
O       0.0502   0.1856   0.6337     O
W      0.05291  0.03943  0.80661     W
H       0.0557   0.3148   0.9699     H
C       0.0593   0.1444   0.2201     C
W      0.06321  0.29015  0.63144     W
O       0.0644   0.3538    0.798     O
H       0.0658   0.8314   0.8353     H
H       0.0663   0.7675   0.7917     H
H       0.0796   0.2274   0.2607     H
H       0.0842   0.5549   0.3214     H
H       0.0922   0.1141   0.1892     H
W       0.0982  0.07014  0.63805     W
O       0.1006   0.2007   0.8782     O
O       0.1026   0.3825   0.6462     O
O       0.1104   0.4883   0.7249     O
C       0.1148   0.1806   0.2463     C
N       0.1184    0.901   0.0245     N
O       0.1254   0.0456   0.8824     O
W      0.13229  0.42361  0.81769     W
H       0.1332   0.8579    0.131     H
C       0.1355   0.5152   0.3398     C
O       0.1387   0.9364   0.8077     O
N       0.1425   0.4615   0.4005     N
H       0.1464    0.142   0.2873     H
O       0.1481   0.2226   0.7341     O
H       0.1497    0.882   0.9328     H
H       0.1518   0.2463   0.1546     H
H       0.1644   0.6917    0.994     H
C       0.1649    0.872   0.0889     C
C       0.1656   0.8713   0.9795     C
O        0.172    0.262   0.5895     O
W      0.17259  0.45522  0.64874     W
O       0.1732   0.9631   0.6745     O
O       0.1734   0.0729   0.7421     O
W      0.18261  0.10465  0.92643     W
C       0.1828   0.2098   0.1967     C
O       0.1897   0.3347    0.894     O
O       0.1945   0.1077   0.5939     O
H        0.201   0.1391   0.0914     H
H       0.2062   0.6287   0.9498     H
C        0.209   0.5055   0.3096     C
H       0.2135   0.2408   0.2179     H
H       0.2161   0.5334   0.2647     H
P       0.2179   0.1414  0.74913     P
C        0.219   0.6619   0.9792     C
C       0.2198   0.4169   0.4102     C
O       0.2251   0.4719   0.8288     O
O       0.2381   0.3572   0.7508     O
H        0.239   0.3716   0.4474     H
H       0.2407   0.7554   0.9037     H
C       0.2412     0.82   0.0791     C
N       0.2435   0.8213   0.0118     N
W      0.24373  0.93169  0.75925     W
C       0.2456   0.1168   0.1262     C
N       0.2484   0.1426   0.1784     N
O       0.2523   0.1757   0.9452     O
O       0.2568    0.118   0.8229     O
O       0.2617   0.3949   0.6039     O
O       0.2637   0.5064   0.6691     O
H        0.266   0.7692   0.1144     H
W      0.27046   0.1806  0.57453     W
Ag       0.272  0.94895  0.08682    Ag
C       0.2759    0.719   0.9441     C
N       0.2768   0.4461   0.3542     N
O       0.2842   0.0157   0.9438     O
C       0.2844   0.6094   0.0422     C
O       0.2883   0.1433   0.6961     O
H       0.2898   0.6398   0.0761     H
W      0.29034  0.26991   0.9469     W
O       0.3039   0.9459   0.8363     O
N       0.3171   0.0499   0.1252     N
C       0.3172   0.7745   0.9774     C
C        0.324   0.0926   0.2195     C
H        0.325   0.6847   0.9265     H
O       0.3325   0.9735    0.706     O
P       0.3333   0.3153  0.76931     P
O       0.3384   0.3655   0.9201     O
H       0.3402   0.3237   0.3016     H
H       0.3411   0.8119   0.9424     H
H       0.3424   0.5857   0.0281     H
H       0.3433   0.0976   0.2618     H
O        0.345   0.2522   0.5843     O
W      0.34517  0.46401  0.85765     W
O       0.3456   0.2518   0.8394     O
O       0.3531   0.5384   0.7696     O
H        0.362   0.3994   0.2501     H
C       0.3621    0.037   0.1859     C
H       0.3643   0.7416   0.0112     H
C       0.3652   0.4056   0.3483     C
O       0.3717   0.0878   0.5982     O
W      0.37332   0.0029  0.87536     W
O       0.3768   0.2774    0.713     O
C       0.3791   0.3606   0.2946     C
W      0.38137  0.34339  0.59424     W
O       0.3817   0.3843   0.7763     O
W      0.38287   0.5029  0.68695     W
H       0.3872   0.3675   0.3924     H
H       0.4002   0.4458    0.339     H
Ag     0.40365  0.06047  0.03256    Ag
O       0.4096   0.2017   0.9655     O
O       0.4114   0.4276   0.6316     O
H       0.4126   0.9952    0.202     H
W      0.41588   0.0394  0.69066     W
O       0.4198   0.0834   0.9012     O
O       0.4236    0.026   0.7887     O
H       0.4405   0.7607   0.7473     H
O       0.4529   0.7068   0.2575     O
H        0.465   0.2246   0.2504     H
W      0.46634  0.63641  0.19691     W
O       0.4713   0.1276   0.6849     O
H       0.4715    0.314   0.0182     H
O       0.4716   0.4291   0.8621     O
H        0.472   0.2182   0.1302     H
C       0.4726    0.311   0.2919     C
W      0.47567  0.79714  0.28863     W
C       0.4757   0.3253    0.061     C
C       0.4768    0.272   0.1233     C
W      0.48108  0.16958   0.8949     W
N       0.4815   0.3943   0.0712     N
O       0.4823    0.732   0.1278     O
N       0.4857   0.3089    0.173     N
H       0.4878   0.2727   0.3369     H
H       0.4897   0.6512   0.7124     H
C       0.4908   0.3737   0.1426     C
O       0.4935    0.844   0.1947     O
O       0.4968   0.5421   0.2716     O
C       0.4974   0.2669   0.2433     C
O        0.498   0.2738   0.6217     O
H       0.4991   0.5889   0.8341     H
Ag         0.5      0.5     -0.0    Ag
H       0.5009   0.4111   0.1659     H
O        0.502   0.7262   0.3783     O
C       0.5026   0.7331   0.7567     C
O       0.5032   0.4579   0.7284     O
O       0.5065    0.156   0.8053     O
C       0.5092   0.6263   0.8574     C
H       0.5103   0.3488   0.2876     H
H       0.5122   0.7273   0.6631     H
N       0.5143   0.6911    0.827     N
O       0.5177    0.268   0.8722     O
N       0.5185   0.6057   0.9288     N
W      0.51892  0.83042   0.1051     W
C       0.5232    0.728   0.8767     C
C       0.5243   0.6747    0.939     C
W      0.52433  0.20286  0.71137     W
C       0.5274    0.689   0.7081     C
H        0.528   0.7818   0.8698     H
O       0.5284   0.5709   0.1379     O
H       0.5285    0.686   0.9818     H
O       0.5287   0.8724   0.3151     O
W      0.53366  0.36359  0.80309     W
H        0.535   0.7754   0.7496     H
O       0.5471   0.2932   0.7425     O
H       0.5595   0.2393   0.2527     H
O       0.5764    0.974   0.2113     O
O       0.5802   0.9166   0.0988     O
W      0.58412   0.9606  0.30934     W
H       0.5874   0.0048    0.798     H
O       0.5886   0.5724   0.3684     O
O       0.5904   0.7983   0.0345     O
Ag     0.59635  0.93953  0.96744    Ag
H       0.5998   0.5542    0.661     H
H       0.6128   0.6325   0.6076     H
W      0.61713   0.4971  0.31305     W
O       0.6183   0.6157   0.2237     O
W      0.61863  0.65661  0.40576     W
C       0.6209   0.6394   0.7054     C
O       0.6232   0.7226    0.287     O
W      0.62668   0.9971  0.12464     W
O       0.6283   0.9122   0.4018     O
C       0.6348   0.5944   0.6517     C
H       0.6357   0.2584   0.9888     H
C       0.6379    0.963   0.8141     C
H        0.638   0.6006   0.7499     H
O       0.6469   0.4616   0.2304     O
O       0.6544   0.7482   0.1606     O
W      0.65483  0.53599  0.14235     W
O        0.655   0.7478   0.4157     O
H       0.6567   0.9024   0.7382     H
H       0.6576   0.4143   0.9719     H
H       0.6589   0.1881   0.0576     H
H       0.6598   0.6763   0.6984     H
O       0.6616   0.6345   0.0799     O
P       0.6667   0.6847  0.23069     P
O       0.6675   0.0265    0.294     O
H        0.675   0.3153   0.0735     H
C        0.676   0.9074   0.7805     C
C       0.6828   0.2255   0.0226     C
N       0.6829   0.9501   0.8748     N
O       0.6961   0.0541   0.1637     O
W      0.70966  0.73009   0.0531     W
H       0.7102   0.3602   0.9239     H
O       0.7117   0.8567   0.3039     O
C       0.7156   0.3906   0.9578     C
O       0.7158   0.9843   0.0562     O
N       0.7232   0.5539   0.6458     N
C       0.7241    0.281   0.0559     C
Ag       0.728  0.05105  0.91318    Ag
W      0.72954   0.8194  0.42547     W
H        0.734   0.2308   0.8856     H
O       0.7363   0.4936   0.3309     O
O       0.7383   0.6051   0.3961     O
O       0.7432    0.882   0.1771     O
O       0.7477   0.8243   0.0548     O
N       0.7516   0.8574   0.8216     N
C       0.7544   0.8832   0.8738     C
W      0.75627  0.06831  0.24075     W
N       0.7565   0.1787   0.9882     N
C       0.7588     0.18   0.9209     C
H       0.7593   0.2446   0.0963     H
H        0.761   0.6284   0.5526     H
O       0.7619   0.6428   0.2492     O
O       0.7749   0.5281   0.1712     O
C       0.7802   0.5831   0.5898     C
C        0.781   0.3381   0.0208     C
P       0.7821   0.8586  0.25087     P
H       0.7839   0.4666   0.7353     H
H       0.7865   0.7592   0.7821     H
C        0.791   0.4945   0.6904     C
H       0.7938   0.3713   0.0502     H
H        0.799   0.8609   0.9086     H
O       0.8055   0.8923   0.4061     O
O       0.8103   0.6653    0.106     O
C       0.8172   0.7902   0.8033     C
W      0.81739  0.89535  0.07357     W
O       0.8266   0.9271   0.2579     O
O       0.8268   0.0369   0.3255     O
W      0.82741  0.54478  0.35126     W
O        0.828    0.738   0.4105     O
C       0.8344   0.1287   0.0205     C
C       0.8351    0.128   0.9111     C
H       0.8356   0.3083    0.006     H
H       0.8482   0.7537   0.8454     H
H       0.8503    0.118   0.0672     H
O       0.8519   0.7774   0.2659     O
H       0.8536    0.858   0.7127     H
N       0.8575   0.5385   0.5995     N
O       0.8613   0.0636   0.1923     O
C       0.8645   0.4848   0.6602     C
H       0.8668   0.1421    0.869     H
W      0.86771  0.57639  0.18231     W
O       0.8746   0.9544   0.1176     O
N       0.8816    0.099   0.9755     N
C       0.8852   0.8194   0.7537     C
O       0.8896   0.5117   0.2751     O
O       0.8974   0.6175   0.3538     O
O       0.8994   0.7993   0.1218     O
W       0.9018  0.92986  0.36195     W
H       0.9078   0.8859   0.8108     H
H       0.9158   0.4451   0.6786     H
H       0.9204   0.7726   0.7393     H
H       0.9337   0.2325   0.2083     H
H       0.9342   0.1686   0.1647     H
O       0.9356   0.6462    0.202     O
W      0.93679  0.70985  0.36856     W
C       0.9407   0.8556   0.7799     C
H       0.9443   0.6852   0.0301     H
W      0.94709  0.96057  0.19339     W
O       0.9498   0.8144   0.3663     O
H       0.9568   0.8954   0.7419     H
H       0.9619   0.3739   0.1375     H
Ag     0.96592  0.57187  0.53632    Ag
C       0.9685   0.2025   0.1782     C
C       0.9689   0.6882   0.9872     C
H         0.97   0.8094   0.9524     H
O       0.9766   0.9539   0.2861     O
W      0.97924  0.74036  0.19971     W
C       0.9799   0.3443   0.1046     C
C       0.9811   0.7577   0.9438     C
O       0.9843   0.3008   0.7042     O
N       0.9875   0.2625   0.1144     N
O       0.9899   0.8462   0.2065     O
O       0.9912   0.3444   0.5615     O
N       0.9979   0.6244   0.9589     N
