data_I
_chemical_name_common  '/home/zhangsd/repos/MofS-CGCNN/ML/data/SSD/clean_cifs/OWEYOF_clean'
_cell_length_a 18.33080
_cell_length_b 22.56750
_cell_length_c 31.74350
_cell_angle_alpha 90.00000
_cell_angle_beta  90.00000
_cell_angle_gamma 90.00000
_space_group_name_H-M_alt      'P 1'


loop_
_space_group_symop_operation_xyz
  'x, y, z' 

loop_
_atom_site_label
_atom_site_fract_x
_atom_site_fract_y
_atom_site_fract_z
_atom_site_type_symbol
C       0.0006  0.30814  0.76169     C
C       0.0006  0.44186  0.98831     C
C       0.0006  0.80814  0.26169     C
C       0.0006  0.94186  0.48831     C
N       0.0113    0.125    0.125     N
N       0.0113    0.625    0.625     N
C       0.0184   0.3703  0.77262     C
C       0.0184   0.3797  0.97738     C
C       0.0184   0.8703  0.27262     C
C       0.0184   0.8797  0.47738     C
O      0.02045  0.09091  0.71425     O
O      0.02045  0.15909  0.53575     O
O      0.02045  0.59091  0.21425     O
O      0.02045  0.65909  0.03575     O
H       0.0307   0.3054   0.2053     H
H       0.0307   0.4446   0.5447     H
H       0.0307   0.8054   0.7053     H
H       0.0307   0.9446   0.0447     H
H       0.0373   0.0132   0.0971     H
H       0.0373   0.2368   0.1529     H
H       0.0373   0.5132   0.5971     H
H       0.0373   0.7368   0.6529     H
H       0.0442   0.0865   0.2051     H
H       0.0442   0.1635   0.0449     H
H       0.0442   0.5865   0.7051     H
H       0.0442   0.6635   0.5449     H
H       0.0464   0.0198   0.2588     H
H       0.0464   0.2302   0.9912     H
H       0.0464   0.5198   0.7588     H
H       0.0464   0.7302   0.4912     H
C       0.0494    0.375    0.375     C
C       0.0494    0.875    0.875     C
C       0.0636  0.28031  0.74757     C
C       0.0636  0.46969  0.00243     C
C       0.0636  0.78031  0.24757     C
C       0.0636  0.96969  0.50243     C
O      0.06438  0.31983  0.51254     O
O      0.06438  0.43017  0.23746     O
O      0.06438  0.81983  0.01254     O
O      0.06438  0.93017  0.73746     O
H       0.0647   0.3317   0.2795     H
H       0.0647   0.4183   0.4705     H
H       0.0647   0.8317   0.7795     H
H       0.0647   0.9183   0.9705     H
C       0.0657  0.02818  0.51468     C
C       0.0657  0.22182  0.73532     C
C       0.0657  0.52818  0.01468     C
C       0.0657  0.72182  0.23532     C
C       0.0671  0.27668  0.20597     C
C       0.0671  0.47332  0.54403     C
C       0.0671  0.77668  0.70597     C
C       0.0671  0.97332  0.04403     C
C       0.0714  0.01461   0.0755     C
C       0.0714  0.23539   0.1745     C
C       0.0714  0.51461   0.5755     C
C       0.0714  0.73539   0.6745     C
C       0.0801  0.05743  0.20497     C
C       0.0801  0.19257  0.04503     C
C       0.0801  0.55743  0.70497     C
C       0.0801  0.69257  0.54503     C
C       0.0812   0.0175  0.23755     C
C       0.0812   0.2325  0.01245     C
C       0.0812   0.5175  0.73755     C
C       0.0812   0.7325  0.51245     C
N       0.0926  0.37337  0.98591     N
N       0.0926  0.37663  0.76409     N
N       0.0926  0.87337  0.48591     N
N       0.0926  0.87663  0.26409     N
H       0.1082   0.0463   0.5242     H
H       0.1082   0.2037   0.7258     H
H       0.1082   0.5463   0.0242     H
H       0.1082   0.7037   0.2258     H
C       0.1149   0.3204  0.27394     C
C       0.1149   0.4296  0.47606     C
C       0.1149   0.8204  0.77394     C
C       0.1149   0.9296  0.97606     C
H       0.1158   0.3022   0.9507     H
H       0.1158   0.4478   0.7993     H
H       0.1158   0.8022   0.4507     H
H       0.1158   0.9478   0.2993     H
C       0.1164  0.27589   0.2387     C
C       0.1164  0.47411   0.5113     C
C       0.1164  0.77589   0.7387     C
C       0.1164  0.97411   0.0113     C
S      0.11668   0.3469  0.86694     S
S      0.11668   0.4031  0.88306     S
S      0.11668   0.8469  0.36694     S
S      0.11668   0.9031  0.38306     S
C       0.1226  0.32518  0.74856     C
C       0.1226  0.42482  0.00144     C
C       0.1226  0.82518  0.24856     C
C       0.1226  0.92482  0.50144     C
N      0.12271  0.05694  0.07653     N
N      0.12271  0.19306  0.17347     N
N      0.12271  0.55694  0.57653     N
N      0.12271  0.69306  0.67347     N
Co       0.125    0.125    0.125    Co
Co       0.125    0.625    0.625    Co
N      0.12729  0.05694  0.17347     N
N      0.12729  0.19306  0.07653     N
N      0.12729  0.55694  0.67347     N
N      0.12729  0.69306  0.57653     N
C       0.1274  0.32518  0.50144     C
C       0.1274  0.42482  0.24856     C
C       0.1274  0.82518  0.00144     C
C       0.1274  0.92482  0.74856     C
S      0.13332   0.3469  0.38306     S
S      0.13332   0.4031  0.36694     S
S      0.13332   0.8469  0.88306     S
S      0.13332   0.9031  0.86694     S
C       0.1336  0.27589   0.0113     C
C       0.1336  0.47411   0.7387     C
C       0.1336  0.77589   0.5113     C
C       0.1336  0.97411   0.2387     C
H       0.1342   0.3022   0.2993     H
H       0.1342   0.4478   0.4507     H
H       0.1342   0.8022   0.7993     H
H       0.1342   0.9478   0.9507     H
C       0.1351   0.3204  0.97606     C
C       0.1351   0.4296  0.77394     C
C       0.1351   0.8204  0.47606     C
C       0.1351   0.9296  0.27394     C
H       0.1418   0.0463   0.7258     H
H       0.1418   0.2037   0.5242     H
H       0.1418   0.5463   0.2258     H
H       0.1418   0.7037   0.0242     H
N       0.1574  0.37337  0.26409     N
N       0.1574  0.37663  0.48591     N
N       0.1574  0.87337  0.76409     N
N       0.1574  0.87663  0.98591     N
C       0.1688   0.0175  0.01245     C
C       0.1688   0.2325  0.23755     C
C       0.1688   0.5175  0.51245     C
C       0.1688   0.7325  0.73755     C
C       0.1699  0.05743  0.04503     C
C       0.1699  0.19257  0.20497     C
C       0.1699  0.55743  0.54503     C
C       0.1699  0.69257  0.70497     C
C       0.1786  0.01461   0.1745     C
C       0.1786  0.23539   0.0755     C
C       0.1786  0.51461   0.6745     C
C       0.1786  0.73539   0.5755     C
C       0.1829  0.27668  0.04403     C
C       0.1829  0.47332  0.70597     C
C       0.1829  0.77668  0.54403     C
C       0.1829  0.97332  0.20597     C
C       0.1843  0.02818  0.73532     C
C       0.1843  0.22182  0.51468     C
C       0.1843  0.52818  0.23532     C
C       0.1843  0.72182  0.01468     C
H       0.1853   0.3317   0.9705     H
H       0.1853   0.4183   0.7795     H
H       0.1853   0.8317   0.4705     H
H       0.1853   0.9183   0.2795     H
O      0.18562  0.31983  0.73746     O
O      0.18562  0.43017  0.01254     O
O      0.18562  0.81983  0.23746     O
O      0.18562  0.93017  0.51254     O
C       0.1864  0.28031  0.50243     C
C       0.1864  0.46969  0.24757     C
C       0.1864  0.78031  0.00243     C
C       0.1864  0.96969  0.74757     C
C       0.2006    0.375    0.875     C
C       0.2006    0.875    0.375     C
H       0.2036   0.0198   0.9912     H
H       0.2036   0.2302   0.2588     H
H       0.2036   0.5198   0.4912     H
H       0.2036   0.7302   0.7588     H
H       0.2058   0.0865   0.0449     H
H       0.2058   0.1635   0.2051     H
H       0.2058   0.5865   0.5449     H
H       0.2058   0.6635   0.7051     H
H       0.2127   0.0132   0.1529     H
H       0.2127   0.2368   0.0971     H
H       0.2127   0.5132   0.6529     H
H       0.2127   0.7368   0.5971     H
H       0.2193   0.3054   0.0447     H
H       0.2193   0.4446   0.7053     H
H       0.2193   0.8054   0.5447     H
H       0.2193   0.9446   0.2053     H
O      0.22955  0.09091  0.53575     O
O      0.22955  0.15909  0.71425     O
O      0.22955  0.59091  0.03575     O
O      0.22955  0.65909  0.21425     O
C       0.2316   0.3703  0.47738     C
C       0.2316   0.3797  0.27262     C
C       0.2316   0.8703  0.97738     C
C       0.2316   0.8797  0.77262     C
N       0.2387    0.125    0.125     N
N       0.2387    0.625    0.625     N
C       0.2494  0.30814  0.48831     C
C       0.2494  0.44186  0.26169     C
C       0.2494  0.80814  0.98831     C
C       0.2494  0.94186  0.76169     C
C       0.2506  0.05814  0.73831     C
C       0.2506  0.19186  0.51169     C
C       0.2506  0.55814  0.23831     C
C       0.2506  0.69186  0.01169     C
N       0.2613    0.375    0.875     N
N       0.2613    0.875    0.375     N
C       0.2684   0.1203  0.72738     C
C       0.2684   0.1297  0.52262     C
C       0.2684   0.6203  0.22738     C
C       0.2684   0.6297  0.02262     C
O      0.27045  0.34091  0.28575     O
O      0.27045  0.40909  0.46425     O
O      0.27045  0.84091  0.78575     O
O      0.27045  0.90909  0.96425     O
H       0.2807   0.0554   0.2947     H
H       0.2807   0.1946   0.9553     H
H       0.2807   0.5554   0.7947     H
H       0.2807   0.6946   0.4553     H
H       0.2873   0.2632   0.9029     H
H       0.2873   0.4868   0.8471     H
H       0.2873   0.7632   0.4029     H
H       0.2873   0.9868   0.3471     H
H       0.2942   0.3365   0.7949     H
H       0.2942   0.4135   0.9551     H
H       0.2942   0.8365   0.2949     H
H       0.2942   0.9135   0.4551     H
H       0.2964   0.2698   0.7412     H
H       0.2964   0.4802   0.0088     H
H       0.2964   0.7698   0.2412     H
H       0.2964   0.9802   0.5088     H
C       0.2994    0.125    0.125     C
C       0.2994    0.625    0.625     C
C       0.3136  0.03031  0.75243     C
C       0.3136  0.21969  0.49757     C
C       0.3136  0.53031  0.25243     C
C       0.3136  0.71969  0.99757     C
O      0.31438  0.06983  0.98746     O
O      0.31438  0.18017  0.26254     O
O      0.31438  0.56983  0.48746     O
O      0.31438  0.68017  0.76254     O
H       0.3147   0.0817   0.2205     H
H       0.3147   0.1683   0.0295     H
H       0.3147   0.5817   0.7205     H
H       0.3147   0.6683   0.5295     H
C       0.3157  0.27818  0.48532     C
C       0.3157  0.47182  0.26468     C
C       0.3157  0.77818  0.98532     C
C       0.3157  0.97182  0.76468     C
C       0.3171  0.02668  0.29403     C
C       0.3171  0.22332  0.95597     C
C       0.3171  0.52668  0.79403     C
C       0.3171  0.72332  0.45597     C
C       0.3214  0.26461   0.9245     C
C       0.3214  0.48539   0.8255     C
C       0.3214  0.76461   0.4245     C
C       0.3214  0.98539   0.3255     C
C       0.3301  0.30743  0.79503     C
C       0.3301  0.44257  0.95497     C
C       0.3301  0.80743  0.29503     C
C       0.3301  0.94257  0.45497     C
C       0.3312   0.2675  0.76245     C
C       0.3312   0.4825  0.98755     C
C       0.3312   0.7675  0.26245     C
C       0.3312   0.9825  0.48755     C
N       0.3426  0.12337  0.51409     N
N       0.3426  0.12663  0.73591     N
N       0.3426  0.62337  0.01409     N
N       0.3426  0.62663  0.23591     N
H       0.3582   0.2963   0.4758     H
H       0.3582   0.4537   0.2742     H
H       0.3582   0.7963   0.9758     H
H       0.3582   0.9537   0.7742     H
C       0.3649   0.0704  0.22606     C
C       0.3649   0.1796  0.02394     C
C       0.3649   0.5704  0.72606     C
C       0.3649   0.6796  0.52394     C
H       0.3658   0.0522   0.5493     H
H       0.3658   0.1978   0.7007     H
H       0.3658   0.5522   0.0493     H
H       0.3658   0.6978   0.2007     H
C       0.3664  0.02589   0.2613     C
C       0.3664  0.22411   0.9887     C
C       0.3664  0.52589   0.7613     C
C       0.3664  0.72411   0.4887     C
S      0.36668   0.0969  0.63306     S
S      0.36668   0.1531  0.61694     S
S      0.36668   0.5969  0.13306     S
S      0.36668   0.6531  0.11694     S
C       0.3726  0.07518  0.75144     C
C       0.3726  0.17482  0.49856     C
C       0.3726  0.57518  0.25144     C
C       0.3726  0.67482  0.99856     C
N      0.37271  0.30694  0.92347     N
N      0.37271  0.44306  0.82653     N
N      0.37271  0.80694  0.42347     N
N      0.37271  0.94306  0.32653     N
Co       0.375    0.375    0.875    Co
Co       0.375    0.875    0.375    Co
N      0.37729  0.30694  0.82653     N
N      0.37729  0.44306  0.92347     N
N      0.37729  0.80694  0.32653     N
N      0.37729  0.94306  0.42347     N
C       0.3774  0.07518  0.99856     C
C       0.3774  0.17482  0.25144     C
C       0.3774  0.57518  0.49856     C
C       0.3774  0.67482  0.75144     C
S      0.38332   0.0969  0.11694     S
S      0.38332   0.1531  0.13306     S
S      0.38332   0.5969  0.61694     S
S      0.38332   0.6531  0.63306     S
C       0.3836  0.02589   0.4887     C
C       0.3836  0.22411   0.7613     C
C       0.3836  0.52589   0.9887     C
C       0.3836  0.72411   0.2613     C
H       0.3842   0.0522   0.2007     H
H       0.3842   0.1978   0.0493     H
H       0.3842   0.5522   0.7007     H
H       0.3842   0.6978   0.5493     H
C       0.3851   0.0704  0.52394     C
C       0.3851   0.1796  0.72606     C
C       0.3851   0.5704  0.02394     C
C       0.3851   0.6796  0.22606     C
H       0.3918   0.2963   0.2742     H
H       0.3918   0.4537   0.4758     H
H       0.3918   0.7963   0.7742     H
H       0.3918   0.9537   0.9758     H
N       0.4074  0.12337  0.23591     N
N       0.4074  0.12663  0.01409     N
N       0.4074  0.62337  0.73591     N
N       0.4074  0.62663  0.51409     N
C       0.4188   0.2675  0.98755     C
C       0.4188   0.4825  0.76245     C
C       0.4188   0.7675  0.48755     C
C       0.4188   0.9825  0.26245     C
C       0.4199  0.30743  0.95497     C
C       0.4199  0.44257  0.79503     C
C       0.4199  0.80743  0.45497     C
C       0.4199  0.94257  0.29503     C
C       0.4286  0.26461   0.8255     C
C       0.4286  0.48539   0.9245     C
C       0.4286  0.76461   0.3255     C
C       0.4286  0.98539   0.4245     C
C       0.4329  0.02668  0.45597     C
C       0.4329  0.22332  0.79403     C
C       0.4329  0.52668  0.95597     C
C       0.4329  0.72332  0.29403     C
C       0.4343  0.27818  0.26468     C
C       0.4343  0.47182  0.48532     C
C       0.4343  0.77818  0.76468     C
C       0.4343  0.97182  0.98532     C
H       0.4353   0.0817   0.5295     H
H       0.4353   0.1683   0.7205     H
H       0.4353   0.5817   0.0295     H
H       0.4353   0.6683   0.2205     H
O      0.43562  0.06983  0.76254     O
O      0.43562  0.18017  0.48746     O
O      0.43562  0.56983  0.26254     O
O      0.43562  0.68017  0.98746     O
C       0.4364  0.03031  0.99757     C
C       0.4364  0.21969  0.25243     C
C       0.4364  0.53031  0.49757     C
C       0.4364  0.71969  0.75243     C
C       0.4506    0.125    0.625     C
C       0.4506    0.625    0.125     C
H       0.4536   0.2698   0.0088     H
H       0.4536   0.4802   0.7412     H
H       0.4536   0.7698   0.5088     H
H       0.4536   0.9802   0.2412     H
H       0.4558   0.3365   0.9551     H
H       0.4558   0.4135   0.7949     H
H       0.4558   0.8365   0.4551     H
H       0.4558   0.9135   0.2949     H
H       0.4627   0.2632   0.8471     H
H       0.4627   0.4868   0.9029     H
H       0.4627   0.7632   0.3471     H
H       0.4627   0.9868   0.4029     H
H       0.4693   0.0554   0.4553     H
H       0.4693   0.1946   0.7947     H
H       0.4693   0.5554   0.9553     H
H       0.4693   0.6946   0.2947     H
O      0.47955  0.34091  0.46425     O
O      0.47955  0.40909  0.28575     O
O      0.47955  0.84091  0.96425     O
O      0.47955  0.90909  0.78575     O
C       0.4816   0.1203  0.02262     C
C       0.4816   0.1297  0.22738     C
C       0.4816   0.6203  0.52262     C
C       0.4816   0.6297  0.72738     C
N       0.4887    0.375    0.875     N
N       0.4887    0.875    0.375     N
C       0.4994  0.05814  0.01169     C
C       0.4994  0.19186  0.23831     C
C       0.4994  0.55814  0.51169     C
C       0.4994  0.69186  0.73831     C
C       0.5006  0.30814  0.26169     C
C       0.5006  0.44186  0.48831     C
C       0.5006  0.80814  0.76169     C
C       0.5006  0.94186  0.98831     C
N       0.5113    0.125    0.625     N
N       0.5113    0.625    0.125     N
C       0.5184   0.3703  0.27262     C
C       0.5184   0.3797  0.47738     C
C       0.5184   0.8703  0.77262     C
C       0.5184   0.8797  0.97738     C
O      0.52045  0.09091  0.21425     O
O      0.52045  0.15909  0.03575     O
O      0.52045  0.59091  0.71425     O
O      0.52045  0.65909  0.53575     O
H       0.5307   0.3054   0.7053     H
H       0.5307   0.4446   0.0447     H
H       0.5307   0.8054   0.2053     H
H       0.5307   0.9446   0.5447     H
H       0.5373   0.0132   0.5971     H
H       0.5373   0.2368   0.6529     H
H       0.5373   0.5132   0.0971     H
H       0.5373   0.7368   0.1529     H
H       0.5442   0.0865   0.7051     H
H       0.5442   0.1635   0.5449     H
H       0.5442   0.5865   0.2051     H
H       0.5442   0.6635   0.0449     H
H       0.5464   0.0198   0.7588     H
H       0.5464   0.2302   0.4912     H
H       0.5464   0.5198   0.2588     H
H       0.5464   0.7302   0.9912     H
C       0.5494    0.375    0.875     C
C       0.5494    0.875    0.375     C
C       0.5636  0.28031  0.24757     C
C       0.5636  0.46969  0.50243     C
C       0.5636  0.78031  0.74757     C
C       0.5636  0.96969  0.00243     C
O      0.56438  0.31983  0.01254     O
O      0.56438  0.43017  0.73746     O
O      0.56438  0.81983  0.51254     O
O      0.56438  0.93017  0.23746     O
H       0.5647   0.3317   0.7795     H
H       0.5647   0.4183   0.9705     H
H       0.5647   0.8317   0.2795     H
H       0.5647   0.9183   0.4705     H
C       0.5657  0.02818  0.01468     C
C       0.5657  0.22182  0.23532     C
C       0.5657  0.52818  0.51468     C
C       0.5657  0.72182  0.73532     C
C       0.5671  0.27668  0.70597     C
C       0.5671  0.47332  0.04403     C
C       0.5671  0.77668  0.20597     C
C       0.5671  0.97332  0.54403     C
C       0.5714  0.01461   0.5755     C
C       0.5714  0.23539   0.6745     C
C       0.5714  0.51461   0.0755     C
C       0.5714  0.73539   0.1745     C
C       0.5801  0.05743  0.70497     C
C       0.5801  0.19257  0.54503     C
C       0.5801  0.55743  0.20497     C
C       0.5801  0.69257  0.04503     C
C       0.5812   0.0175  0.73755     C
C       0.5812   0.2325  0.51245     C
C       0.5812   0.5175  0.23755     C
C       0.5812   0.7325  0.01245     C
N       0.5926  0.37337  0.48591     N
N       0.5926  0.37663  0.26409     N
N       0.5926  0.87337  0.98591     N
N       0.5926  0.87663  0.76409     N
H       0.6082   0.0463   0.0242     H
H       0.6082   0.2037   0.2258     H
H       0.6082   0.5463   0.5242     H
H       0.6082   0.7037   0.7258     H
C       0.6149   0.3204  0.77394     C
C       0.6149   0.4296  0.97606     C
C       0.6149   0.8204  0.27394     C
C       0.6149   0.9296  0.47606     C
H       0.6158   0.3022   0.4507     H
H       0.6158   0.4478   0.2993     H
H       0.6158   0.8022   0.9507     H
H       0.6158   0.9478   0.7993     H
C       0.6164  0.27589   0.7387     C
C       0.6164  0.47411   0.0113     C
C       0.6164  0.77589   0.2387     C
C       0.6164  0.97411   0.5113     C
S      0.61668   0.3469  0.36694     S
S      0.61668   0.4031  0.38306     S
S      0.61668   0.8469  0.86694     S
S      0.61668   0.9031  0.88306     S
C       0.6226  0.32518  0.24856     C
C       0.6226  0.42482  0.50144     C
C       0.6226  0.82518  0.74856     C
C       0.6226  0.92482  0.00144     C
N      0.62271  0.05694  0.57653     N
N      0.62271  0.19306  0.67347     N
N      0.62271  0.55694  0.07653     N
N      0.62271  0.69306  0.17347     N
Co       0.625    0.125    0.625    Co
Co       0.625    0.625    0.125    Co
N      0.62729  0.05694  0.67347     N
N      0.62729  0.19306  0.57653     N
N      0.62729  0.55694  0.17347     N
N      0.62729  0.69306  0.07653     N
C       0.6274  0.32518  0.00144     C
C       0.6274  0.42482  0.74856     C
C       0.6274  0.82518  0.50144     C
C       0.6274  0.92482  0.24856     C
S      0.63332   0.3469  0.88306     S
S      0.63332   0.4031  0.86694     S
S      0.63332   0.8469  0.38306     S
S      0.63332   0.9031  0.36694     S
C       0.6336  0.27589   0.5113     C
C       0.6336  0.47411   0.2387     C
C       0.6336  0.77589   0.0113     C
C       0.6336  0.97411   0.7387     C
H       0.6342   0.3022   0.7993     H
H       0.6342   0.4478   0.9507     H
H       0.6342   0.8022   0.2993     H
H       0.6342   0.9478   0.4507     H
C       0.6351   0.3204  0.47606     C
C       0.6351   0.4296  0.27394     C
C       0.6351   0.8204  0.97606     C
C       0.6351   0.9296  0.77394     C
H       0.6418   0.0463   0.2258     H
H       0.6418   0.2037   0.0242     H
H       0.6418   0.5463   0.7258     H
H       0.6418   0.7037   0.5242     H
N       0.6574  0.37337  0.76409     N
N       0.6574  0.37663  0.98591     N
N       0.6574  0.87337  0.26409     N
N       0.6574  0.87663  0.48591     N
C       0.6688   0.0175  0.51245     C
C       0.6688   0.2325  0.73755     C
C       0.6688   0.5175  0.01245     C
C       0.6688   0.7325  0.23755     C
C       0.6699  0.05743  0.54503     C
C       0.6699  0.19257  0.70497     C
C       0.6699  0.55743  0.04503     C
C       0.6699  0.69257  0.20497     C
C       0.6786  0.01461   0.6745     C
C       0.6786  0.23539   0.5755     C
C       0.6786  0.51461   0.1745     C
C       0.6786  0.73539   0.0755     C
C       0.6829  0.27668  0.54403     C
C       0.6829  0.47332  0.20597     C
C       0.6829  0.77668  0.04403     C
C       0.6829  0.97332  0.70597     C
C       0.6843  0.02818  0.23532     C
C       0.6843  0.22182  0.01468     C
C       0.6843  0.52818  0.73532     C
C       0.6843  0.72182  0.51468     C
H       0.6853   0.3317   0.4705     H
H       0.6853   0.4183   0.2795     H
H       0.6853   0.8317   0.9705     H
H       0.6853   0.9183   0.7795     H
O      0.68562  0.31983  0.23746     O
O      0.68562  0.43017  0.51254     O
O      0.68562  0.81983  0.73746     O
O      0.68562  0.93017  0.01254     O
C       0.6864  0.28031  0.00243     C
C       0.6864  0.46969  0.74757     C
C       0.6864  0.78031  0.50243     C
C       0.6864  0.96969  0.24757     C
C       0.7006    0.375    0.375     C
C       0.7006    0.875    0.875     C
H       0.7036   0.0198   0.4912     H
H       0.7036   0.2302   0.7588     H
H       0.7036   0.5198   0.9912     H
H       0.7036   0.7302   0.2588     H
H       0.7058   0.0865   0.5449     H
H       0.7058   0.1635   0.7051     H
H       0.7058   0.5865   0.0449     H
H       0.7058   0.6635   0.2051     H
H       0.7127   0.0132   0.6529     H
H       0.7127   0.2368   0.5971     H
H       0.7127   0.5132   0.1529     H
H       0.7127   0.7368   0.0971     H
H       0.7193   0.3054   0.5447     H
H       0.7193   0.4446   0.2053     H
H       0.7193   0.8054   0.0447     H
H       0.7193   0.9446   0.7053     H
O      0.72955  0.09091  0.03575     O
O      0.72955  0.15909  0.21425     O
O      0.72955  0.59091  0.53575     O
O      0.72955  0.65909  0.71425     O
C       0.7316   0.3703  0.97738     C
C       0.7316   0.3797  0.77262     C
C       0.7316   0.8703  0.47738     C
C       0.7316   0.8797  0.27262     C
N       0.7387    0.125    0.625     N
N       0.7387    0.625    0.125     N
C       0.7494  0.30814  0.98831     C
C       0.7494  0.44186  0.76169     C
C       0.7494  0.80814  0.48831     C
C       0.7494  0.94186  0.26169     C
C       0.7506  0.05814  0.23831     C
C       0.7506  0.19186  0.01169     C
C       0.7506  0.55814  0.73831     C
C       0.7506  0.69186  0.51169     C
N       0.7613    0.375    0.375     N
N       0.7613    0.875    0.875     N
C       0.7684   0.1203  0.22738     C
C       0.7684   0.1297  0.02262     C
C       0.7684   0.6203  0.72738     C
C       0.7684   0.6297  0.52262     C
O      0.77045  0.34091  0.78575     O
O      0.77045  0.40909  0.96425     O
O      0.77045  0.84091  0.28575     O
O      0.77045  0.90909  0.46425     O
H       0.7807   0.0554   0.7947     H
H       0.7807   0.1946   0.4553     H
H       0.7807   0.5554   0.2947     H
H       0.7807   0.6946   0.9553     H
H       0.7873   0.2632   0.4029     H
H       0.7873   0.4868   0.3471     H
H       0.7873   0.7632   0.9029     H
H       0.7873   0.9868   0.8471     H
H       0.7942   0.3365   0.2949     H
H       0.7942   0.4135   0.4551     H
H       0.7942   0.8365   0.7949     H
H       0.7942   0.9135   0.9551     H
H       0.7964   0.2698   0.2412     H
H       0.7964   0.4802   0.5088     H
H       0.7964   0.7698   0.7412     H
H       0.7964   0.9802   0.0088     H
C       0.7994    0.125    0.625     C
C       0.7994    0.625    0.125     C
C       0.8136  0.03031  0.25243     C
C       0.8136  0.21969  0.99757     C
C       0.8136  0.53031  0.75243     C
C       0.8136  0.71969  0.49757     C
O      0.81438  0.06983  0.48746     O
O      0.81438  0.18017  0.76254     O
O      0.81438  0.56983  0.98746     O
O      0.81438  0.68017  0.26254     O
H       0.8147   0.0817   0.7205     H
H       0.8147   0.1683   0.5295     H
H       0.8147   0.5817   0.2205     H
H       0.8147   0.6683   0.0295     H
C       0.8157  0.27818  0.98532     C
C       0.8157  0.47182  0.76468     C
C       0.8157  0.77818  0.48532     C
C       0.8157  0.97182  0.26468     C
C       0.8171  0.02668  0.79403     C
C       0.8171  0.22332  0.45597     C
C       0.8171  0.52668  0.29403     C
C       0.8171  0.72332  0.95597     C
C       0.8214  0.26461   0.4245     C
C       0.8214  0.48539   0.3255     C
C       0.8214  0.76461   0.9245     C
C       0.8214  0.98539   0.8255     C
C       0.8301  0.30743  0.29503     C
C       0.8301  0.44257  0.45497     C
C       0.8301  0.80743  0.79503     C
C       0.8301  0.94257  0.95497     C
C       0.8312   0.2675  0.26245     C
C       0.8312   0.4825  0.48755     C
C       0.8312   0.7675  0.76245     C
C       0.8312   0.9825  0.98755     C
N       0.8426  0.12337  0.01409     N
N       0.8426  0.12663  0.23591     N
N       0.8426  0.62337  0.51409     N
N       0.8426  0.62663  0.73591     N
H       0.8582   0.2963   0.9758     H
H       0.8582   0.4537   0.7742     H
H       0.8582   0.7963   0.4758     H
H       0.8582   0.9537   0.2742     H
C       0.8649   0.0704  0.72606     C
C       0.8649   0.1796  0.52394     C
C       0.8649   0.5704  0.22606     C
C       0.8649   0.6796  0.02394     C
H       0.8658   0.0522   0.0493     H
H       0.8658   0.1978   0.2007     H
H       0.8658   0.5522   0.5493     H
H       0.8658   0.6978   0.7007     H
C       0.8664  0.02589   0.7613     C
C       0.8664  0.22411   0.4887     C
C       0.8664  0.52589   0.2613     C
C       0.8664  0.72411   0.9887     C
S      0.86668   0.0969  0.13306     S
S      0.86668   0.1531  0.11694     S
S      0.86668   0.5969  0.63306     S
S      0.86668   0.6531  0.61694     S
C       0.8726  0.07518  0.25144     C
C       0.8726  0.17482  0.99856     C
C       0.8726  0.57518  0.75144     C
C       0.8726  0.67482  0.49856     C
N      0.87271  0.30694  0.42347     N
N      0.87271  0.44306  0.32653     N
N      0.87271  0.80694  0.92347     N
N      0.87271  0.94306  0.82653     N
Co       0.875    0.375    0.375    Co
Co       0.875    0.875    0.875    Co
N      0.87729  0.30694  0.32653     N
N      0.87729  0.44306  0.42347     N
N      0.87729  0.80694  0.82653     N
N      0.87729  0.94306  0.92347     N
C       0.8774  0.07518  0.49856     C
C       0.8774  0.17482  0.75144     C
C       0.8774  0.57518  0.99856     C
C       0.8774  0.67482  0.25144     C
S      0.88332   0.0969  0.61694     S
S      0.88332   0.1531  0.63306     S
S      0.88332   0.5969  0.11694     S
S      0.88332   0.6531  0.13306     S
C       0.8836  0.02589   0.9887     C
C       0.8836  0.22411   0.2613     C
C       0.8836  0.52589   0.4887     C
C       0.8836  0.72411   0.7613     C
H       0.8842   0.0522   0.7007     H
H       0.8842   0.1978   0.5493     H
H       0.8842   0.5522   0.2007     H
H       0.8842   0.6978   0.0493     H
C       0.8851   0.0704  0.02394     C
C       0.8851   0.1796  0.22606     C
C       0.8851   0.5704  0.52394     C
C       0.8851   0.6796  0.72606     C
H       0.8918   0.2963   0.7742     H
H       0.8918   0.4537   0.9758     H
H       0.8918   0.7963   0.2742     H
H       0.8918   0.9537   0.4758     H
N       0.9074  0.12337  0.73591     N
N       0.9074  0.12663  0.51409     N
N       0.9074  0.62337  0.23591     N
N       0.9074  0.62663  0.01409     N
C       0.9188   0.2675  0.48755     C
C       0.9188   0.4825  0.26245     C
C       0.9188   0.7675  0.98755     C
C       0.9188   0.9825  0.76245     C
C       0.9199  0.30743  0.45497     C
C       0.9199  0.44257  0.29503     C
C       0.9199  0.80743  0.95497     C
C       0.9199  0.94257  0.79503     C
C       0.9286  0.26461   0.3255     C
C       0.9286  0.48539   0.4245     C
C       0.9286  0.76461   0.8255     C
C       0.9286  0.98539   0.9245     C
C       0.9329  0.02668  0.95597     C
C       0.9329  0.22332  0.29403     C
C       0.9329  0.52668  0.45597     C
C       0.9329  0.72332  0.79403     C
C       0.9343  0.27818  0.76468     C
C       0.9343  0.47182  0.98532     C
C       0.9343  0.77818  0.26468     C
C       0.9343  0.97182  0.48532     C
H       0.9353   0.0817   0.0295     H
H       0.9353   0.1683   0.2205     H
H       0.9353   0.5817   0.5295     H
H       0.9353   0.6683   0.7205     H
O      0.93562  0.06983  0.26254     O
O      0.93562  0.18017  0.98746     O
O      0.93562  0.56983  0.76254     O
O      0.93562  0.68017  0.48746     O
C       0.9364  0.03031  0.49757     C
C       0.9364  0.21969  0.75243     C
C       0.9364  0.53031  0.99757     C
C       0.9364  0.71969  0.25243     C
C       0.9506    0.125    0.125     C
C       0.9506    0.625    0.625     C
H       0.9536   0.2698   0.5088     H
H       0.9536   0.4802   0.2412     H
H       0.9536   0.7698   0.0088     H
H       0.9536   0.9802   0.7412     H
H       0.9558   0.3365   0.4551     H
H       0.9558   0.4135   0.2949     H
H       0.9558   0.8365   0.9551     H
H       0.9558   0.9135   0.7949     H
H       0.9627   0.2632   0.3471     H
H       0.9627   0.4868   0.4029     H
H       0.9627   0.7632   0.8471     H
H       0.9627   0.9868   0.9029     H
H       0.9693   0.0554   0.9553     H
H       0.9693   0.1946   0.2947     H
H       0.9693   0.5554   0.4553     H
H       0.9693   0.6946   0.7947     H
O      0.97955  0.34091  0.96425     O
O      0.97955  0.40909  0.78575     O
O      0.97955  0.84091  0.46425     O
O      0.97955  0.90909  0.28575     O
C       0.9816   0.1203  0.52262     C
C       0.9816   0.1297  0.72738     C
C       0.9816   0.6203  0.02262     C
C       0.9816   0.6297  0.22738     C
N       0.9887    0.375    0.375     N
N       0.9887    0.875    0.875     N
C       0.9994  0.05814  0.51169     C
C       0.9994  0.19186  0.73831     C
C       0.9994  0.55814  0.01169     C
C       0.9994  0.69186  0.23831     C
