data_I
_chemical_name_common  '/home/zhangsd/repos/MofS-CGCNN/ML/data/SSD/clean_cifs/OWIJOV_clean'
_cell_length_a 15.49790
_cell_length_b 15.49790
_cell_length_c 12.30520
_cell_angle_alpha 90.00000
_cell_angle_beta  90.00000
_cell_angle_gamma 90.00000
_space_group_name_H-M_alt      'P 1'


loop_
_space_group_symop_operation_xyz
  'x, y, z' 

loop_
_atom_site_label
_atom_site_fract_x
_atom_site_fract_y
_atom_site_fract_z
_atom_site_type_symbol
H          0.0      0.0   0.1299     H
C          0.0      0.0    0.211     C
C          0.0      0.0   0.4418     C
C          0.0      0.0   0.5582     C
C          0.0      0.0    0.789     C
H          0.0      0.0   0.8701     H
C          0.0      0.5    0.039     C
H          0.0      0.5   0.1201     H
H          0.0      0.5   0.3799     H
C          0.0      0.5    0.461     C
C          0.0      0.5   0.6918     C
C          0.0      0.5   0.8082     C
C         0.04  0.56851   0.8659     C
C         0.04  0.56851   0.9813     C
C         0.04  0.93149   0.2687     C
C         0.04  0.93149   0.3841     C
H       0.0681   0.6167   0.8254     H
H       0.0681   0.8833   0.4246     H
C      0.06851     0.54   0.5187     C
C      0.06851     0.54   0.6341     C
C      0.06851     0.96   0.6159     C
C      0.06851     0.96   0.7313     C
C       0.0828   0.6374   0.0402     C
C       0.0828   0.8626   0.2098     C
O       0.0918   0.7076   0.9947     O
O       0.0918   0.7924   0.2553     O
O       0.1082   0.6227   0.1333     O
O       0.1082   0.8773   0.1167     O
H       0.1167   0.5681   0.6746     H
H       0.1167   0.9319   0.5754     H
O       0.1227   0.6082   0.3667     O
O       0.1227   0.8918   0.8833     O
C       0.1374   0.5828   0.4598     C
C       0.1374   0.9172   0.7902     C
In      0.1805   0.6805     0.25    In
In      0.1805   0.8195      0.0    In
H       0.1862     0.75    0.625     H
O       0.2076   0.5918   0.5053     O
O       0.2076   0.9082   0.7447     O
O       0.2443     0.75    0.625     O
H         0.25   0.6862    0.875     H
O         0.25   0.7443    0.875     O
O         0.25   0.7557    0.375     O
H         0.25   0.8138    0.375     H
O       0.2557     0.75    0.125     O
O       0.2924   0.5918   0.2447     O
O       0.2924   0.9082   0.0053     O
H       0.3138     0.75    0.125     H
In      0.3195   0.6805      0.5    In
In      0.3195   0.8195     0.75    In
C       0.3626   0.5828   0.2902     C
C       0.3626   0.9172   0.9598     C
O       0.3773   0.6082   0.3833     O
O       0.3773   0.8918   0.8667     O
H       0.3833   0.5681   0.0754     H
H       0.3833   0.9319   0.1746     H
O       0.3918   0.6227   0.6167     O
O       0.3918   0.8773   0.6333     O
O       0.4082   0.7076   0.7553     O
O       0.4082   0.7924   0.4947     O
C       0.4172   0.6374   0.7098     C
C       0.4172   0.8626   0.5402     C
C      0.43149     0.54   0.1159     C
C      0.43149     0.54   0.2313     C
C      0.43149     0.96   0.0187     C
C      0.43149     0.96   0.1341     C
H       0.4319   0.6167   0.9246     H
H       0.4319   0.8833   0.3254     H
C         0.46  0.56851   0.7687     C
C         0.46  0.56851   0.8841     C
C         0.46  0.93149   0.3659     C
C         0.46  0.93149   0.4813     C
C          0.5      0.0   0.1918     C
C          0.5      0.0   0.3082     C
C          0.5      0.0    0.539     C
H          0.5      0.0   0.6201     H
H          0.5      0.0   0.8799     H
C          0.5      0.0    0.961     C
C          0.5      0.5   0.0582     C
C          0.5      0.5    0.289     C
H          0.5      0.5   0.3701     H
H          0.5      0.5   0.6299     H
C          0.5      0.5    0.711     C
C          0.5      0.5   0.9418     C
C         0.54  0.06851   0.3659     C
C         0.54  0.06851   0.4813     C
C         0.54  0.43149   0.7687     C
C         0.54  0.43149   0.8841     C
H       0.5681   0.1167   0.3254     H
H       0.5681   0.3833   0.9246     H
C      0.56851     0.04   0.0187     C
C      0.56851     0.04   0.1341     C
C      0.56851     0.46   0.1159     C
C      0.56851     0.46   0.2313     C
C       0.5828   0.1374   0.5402     C
C       0.5828   0.3626   0.7098     C
O       0.5918   0.2076   0.4947     O
O       0.5918   0.2924   0.7553     O
O       0.6082   0.1227   0.6333     O
O       0.6082   0.3773   0.6167     O
H       0.6167   0.0681   0.1746     H
H       0.6167   0.4319   0.0754     H
O       0.6227   0.1082   0.8667     O
O       0.6227   0.3918   0.3833     O
C       0.6374   0.0828   0.9598     C
C       0.6374   0.4172   0.2902     C
In      0.6805   0.1805     0.75    In
In      0.6805   0.3195      0.5    In
H       0.6862     0.25    0.125     H
O       0.7076   0.0918   0.0053     O
O       0.7076   0.4082   0.2447     O
O       0.7443     0.25    0.125     O
H         0.75   0.1862    0.375     H
O         0.75   0.2443    0.375     O
O         0.75   0.2557    0.875     O
H         0.75   0.3138    0.875     H
O       0.7557     0.25    0.625     O
O       0.7924   0.0918   0.7447     O
O       0.7924   0.4082   0.5053     O
H       0.8138     0.25    0.625     H
In      0.8195   0.1805      0.0    In
In      0.8195   0.3195     0.25    In
C       0.8626   0.0828   0.7902     C
C       0.8626   0.4172   0.4598     C
O       0.8773   0.1082   0.8833     O
O       0.8773   0.3918   0.3667     O
H       0.8833   0.0681   0.5754     H
H       0.8833   0.4319   0.6746     H
O       0.8918   0.1227   0.1167     O
O       0.8918   0.3773   0.1333     O
O       0.9082   0.2076   0.2553     O
O       0.9082   0.2924   0.9947     O
C       0.9172   0.1374   0.2098     C
C       0.9172   0.3626   0.0402     C
C      0.93149     0.04   0.6159     C
C      0.93149     0.04   0.7313     C
C      0.93149     0.46   0.5187     C
C      0.93149     0.46   0.6341     C
H       0.9319   0.1167   0.4246     H
H       0.9319   0.3833   0.8254     H
C         0.96  0.06851   0.2687     C
C         0.96  0.06851   0.3841     C
C         0.96  0.43149   0.8659     C
C         0.96  0.43149   0.9813     C
