data_I
_chemical_name_common  '/home/zhangsd/repos/MofS-CGCNN/ML/data/SSD/clean_cifs/OWIJIP_clean'
_cell_length_a 15.48280
_cell_length_b 15.48280
_cell_length_c 12.30090
_cell_angle_alpha 90.00000
_cell_angle_beta  90.00000
_cell_angle_gamma 90.00000
_space_group_name_H-M_alt      'P 1'


loop_
_space_group_symop_operation_xyz
  'x, y, z' 

loop_
_atom_site_label
_atom_site_fract_x
_atom_site_fract_y
_atom_site_fract_z
_atom_site_type_symbol
H          0.0      0.0   0.1273     H
C          0.0      0.0   0.2104     C
C          0.0      0.0   0.4412     C
C          0.0      0.0   0.5588     C
C          0.0      0.0   0.7896     C
H          0.0      0.0   0.8727     H
C          0.0      0.5   0.0396     C
H          0.0      0.5   0.1227     H
H          0.0      0.5   0.3773     H
C          0.0      0.5   0.4604     C
C          0.0      0.5   0.6912     C
C          0.0      0.5   0.8088     C
C      0.04161   0.5676   0.8665     C
C      0.04161   0.5676   0.9819     C
C      0.04161   0.9324   0.2681     C
C      0.04161   0.9324   0.3835     C
C       0.0676  0.54161   0.5181     C
C       0.0676  0.54161   0.6335     C
C       0.0676  0.95839   0.6165     C
C       0.0676  0.95839   0.7319     C
H       0.0716   0.6163    0.825     H
H       0.0716   0.8837    0.425     H
C       0.0848   0.6363   0.0408     C
C       0.0848   0.8637   0.2092     C
O       0.0933   0.7078    0.995     O
O       0.0933   0.7922    0.255     O
O       0.1115   0.6207   0.1347     O
O       0.1115   0.8793   0.1153     O
H       0.1163   0.5716    0.675     H
H       0.1163   0.9284    0.575     H
O       0.1207   0.6115   0.3653     O
O       0.1207   0.8885   0.8847     O
C       0.1363   0.5848   0.4592     C
C       0.1363   0.9152   0.7908     C
In      0.1833   0.6833     0.25    In
In      0.1833   0.8167      0.0    In
H        0.187     0.75    0.625     H
O       0.2078   0.5933    0.505     O
O       0.2078   0.9067    0.745     O
O       0.2451     0.75    0.625     O
H         0.25    0.687    0.875     H
O         0.25   0.7451    0.875     O
O         0.25   0.7549    0.375     O
H         0.25    0.813    0.375     H
O       0.2549     0.75    0.125     O
O       0.2922   0.5933    0.245     O
O       0.2922   0.9067    0.005     O
H        0.313     0.75    0.125     H
In      0.3167   0.6833      0.5    In
In      0.3167   0.8167     0.75    In
C       0.3637   0.5848   0.2908     C
C       0.3637   0.9152   0.9592     C
O       0.3793   0.6115   0.3847     O
O       0.3793   0.8885   0.8653     O
H       0.3837   0.5716    0.075     H
H       0.3837   0.9284    0.175     H
O       0.3885   0.6207   0.6153     O
O       0.3885   0.8793   0.6347     O
O       0.4067   0.7078    0.755     O
O       0.4067   0.7922    0.495     O
C       0.4152   0.6363   0.7092     C
C       0.4152   0.8637   0.5408     C
H       0.4284   0.6163    0.925     H
H       0.4284   0.8837    0.325     H
C       0.4324  0.54161   0.1165     C
C       0.4324  0.54161   0.2319     C
C       0.4324  0.95839   0.0181     C
C       0.4324  0.95839   0.1335     C
C      0.45839   0.5676   0.7681     C
C      0.45839   0.5676   0.8835     C
C      0.45839   0.9324   0.3665     C
C      0.45839   0.9324   0.4819     C
C          0.5      0.0   0.1912     C
C          0.5      0.0   0.3088     C
C          0.5      0.0   0.5396     C
H          0.5      0.0   0.6227     H
H          0.5      0.0   0.8773     H
C          0.5      0.0   0.9604     C
C          0.5      0.5   0.0588     C
C          0.5      0.5   0.2896     C
H          0.5      0.5   0.3727     H
H          0.5      0.5   0.6273     H
C          0.5      0.5   0.7104     C
C          0.5      0.5   0.9412     C
C      0.54161   0.0676   0.3665     C
C      0.54161   0.0676   0.4819     C
C      0.54161   0.4324   0.7681     C
C      0.54161   0.4324   0.8835     C
C       0.5676  0.04161   0.0181     C
C       0.5676  0.04161   0.1335     C
C       0.5676  0.45839   0.1165     C
C       0.5676  0.45839   0.2319     C
H       0.5716   0.1163    0.325     H
H       0.5716   0.3837    0.925     H
C       0.5848   0.1363   0.5408     C
C       0.5848   0.3637   0.7092     C
O       0.5933   0.2078    0.495     O
O       0.5933   0.2922    0.755     O
O       0.6115   0.1207   0.6347     O
O       0.6115   0.3793   0.6153     O
H       0.6163   0.0716    0.175     H
H       0.6163   0.4284    0.075     H
O       0.6207   0.1115   0.8653     O
O       0.6207   0.3885   0.3847     O
C       0.6363   0.0848   0.9592     C
C       0.6363   0.4152   0.2908     C
In      0.6833   0.1833     0.75    In
In      0.6833   0.3167      0.5    In
H        0.687     0.25    0.125     H
O       0.7078   0.0933    0.005     O
O       0.7078   0.4067    0.245     O
O       0.7451     0.25    0.125     O
H         0.75    0.187    0.375     H
O         0.75   0.2451    0.375     O
O         0.75   0.2549    0.875     O
H         0.75    0.313    0.875     H
O       0.7549     0.25    0.625     O
O       0.7922   0.0933    0.745     O
O       0.7922   0.4067    0.505     O
H        0.813     0.25    0.625     H
In      0.8167   0.1833      0.0    In
In      0.8167   0.3167     0.25    In
C       0.8637   0.0848   0.7908     C
C       0.8637   0.4152   0.4592     C
O       0.8793   0.1115   0.8847     O
O       0.8793   0.3885   0.3653     O
H       0.8837   0.0716    0.575     H
H       0.8837   0.4284    0.675     H
O       0.8885   0.1207   0.1153     O
O       0.8885   0.3793   0.1347     O
O       0.9067   0.2078    0.255     O
O       0.9067   0.2922    0.995     O
C       0.9152   0.1363   0.2092     C
C       0.9152   0.3637   0.0408     C
H       0.9284   0.1163    0.425     H
H       0.9284   0.3837    0.825     H
C       0.9324  0.04161   0.6165     C
C       0.9324  0.04161   0.7319     C
C       0.9324  0.45839   0.5181     C
C       0.9324  0.45839   0.6335     C
C      0.95839   0.0676   0.2681     C
C      0.95839   0.0676   0.3835     C
C      0.95839   0.4324   0.8665     C
C      0.95839   0.4324   0.9819     C
