data_I
_chemical_name_common  '/home/zhangsd/repos/MofS-CGCNN/ML/data/SSD/clean_cifs/OWIZAW_clean'
_cell_length_a 19.94820
_cell_length_b 19.94820
_cell_length_c 45.44800
_cell_angle_alpha 93.42030
_cell_angle_beta  93.42030
_cell_angle_gamma 96.61250
_space_group_name_H-M_alt      'P 1'


loop_
_space_group_symop_operation_xyz
  'x, y, z' 

loop_
_atom_site_label
_atom_site_fract_x
_atom_site_fract_y
_atom_site_fract_z
_atom_site_type_symbol
C       0.0143   0.6061     0.15     C
H       0.0145   0.5085   0.7352     H
O       0.0187   0.5473    0.158     O
C       0.0198   0.4102  0.74269     C
H       0.0219   0.2829   0.8734     H
C       0.0229   0.5909   0.2311     C
C       0.0309   0.4693    0.728     C
C       0.0347   0.3851  0.87472     C
H       0.0367   0.3121   0.7417     H
O       0.0372   0.5338   0.2192     O
O        0.043   0.6492   0.2221     O
C       0.0441   0.3517   0.7319     C
C       0.0453   0.3213   0.8835     C
O       0.0473   0.6641   0.1609     O
H       0.0626   0.4852   0.8839     H
C       0.0664   0.4698   0.7026     C
C       0.0696   0.4426   0.8898     C
H       0.0737   0.5093   0.6928     H
C       0.0796   0.3522   0.7065     C
C       0.0907   0.4113  0.69187     C
C       0.0908    0.315   0.9072     C
Cu     0.09258  0.52628   0.1855    Cu
H       0.0959   0.3129   0.6993     H
H       0.0978   0.2724   0.9131     H
Cu     0.11506   0.6617  0.19457    Cu
C       0.1151   0.4363   0.9136     C
C       0.1223   0.4127   0.6644     C
C       0.1257   0.3725   0.9223     C
H       0.1385   0.4747   0.9236     H
O       0.1487   0.5307   0.1527     O
C       0.1663   0.4157   0.6469     C
O       0.1703   0.5265   0.2129     O
C        0.175    0.369   0.9479     C
O       0.1784   0.6396   0.2253     O
C       0.1807   0.5905     0.15     C
H       0.1831   0.5071   0.1032     H
O       0.1842   0.6488   0.1649     O
C       0.1959   0.5813   0.2294     C
C       0.2058   0.4166   0.6217     C
H        0.212    0.316   0.6175     H
C        0.213   0.3674   0.9692     C
C       0.2143   0.5449   0.1015     C
H       0.2154    0.518    0.619     H
C       0.2222   0.5974  0.12336     C
C       0.2287   0.3573   0.6108     C
C       0.2308   0.4784   0.6117     C
H       0.2478   0.5134   0.0624     H
C       0.2483   0.5779  0.25497     C
H       0.2507   0.4771   0.2483     H
C        0.253   0.5486   0.0771     C
H       0.2591   0.2629   0.4923     H
H       0.2606   0.3482   0.5294     H
C       0.2614   0.3604  0.99307     C
H       0.2614   0.6768   0.2694     H
H       0.2629   0.2591   0.9923     H
H        0.266   0.4794   0.5298     H
C       0.2685   0.5151   0.2603     C
C       0.2689   0.6537   0.1208     C
H       0.2711   0.5567   0.4936     H
H       0.2724   0.0978   0.4131     H
H       0.2743   0.6889   0.1355     H
C       0.2749   0.6347   0.2729     C
C       0.2766     0.36   0.5897     C
H       0.2766    0.462   0.0012     H
C       0.2788    0.481   0.5906     C
C       0.2827   0.3001   0.0015     C
H       0.2829   0.0219   0.3734     H
C        0.291   0.4216   0.0069     C
H        0.292   0.3204   0.5824     H
H       0.2954   0.5224   0.5839     H
C       0.2998    0.605   0.0746     C
C       0.3001   0.2827   0.5015     C
C        0.301   0.3338   0.5238     C
C       0.3016   0.4218  0.57969     C
H       0.3047   0.6611   0.4053     H
C       0.3077   0.5001   0.5249     C
C       0.3077   0.6575   0.0964     C
C       0.3107   0.5465   0.5032     C
H       0.3111   0.7257   0.3645     H
H       0.3121   0.0367   0.2417     H
H       0.3129   0.0959   0.1993     H
C        0.315   0.0908   0.4072     C
C       0.3154   0.5092   0.2836     C
H        0.316    0.212   0.1175     H
H       0.3204    0.292   0.0824     H
C       0.3213   0.0453   0.3835     C
C       0.3218   0.6288   0.2962     C
H       0.3232   0.7386   0.2306     H
H       0.3289   0.4671   0.2872     H
H       0.3307   0.4237   0.0854     H
H       0.3332   0.6604   0.1917     H
C       0.3338    0.301   0.0238     C
O       0.3359   0.9527   0.3391     O
H       0.3366   0.5054   0.1243     H
Cu      0.3383  0.88494  0.30543    Cu
H       0.3389   0.6953   0.0947     H
H       0.3396   0.6668   0.3083     H
C        0.342    0.566  0.30157     C
C       0.3421   0.4225   0.0291     C
C       0.3425   0.6923   0.4036     C
C       0.3427   0.6105   0.0492     C
C       0.3463   0.7311   0.3792     C
H       0.3482   0.2606   0.0294     H
O       0.3508    0.957   0.2779     O
O       0.3512   0.8158   0.3351     O
C       0.3517   0.0441   0.2319     C
C       0.3522   0.0796   0.2065     C
C       0.3573   0.2287   0.1108     C
C         0.36   0.2766   0.0897     C
C       0.3604   0.2614  0.49307     C
O       0.3604   0.8216   0.2747     O
H       0.3619   0.4635   0.0383     H
C       0.3622   0.3636  0.53754     C
C       0.3636   0.3622  0.03754     C
C       0.3636   0.4264   0.5603     C
C       0.3653   0.7251   0.2271     C
C       0.3669   0.4847  0.53928     C
C       0.3674    0.213   0.4692     C
C        0.369    0.175   0.4479     C
C       0.3712   0.6782   0.2038     C
C       0.3725   0.1257   0.4223     C
C       0.3726    0.442   0.0943     C
C        0.373   0.5774   0.4959     C
C       0.3761   0.4909   0.1176     C
C       0.3777   0.6143   0.0278     C
C       0.3851   0.0347  0.37472     C
C       0.3857   0.6223   0.4722     C
C       0.3884   0.5588   0.3246     C
C       0.3895   0.6573   0.4508     C
C       0.3939   0.9857     0.35     C
C        0.395   0.7002   0.4254     C
C       0.4026   0.7778  0.37664     C
C       0.4091   0.9771   0.2689     C
C       0.4095   0.8193     0.35     C
C       0.4102   0.0198  0.24269     C
C       0.4113   0.0907  0.19187     C
C       0.4127   0.1223   0.1644     C
C       0.4157   0.1663   0.1469     C
C       0.4166   0.2058   0.1217     C
H       0.4173   0.5261   0.9946     H
C       0.4187   0.8041   0.2706     C
C       0.4204   0.4316  0.58433     C
C       0.4216    0.291   0.5069     C
C       0.4218   0.3016  0.07969     C
C       0.4221   0.7517  0.24503     C
C       0.4225   0.3421   0.5291     C
C       0.4226    0.627   0.0041     C
H       0.4237   0.3307   0.5854     H
C       0.4264   0.3636   0.0603     C
C       0.4291   0.5157    0.532     C
C       0.4304   0.5548   0.3445     C
C       0.4316   0.4204  0.08433     C
C       0.4322    0.562   0.5103     C
H       0.4333   0.5335    0.591     H
C        0.434    0.658  0.19843     C
C       0.4363   0.1151   0.4136     C
C        0.438   0.5678   0.9897     C
C       0.4386   0.5182  0.13099     C
C       0.4412   0.6116   0.1754     C
C        0.442   0.3726   0.5943     C
C       0.4426   0.0696   0.3898     C
H       0.4433   0.7289   0.0064     H
C       0.4452   0.5696   0.1555     C
C       0.4478    0.494   0.5977     C
C       0.4514    0.747   0.4229     C
O       0.4527   0.9813    0.342     O
C       0.4535   0.6893   0.9968     C
C       0.4551   0.7857   0.3985     C
H       0.4607   0.4851   0.8701     H
H        0.462   0.2766   0.5012     H
H       0.4635   0.3619   0.5383     H
O       0.4662   0.9628   0.2808     O
H       0.4665   0.5667    0.909     H
H       0.4671   0.3289   0.7872     H
H       0.4688   0.5054   0.5416     H
C       0.4693   0.0309    0.228     C
O       0.4693   0.8513   0.3473     O
C       0.4698   0.0664   0.2026     C
O       0.4735   0.8297   0.2871     O
Cu     0.47372  0.90742   0.3145    Cu
H       0.4739   0.5827   0.5054     H
H       0.4747   0.1385   0.4236     H
H       0.4771   0.2507   0.7483     H
H       0.4776   0.7046   0.9161     H
C       0.4784   0.2308   0.1117     C
H       0.4794    0.266   0.0298     H
C        0.481   0.2788   0.0906     C
C       0.4818   0.5614  0.36901     C
H        0.482   0.7846    0.881     H
C       0.4843   0.5709    0.968     C
C       0.4847   0.3669  0.03928     C
C       0.4849   0.7315   0.2397     C
H       0.4851   0.4607   0.3701     H
H       0.4852   0.0626   0.3839     H
H       0.4866   0.7522   0.4376     H
H       0.4907   0.9263   0.8072     H
C       0.4908   0.6846   0.2164     C
C       0.4909   0.3761   0.6176     C
H       0.4915   0.9855   0.7648     H
H       0.4929   0.8169   0.3968     H
C        0.494   0.4478   0.0977     C
H       0.4946   0.5312   0.9584     H
H       0.4946   0.6634   0.3757     H
C       0.4966   0.4976    0.621     C
C       0.4976   0.4966    0.121     C
C       0.4999   0.6923   0.9751     C
C       0.5001   0.3077   0.0249     C
C       0.5024   0.5034    0.879     C
C       0.5034   0.5024    0.379     C
H       0.5054   0.3366   0.6243     H
H       0.5054   0.4688   0.0416     H
C        0.506   0.5522   0.9023     C
H       0.5071   0.1831   0.6032     H
H       0.5085   0.0145   0.2352     H
C       0.5091   0.6239   0.3824     C
C       0.5092   0.3154   0.7836     C
H       0.5093   0.0737   0.1928     H
H       0.5134   0.2478   0.5624     H
H       0.5148   0.9374   0.6161     H
H       0.5149   0.5393   0.6299     H
C       0.5151   0.2685   0.7603     C
C       0.5153   0.6331  0.96072     C
C       0.5157   0.4291    0.032     C
H        0.518   0.2154    0.119     H
C       0.5182   0.4386  0.63099     C
C        0.519   0.7212   0.9094     C
H       0.5206    0.734   0.9702     H
C       0.5216   0.7692   0.8883     C
H       0.5224   0.2954   0.0839     H
H       0.5229   0.7493   0.2517     H
H       0.5253   0.8615   0.5764     H
H       0.5261   0.4173   0.4946     H
Cu     0.52628  0.09258   0.6855    Cu
O       0.5265   0.1703   0.7129     O
C       0.5302   0.9336   0.7974     C
O       0.5307   0.1487   0.6527     O
C       0.5307   0.9691    0.772     C
H       0.5312   0.4946   0.4584     H
H       0.5329   0.6711   0.2128     H
H       0.5335   0.4333    0.091     H
O       0.5338   0.0372   0.7192     O
H       0.5365   0.6381   0.4617     H
H        0.538   0.7234   0.4988     H
H       0.5393   0.5149   0.1299     H
C       0.5449   0.2143   0.6015     C
C       0.5465   0.3107   0.0032     C
O       0.5473   0.0187    0.658     O
C       0.5486    0.253   0.5771     C
C       0.5522    0.506   0.4023     C
C       0.5548   0.4304   0.8445     C
H       0.5567   0.2711   0.9936     H
C       0.5574   0.9304   0.6102     C
C        0.558   0.6274   0.4057     C
C       0.5588   0.3884   0.8246     C
C       0.5614   0.4818  0.86901     C
C        0.562   0.4322   0.0103     C
C       0.5637   0.8849   0.5864     C
C        0.566    0.342  0.80157     C
H       0.5667   0.4665    0.409     H
C       0.5678    0.438   0.4897     C
C       0.5684   0.5796  0.91567     C
C       0.5696   0.4452   0.6555     C
C       0.5709   0.4843    0.468     C
C       0.5736   0.6364   0.9397     C
H       0.5763   0.6693   0.4146     H
C       0.5774    0.373   0.9959     C
C       0.5775   0.6579   0.4709     C
C       0.5779   0.2483  0.75497     C
C       0.5782   0.6984  0.92031     C
C       0.5784    0.709   0.4931     C
C       0.5796   0.5684  0.41567     C
C       0.5813   0.1959   0.7294     C
H       0.5827   0.4739   0.0054     H
C       0.5834   0.7942   0.8783     C
C       0.5843   0.8337   0.8531     C
C       0.5873   0.8777   0.8356     C
C       0.5887   0.9093  0.80813     C
C       0.5898   0.9802  0.75731     C
C       0.5905   0.1807     0.65     C
C       0.5909   0.0229   0.7311     C
C       0.5974   0.2222  0.62336     C
C        0.605   0.2998   0.5746     C
C       0.6061   0.0143     0.65     C
C       0.6105   0.3427   0.5492     C
C       0.6116   0.4412   0.6754     C
C       0.6143   0.3777   0.5278     C
C       0.6149   0.9653  0.62528     C
C       0.6223   0.3857   0.9722     C
C       0.6239   0.5091   0.8824     C
C        0.627   0.4226   0.5041     C
C       0.6274    0.558   0.9057     C
C       0.6275   0.8743   0.5777     C
C       0.6288   0.3218   0.7962     C
C        0.631    0.825   0.5521     C
C       0.6326    0.787   0.5308     C
C       0.6331   0.5153  0.46072     C
C       0.6347   0.2749   0.7729     C
C       0.6364   0.5736   0.4397     C
C       0.6364   0.6378  0.96246     C
C       0.6378   0.6364  0.46246     C
H       0.6381   0.5365   0.9617     H
O       0.6396   0.1784   0.7253     O
C       0.6396   0.7386  0.50693     C
C         0.64   0.7234   0.9103     C
C       0.6427   0.7713   0.8892     C
C       0.6478   0.9204   0.7935     C
C       0.6483   0.9559   0.7681     C
O       0.6488   0.1842   0.6649     O
O       0.6492    0.043   0.7221     O
H       0.6518   0.7394   0.9706     H
C       0.6537   0.2689   0.6208     C
C       0.6573   0.3895   0.9508     C
C       0.6575   0.3077   0.5964     C
C       0.6579   0.5775   0.9709     C
C        0.658    0.434  0.69843     C
H       0.6604   0.3332   0.6917     H
H       0.6611   0.3047   0.9053     H
Cu      0.6617  0.11506  0.69457    Cu
H       0.6634   0.4946   0.8757     H
O       0.6641   0.0473   0.6609     O
C       0.6662    0.699   0.9762     C
H       0.6668   0.3396   0.8083     H
H       0.6693   0.5763   0.9146     H
H       0.6711   0.5329   0.7128     H
H       0.6768   0.2614   0.7694     H
C       0.6782   0.3712   0.7038     C
C       0.6787   0.9547   0.6165     C
H       0.6796    0.708   0.9176     H
H        0.684    0.788   0.8825     H
C       0.6846   0.4908   0.7164     C
C        0.685   0.9092   0.5928     C
H       0.6871   0.9041   0.8007     H
H       0.6879   0.9633   0.7583     H
H       0.6889   0.2743   0.6355     H
C       0.6893   0.4535   0.4968     C
C       0.6923   0.3425   0.9036     C
C       0.6923   0.4999   0.4751     C
H       0.6953   0.3389   0.5947     H
C       0.6984   0.5782  0.42031     C
C        0.699   0.6662   0.4762     C
C       0.6999   0.7173   0.4985     C
C       0.7002    0.395   0.9254     C
H       0.7046   0.4776   0.4161     H
H        0.708   0.6796   0.4176     H
C        0.709   0.5784   0.9931     C
H       0.7171   0.9781   0.6266     H
C       0.7173   0.6999   0.9985     C
C       0.7212    0.519   0.4094     C
H       0.7234    0.538   0.9988     H
C       0.7234     0.64   0.4103     C
C       0.7251   0.3653   0.7271     C
H       0.7257   0.3111   0.8645     H
H       0.7276   0.9022   0.5869     H
H       0.7289   0.4433   0.5064     H
C       0.7311   0.3463   0.8792     C
C       0.7315   0.4849   0.7397     C
H        0.734   0.5206   0.4702     H
H       0.7371   0.7409   0.0077     H
H       0.7386   0.3232   0.7306     H
C       0.7386   0.6396  0.00693     C
H       0.7394   0.6518   0.4706     H
H       0.7409   0.7371   0.5077     H
C        0.747   0.4514   0.9229     C
H       0.7493   0.5229   0.7517     H
C       0.7517   0.4221  0.74503     C
H       0.7522   0.4866   0.9376     H
C       0.7692   0.5216   0.3883     C
C       0.7713   0.6427   0.3892     C
C       0.7778   0.4026  0.87664     C
H       0.7846    0.482    0.381     H
C       0.7857   0.4551   0.8985     C
C        0.787   0.6326   0.0308     C
H        0.788    0.684   0.3825     H
C       0.7942   0.5834   0.3783     C
C       0.8041   0.4187   0.7706     C
O       0.8158   0.3512   0.8351     O
H       0.8169   0.4929   0.8968     H
C       0.8193   0.4095     0.85     C
O       0.8216   0.3604   0.7747     O
C        0.825    0.631   0.0521     C
O       0.8297   0.4735   0.7871     O
C       0.8337   0.5843   0.3531     C
O       0.8513   0.4693   0.8473     O
H       0.8615   0.5253   0.0764     H
C       0.8743   0.6275   0.0777     C
C       0.8777   0.5873   0.3356     C
C       0.8849   0.5637   0.0864     C
Cu     0.88494   0.3383  0.80543    Cu
H       0.9022   0.7276   0.0869     H
H       0.9041   0.6871   0.3007     H
Cu     0.90742  0.47372   0.8145    Cu
C       0.9092    0.685   0.0928     C
C       0.9093   0.5887  0.30813     C
C       0.9204   0.6478   0.2935     C
H       0.9263   0.4907   0.3072     H
C       0.9304   0.5574   0.1102     C
C       0.9336   0.5302   0.2974     C
H       0.9374   0.5148   0.1161     H
O       0.9527   0.3359   0.8391     O
C       0.9547   0.6787   0.1165     C
C       0.9559   0.6483   0.2681     C
O        0.957   0.3508   0.7779     O
O       0.9628   0.4662   0.7808     O
H       0.9633   0.6879   0.2583     H
C       0.9653   0.6149  0.12528     C
C       0.9691   0.5307    0.272     C
C       0.9771   0.4091   0.7689     C
H       0.9781   0.7171   0.1266     H
C       0.9802   0.5898  0.25731     C
O       0.9813   0.4527    0.842     O
H       0.9855   0.4915   0.2648     H
C       0.9857   0.3939     0.85     C
