data_I
_chemical_name_common  '/home/zhangsd/repos/MofS-CGCNN/ML/data/SSD/clean_cifs/OWUWUA_clean'
_cell_length_a 24.05000
_cell_length_b 12.45800
_cell_length_c 18.14000
_cell_angle_alpha 90.00000
_cell_angle_beta  104.46600
_cell_angle_gamma 90.00000
_space_group_name_H-M_alt      'P 1'


loop_
_space_group_symop_operation_xyz
  'x, y, z' 

loop_
_atom_site_label
_atom_site_fract_x
_atom_site_fract_y
_atom_site_fract_z
_atom_site_type_symbol
H       0.0101   0.6385   0.7649     H
H       0.0101   0.8615   0.2649     H
C       0.0184   0.7185   0.8611     C
C       0.0184   0.7815   0.3611     C
C       0.0348   0.6504   0.8125     C
C       0.0348   0.8496   0.3125     C
C       0.0419   0.2301   0.1575     C
C       0.0419   0.2699   0.6575     C
H       0.0443   0.7187   0.4641     H
H       0.0443   0.7813   0.9641     H
O       0.0523   0.1725   0.1055     O
O       0.0523   0.3275   0.6055     O
C       0.0553   0.7354   0.9298     C
C       0.0553   0.7646   0.4298     C
O       0.0692   0.2347   0.2171     O
O       0.0692   0.2653   0.7171     O
O       0.0715   0.5244   0.7109     O
O       0.0715   0.9756   0.2109     O
Na     0.08198   0.0247   0.1067    Na
Na     0.08198   0.4753   0.6067    Na
C       0.0852   0.5997   0.8308     C
C       0.0852   0.9003   0.3308     C
C       0.1033   0.5244   0.7756     C
C       0.1033   0.9756   0.2756     C
C       0.1092   0.6866    0.951     C
C       0.1092   0.8134    0.451     C
C       0.1238   0.6182   0.8993     C
C       0.1238   0.8818   0.3993     C
H        0.125   0.7431   0.0603     H
H        0.125   0.7569   0.5603     H
O       0.1392   0.0416   0.3009     O
O       0.1392   0.4584   0.8009     O
Zn     0.14402  0.16886  0.23442    Zn
Zn     0.14402  0.33114  0.73442    Zn
C        0.148   0.7176   0.0269     C
C        0.148   0.7824   0.5269     C
H       0.1595   0.5848   0.9107     H
H       0.1595   0.9152   0.4107     H
O       0.1637   0.0264   0.0931     O
O       0.1637   0.4736   0.5931     O
H       0.1732   0.7246   0.5199     H
H       0.1732   0.7754   0.0199     H
O       0.1807   0.6299   0.0602     O
O       0.1807   0.8701   0.5602     O
H       0.1943   0.7063   0.6527     H
H       0.1943   0.7937   0.1527     H
O       0.2035   0.1368   0.1859     O
O       0.2035   0.3632   0.6859     O
C       0.2066   0.0682   0.1378     C
C       0.2066   0.4318   0.6378     C
C        0.219   0.6473   0.1291     C
C        0.219   0.8527   0.6291     C
C       0.2203   0.7386   0.1703     C
C       0.2203   0.7614   0.6703     C
H       0.2304   0.6085   0.7633     H
H       0.2304   0.8915   0.2633     H
H       0.2376   0.5602   0.5374     H
H       0.2376   0.9398   0.0374     H
H       0.2441   0.5077   0.8682     H
H       0.2441   0.9923   0.3682     H
H       0.2555   0.5037   0.1256     H
H       0.2555   0.9963   0.6256     H
C       0.2575   0.5654    0.155     C
C       0.2575   0.9346    0.655     C
C       0.2597   0.6566   0.7842     C
C       0.2597   0.8434   0.2842     C
C       0.2627   0.7487   0.2421     C
C       0.2627   0.7513   0.7421     C
C        0.263   0.0226   0.1363     C
C        0.263   0.4774   0.6363     C
C       0.2692   0.5446   0.5773     C
C       0.2692   0.9554   0.0773     C
H       0.2761   0.5794   0.9885     H
H       0.2761   0.9206   0.4885     H
C       0.2844   0.5271   0.8833     C
C       0.2844   0.9729   0.3833     C
O       0.2898   0.6985   0.4679     O
O       0.2898   0.8015   0.9679     O
H       0.2906   0.1459   0.6974     H
H       0.2906   0.3541   0.1974     H
N       0.2934   0.6306   0.8486     N
N       0.2934   0.8694   0.3486     N
C       0.2996   0.5714   0.2238     C
C       0.2996   0.9286   0.7238     C
H       0.3023   0.0802     0.83     H
H       0.3023   0.4198     0.33     H
C       0.3028   0.6672   0.2668     C
C       0.3028   0.8328   0.7668     C
C       0.3039   0.5385   0.9694     C
C       0.3039   0.9615   0.4694     C
H       0.3058   0.0902   0.2334     H
H       0.3058   0.4098   0.7334     H
H       0.3063   0.0288   0.3662     H
H       0.3063   0.4712   0.8662     H
H       0.3086   0.0314   0.4937     H
H       0.3086   0.4686   0.9937     H
C       0.3099   0.0431   0.1954     C
C       0.3099   0.4569   0.6954     C
C        0.322   0.5875   0.5783     C
C        0.322   0.9125   0.0783     C
C       0.3287   0.1214   0.6986     C
C       0.3287   0.3786   0.1986     C
H       0.3308    0.103    0.648     H
H       0.3308    0.397    0.148     H
C       0.3322   0.6557   0.5149     C
C       0.3322   0.8443   0.0149     C
C       0.3405   0.0566   0.8308     C
C       0.3405   0.4434   0.3308     C
C       0.3427   0.0218   0.7502     C
C       0.3427   0.4782   0.2502     C
O      0.34388   0.6787   0.3312     O
O      0.34388   0.8213   0.8312     O
H       0.3506   0.5031    0.365     H
H       0.3506   0.9969    0.865     H
H       0.3558   0.1773   0.7182     H
H       0.3558   0.3227   0.2182     H
Fe     0.35781  0.73009   0.9156    Fe
Fe     0.35781  0.76991   0.4156    Fe
N       0.3579   0.5944   0.9835     N
N       0.3579   0.9056   0.4835     N
C       0.3634   0.5038   0.7007     C
C       0.3634   0.9962   0.2007     C
H       0.3654   0.2354   0.5393     H
H       0.3654   0.2646   0.0393     H
H        0.367   0.1143   0.8476     H
H        0.367   0.3857   0.3476     H
C       0.3687   0.5688   0.6408     C
C       0.3687   0.9312   0.1408     C
H       0.3728   0.1663   0.9886     H
H       0.3728   0.3337   0.4886     H
H       0.3758   0.1496   0.0752     H
H       0.3758   0.3504   0.5752     H
O        0.382   0.6681   0.5079     O
O        0.382   0.8319   0.0079     O
C       0.3849   0.1975   0.0384     C
C       0.3849   0.3025   0.5384     C
H       0.3904   0.1969   0.4271     H
H       0.3904   0.3031   0.9271     H
H       0.3989   0.0047   0.5564     H
H       0.3989   0.4953   0.0564     H
O      0.39964   0.0829   0.3196     O
O      0.39964   0.4171   0.8196     O
C        0.403    0.517    0.252     C
C        0.403   0.5559   0.0284     C
C        0.403   0.9441   0.5284     C
C        0.403    0.983    0.752     C
H        0.404   0.6005   0.6421     H
H        0.404   0.8995   0.1421     H
H       0.4045   0.5398    0.202     H
H       0.4045   0.9602    0.702     H
H       0.4128   0.5761   0.2868     H
H       0.4128   0.9239   0.7868     H
C       0.4137   0.0105    0.266     C
C       0.4137   0.4895    0.766     C
H        0.425   0.5582   0.7903     H
H        0.425   0.9418   0.2903     H
C       0.4282   0.1732   0.4365     C
C       0.4282   0.3268   0.9365     C
H       0.4299   0.0405   0.7685     H
H       0.4299   0.4595   0.2685     H
O      0.43594   0.6968   0.9217     O
O      0.43594   0.8032   0.4217     O
C       0.4442   0.1057   0.3838     C
C       0.4442   0.3943   0.8838     C
H       0.4457   0.0387   0.2485     H
H       0.4457   0.4613   0.7485     H
H       0.4479   0.1681    0.643     H
H       0.4479   0.3319    0.143     H
C       0.4488   0.2165   0.0576     C
C       0.4488   0.2835   0.5576     C
H       0.4538   0.2148   0.1758     H
H       0.4538   0.2852   0.6758     H
C       0.4605   0.6002   0.0387     C
C       0.4605   0.8998   0.5387     C
H        0.465   0.0778    0.005     H
H        0.465   0.4222    0.505     H
C       0.4661   0.2365    0.642     C
C       0.4661   0.2635    0.142     C
H       0.4674   0.0601   0.0913     H
H       0.4674   0.4399   0.5913     H
C       0.4676    0.206   0.5027     C
C       0.4676    0.294   0.0027     C
C       0.4751   0.6711   0.9844     C
C       0.4751   0.8289   0.4844     C
C       0.4776   0.1077   0.0552     C
C       0.4776   0.3923   0.5552     C
H       0.4815   0.6169   0.4322     H
H       0.4815   0.8831   0.9322     H
H        0.492   0.5214   0.1394     H
H        0.492   0.9786   0.6394     H
H        0.493   0.7279    0.842     H
H        0.493   0.7721    0.342     H
C       0.4982   0.0679   0.3954     C
C       0.4982   0.4321   0.8954     C
C       0.5018   0.5679   0.1046     C
C       0.5018   0.9321   0.6046     C
H        0.507   0.2279    0.658     H
H        0.507   0.2721    0.158     H
H        0.508   0.0214   0.3606     H
H        0.508   0.4786   0.8606     H
H       0.5185   0.1169   0.0678     H
H       0.5185   0.3831   0.5678     H
C       0.5224   0.6077   0.4448     C
C       0.5224   0.8923   0.9448     C
C       0.5249   0.1711   0.5156     C
C       0.5249   0.3289   0.0156     C
C       0.5324    0.706   0.9973     C
C       0.5324    0.794   0.4973     C
H       0.5326   0.5601   0.4087     H
H       0.5326   0.9399   0.9087     H
C       0.5339   0.7365    0.858     C
C       0.5339   0.7635    0.358     C
H        0.535   0.5778    0.495     H
H        0.535   0.9222    0.995     H
C       0.5395   0.1002   0.4613     C
C       0.5395   0.3998   0.9613     C
H       0.5462   0.7148   0.3242     H
H       0.5462   0.7852   0.8242     H
C       0.5512   0.7165   0.4424     C
C       0.5512   0.7835   0.9424     C
H       0.5521   0.6681    0.857     H
H       0.5521   0.8319    0.357     H
H       0.5543   0.5387   0.2515     H
H       0.5543   0.9613   0.7515     H
C       0.5558   0.6057   0.1162     C
C       0.5558   0.8943   0.6162     C
O      0.56406   0.1968   0.5783     O
O      0.56406   0.3032   0.0783     O
H       0.5701   0.5405   0.7315     H
H       0.5701   0.9595   0.2315     H
C       0.5718   0.6732   0.0635     C
C       0.5718   0.8268   0.5635     C
H        0.575   0.0582   0.7097     H
H        0.575   0.4418   0.2097     H
C       0.5863   0.5105    0.234     C
C       0.5863   0.9895    0.734     C
H       0.5872   0.0761   0.2132     H
H       0.5872   0.4239   0.7132     H
H       0.5955   0.0398    0.298     H
H       0.5955   0.4602    0.798     H
H        0.596   0.1005   0.8579     H
H        0.596   0.3995   0.3579     H
C        0.597    0.017    0.248     C
C        0.597   0.0559   0.4716     C
C        0.597   0.4441   0.9716     C
C        0.597    0.483    0.748     C
O      0.60036   0.5829   0.1804     O
O      0.60036   0.9171   0.6804     O
H       0.6011   0.5047   0.9436     H
H       0.6011   0.9953   0.4436     H
H       0.6096   0.6969   0.0729     H
H       0.6096   0.8031   0.5729     H
C       0.6151   0.6975   0.4616     C
C       0.6151   0.8025   0.9616     C
O        0.618   0.1681   0.9921     O
O        0.618   0.3319   0.4921     O
H       0.6242   0.6496   0.4248     H
H       0.6242   0.8504   0.9248     H
H       0.6272   0.6663   0.5114     H
H       0.6272   0.8337   0.0114     H
C       0.6313   0.0688   0.8592     C
C       0.6313   0.4312   0.3592     C
H        0.633   0.6143   0.6524     H
H        0.633   0.8857   0.1524     H
H       0.6346   0.7354   0.9607     H
H       0.6346   0.7646   0.4607     H
C       0.6366   0.0038   0.7993     C
C       0.6366   0.4962   0.2993     C
N       0.6421   0.0944   0.5165     N
N       0.6421   0.4056   0.0165     N
Fe     0.64219  0.23009   0.5844    Fe
Fe     0.64219  0.26991   0.0844    Fe
H       0.6442   0.6773   0.7818     H
H       0.6442   0.8227   0.2818     H
H       0.6494   0.0031    0.135     H
H       0.6494   0.4969    0.635     H
O      0.65612   0.1787   0.1688     O
O      0.65612   0.3213   0.6688     O
C       0.6573   0.5218   0.7498     C
C       0.6573   0.9782   0.2498     C
C       0.6595   0.5566   0.6692     C
C       0.6595   0.9434   0.1692     C
C       0.6678   0.1557   0.9851     C
C       0.6678   0.3443   0.4851     C
H       0.6692    0.603    0.852     H
H       0.6692    0.897    0.352     H
C       0.6713   0.6214   0.8014     C
C       0.6713   0.8786   0.3014     C
C        0.678   0.0875   0.9217     C
C        0.678   0.4125   0.4217     C
C       0.6901   0.5431   0.3046     C
C       0.6901   0.9569   0.8046     C
H       0.6914   0.5314   0.0063     H
H       0.6914   0.9686   0.5063     H
H       0.6937   0.5288   0.1338     H
H       0.6937   0.9712   0.6338     H
H       0.6942   0.5902   0.2666     H
H       0.6942   0.9098   0.7666     H
C       0.6961   0.0385   0.5306     C
C       0.6961   0.4615   0.0306     C
C       0.6972   0.1672   0.2332     C
C       0.6972   0.3328   0.7332     C
H       0.6977   0.5802     0.67     H
H       0.6977   0.9198     0.17     H
C       0.7004   0.0714   0.2762     C
C       0.7004   0.4286   0.7762     C
N       0.7066   0.1306   0.6514     N
N       0.7066   0.3694   0.1514     N
H       0.7094   0.6459   0.8026     H
H       0.7094   0.8541   0.3026     H
O       0.7102   0.1985   0.0321     O
O       0.7102   0.3015   0.5321     O
C       0.7156   0.0271   0.6167     C
C       0.7156   0.4729   0.1167     C
H       0.7239   0.0794   0.5115     H
H       0.7239   0.4206   0.0115     H
C       0.7308   0.0446   0.9227     C
C       0.7308   0.4554   0.4227     C
C        0.737   0.5226   0.3637     C
C        0.737   0.9774   0.8637     C
C       0.7373   0.2487   0.2579     C
C       0.7373   0.2513   0.7579     C
C       0.7403   0.1566   0.7158     C
C       0.7403   0.3434   0.2158     C
C       0.7425   0.0654    0.345     C
C       0.7425   0.4346    0.845     C
H       0.7445   0.0037   0.3744     H
H       0.7445   0.4963   0.8744     H
H       0.7559   0.0077   0.6318     H
H       0.7559   0.4923   0.1318     H
H       0.7624   0.0602   0.9626     H
H       0.7624   0.4398   0.4626     H
H       0.7696   0.1085   0.7367     H
H       0.7696   0.3915   0.2367     H
C       0.7797   0.2386   0.3297     C
C       0.7797   0.2614   0.8297     C
C        0.781   0.1473   0.3709     C
C        0.781   0.3527   0.8709     C
C       0.7934   0.5682   0.3622     C
C       0.7934   0.9318   0.8622     C
O       0.7965   0.6368   0.3141     O
O       0.7965   0.8632   0.8141     O
H       0.8057   0.2063   0.8473     H
H       0.8057   0.2937   0.3473     H
O       0.8193   0.1299   0.4398     O
O       0.8193   0.3701   0.9398     O
H       0.8268   0.2246   0.9801     H
H       0.8268   0.2754   0.4801     H
O       0.8363   0.5264   0.4069     O
O       0.8363   0.9736   0.9069     O
H       0.8405   0.0848   0.5893     H
H       0.8405   0.4152   0.0893     H
C        0.852   0.2176   0.4731     C
C        0.852   0.2824   0.9731     C
Zn     0.85598  0.66886  0.26558    Zn
Zn     0.85598  0.83114  0.76558    Zn
O       0.8608   0.5416   0.1991     O
O       0.8608   0.9584   0.6991     O
H        0.875   0.2431   0.4397     H
H        0.875   0.2569   0.9397     H
C       0.8762   0.1182   0.6007     C
C       0.8762   0.3818   0.1007     C
C       0.8908   0.1866    0.549     C
C       0.8908   0.3134    0.049     C
C       0.8967   0.0244   0.7244     C
C       0.8967   0.4756   0.2244     C
C       0.9148   0.0997   0.6692     C
C       0.9148   0.4003   0.1692     C
Na     0.91802   0.5247   0.3933    Na
Na     0.91802   0.9753   0.8933    Na
O       0.9285   0.0244   0.7891     O
O       0.9285   0.4756   0.2891     O
O       0.9308   0.7347   0.2829     O
O       0.9308   0.7653   0.7829     O
C       0.9447   0.2354   0.5702     C
C       0.9447   0.2646   0.0702     C
O       0.9477   0.6725   0.3945     O
O       0.9477   0.8275   0.8945     O
H       0.9557   0.2187   0.0359     H
H       0.9557   0.2813   0.5359     H
C       0.9581   0.7301   0.3425     C
C       0.9581   0.7699   0.8425     C
C       0.9652   0.1504   0.6875     C
C       0.9652   0.3496   0.1875     C
C       0.9816   0.2185   0.6389     C
C       0.9816   0.2815   0.1389     C
H       0.9899   0.1385   0.7351     H
H       0.9899   0.3615   0.2351     H
