data_I
_chemical_name_common  '/home/zhangsd/repos/MofS-CGCNN/ML/data/SSD/clean_cifs/OXOLAP_SL'
_cell_length_a 28.17470
_cell_length_b 28.17470
_cell_length_c 28.17470
_cell_angle_alpha 60.00000
_cell_angle_beta  60.00000
_cell_angle_gamma 60.00000
_space_group_name_H-M_alt      'P 1'


loop_
_space_group_symop_operation_xyz
  'x, y, z' 

loop_
_atom_site_label
_atom_site_fract_x
_atom_site_fract_y
_atom_site_fract_z
_atom_site_type_symbol
C      0.00505  0.21903  0.30251     C
C      0.00505  0.21903  0.47341     C
C      0.00505  0.30251  0.21903     C
C      0.00505  0.30251  0.47341     C
C      0.00505  0.47341  0.21903     C
C      0.00505  0.47341  0.30251     C
C       0.0074   0.0598   0.4272     C
C       0.0074   0.0598   0.5056     C
C       0.0074   0.4272   0.0598     C
C       0.0074   0.4272   0.5056     C
C       0.0074   0.5056   0.0598     C
C       0.0074   0.5056   0.4272     C
H      0.02714  0.18202  0.33552     H
H      0.02714  0.18202  0.45532     H
H      0.02714  0.33552  0.18202     H
H      0.02714  0.33552  0.45532     H
H      0.02714  0.45532  0.18202     H
H      0.02714  0.45532  0.33552     H
C      0.03158  0.25816  0.25816     C
C      0.03158  0.25816   0.4521     C
C      0.03158   0.4521  0.25816     C
C       0.0598   0.0074   0.4272     C
C       0.0598   0.0074   0.5056     C
C       0.0598   0.4272   0.0074     C
C       0.0598   0.4272   0.5056     C
C       0.0598   0.5056   0.0074     C
C       0.0598   0.5056   0.4272     C
C      0.07988   0.4699   0.4699     C
C      0.07988   0.4699  0.98032     C
C      0.07988  0.98032   0.4699     C
H      0.08313  0.38933  0.53726     H
H      0.08313  0.38933  0.99027     H
H      0.08313  0.53726  0.38933     H
H      0.08313  0.53726  0.99027     H
H      0.08313  0.99027  0.38933     H
H      0.08313  0.99027  0.53726     H
C      0.08893  0.25339  0.25339     C
C      0.08893  0.25339  0.40429     C
C      0.08893  0.40429  0.25339     C
O      0.11141  0.21009  0.29115     O
O      0.11141  0.21009  0.38735     O
O      0.11141  0.29115  0.21009     O
O      0.11141  0.29115  0.38735     O
O      0.11141  0.38735  0.21009     O
O      0.11141  0.38735  0.29115     O
C      0.12812   0.4719   0.4719     C
C      0.12812   0.4719  0.92808     C
C      0.12812  0.92808   0.4719     C
O      0.16267  0.27911  0.27911     O
C      0.16592    0.476    0.476     C
C      0.16592    0.476  0.88208     C
C      0.16592  0.88208    0.476     C
H      0.18202  0.02714  0.33552     H
H      0.18202  0.02714  0.45532     H
H      0.18202  0.33552  0.02714     H
H      0.18202  0.33552  0.45532     H
H      0.18202  0.45532  0.02714     H
H      0.18202  0.45532  0.33552     H
Zr     0.18779  0.18779  0.31221    Zr
Zr     0.18779  0.31221  0.18779    Zr
Zr     0.18779  0.31221  0.31221    Zr
H      0.19083  0.34461  0.53565     H
H      0.19083  0.34461  0.92891     H
H      0.19083  0.53565  0.34461     H
H      0.19083  0.53565  0.92891     H
H      0.19083  0.92891  0.34461     H
H      0.19083  0.92891  0.53565     H
H      0.20353  0.20353  0.20353     H
H      0.20353  0.20353  0.38941     H
H      0.20353  0.38941  0.20353     H
O      0.21009  0.11141  0.29115     O
O      0.21009  0.11141  0.38735     O
O      0.21009  0.29115  0.11141     O
O      0.21009  0.29115  0.38735     O
O      0.21009  0.38735  0.11141     O
O      0.21009  0.38735  0.29115     O
C      0.21072   0.4812   0.4812     C
C      0.21072   0.4812  0.82688     C
C      0.21072  0.82688   0.4812     C
H      0.21274  0.36067  0.66687     H
H      0.21274  0.36067  0.75973     H
H      0.21274  0.66687  0.36067     H
H      0.21274  0.66687  0.75973     H
H      0.21274  0.75973  0.36067     H
H      0.21274  0.75973  0.66687     H
H      0.21435  0.40539  0.55917     H
H      0.21435  0.40539  0.82109     H
H      0.21435  0.55917  0.40539     H
H      0.21435  0.55917  0.82109     H
H      0.21435  0.82109  0.40539     H
H      0.21435  0.82109  0.55917     H
O      0.21741  0.21741  0.21741     O
O      0.21741  0.21741  0.34777     O
O      0.21741  0.34777  0.21741     O
C      0.21903  0.00505  0.30251     C
C      0.21903  0.00505  0.47341     C
C      0.21903  0.30251  0.00505     C
C      0.21903  0.30251  0.47341     C
C      0.21903  0.47341  0.00505     C
C      0.21903  0.47341  0.30251     C
C      0.22408  0.30772  0.51746     C
C      0.22408  0.30772  0.95074     C
C      0.22408  0.51746  0.30772     C
C      0.22408  0.51746  0.95074     C
C      0.22408  0.95074  0.30772     C
C      0.22408  0.95074  0.51746     C
C      0.23254  0.44228  0.52592     C
C      0.23254  0.44228  0.79926     C
C      0.23254  0.52592  0.44228     C
C      0.23254  0.52592  0.79926     C
C      0.23254  0.79926  0.44228     C
C      0.23254  0.79926  0.52592     C
C       0.2444   0.3228   0.6902     C
C       0.2444   0.3228   0.7426     C
C       0.2444   0.6902   0.3228     C
C       0.2444   0.6902   0.7426     C
C       0.2444   0.7426   0.3228     C
C       0.2444   0.7426   0.6902     C
C      0.25339  0.08893  0.25339     C
C      0.25339  0.08893  0.40429     C
C      0.25339  0.25339  0.08893     C
C      0.25339  0.25339  0.40429     C
C      0.25339  0.40429  0.08893     C
C      0.25339  0.40429  0.25339     C
C      0.25816  0.03158  0.25816     C
C      0.25816  0.03158   0.4521     C
C      0.25816  0.25816  0.03158     C
C      0.25816  0.25816   0.4521     C
C      0.25816   0.4521  0.03158     C
C      0.25816   0.4521  0.25816     C
C       0.2688   0.2688  0.53928     C
C       0.2688   0.2688  0.92312     C
C       0.2688  0.53928   0.2688     C
C       0.2688  0.53928  0.92312     C
C       0.2688  0.92312   0.2688     C
C       0.2688  0.92312  0.53928     C
C        0.274    0.274  0.58408     C
C        0.274    0.274  0.86792     C
C        0.274  0.58408    0.274     C
C        0.274  0.58408  0.86792     C
C        0.274  0.86792    0.274     C
C        0.274  0.86792  0.58408     C
C      0.27659  0.44749  0.53097     C
C      0.27659  0.44749  0.74495     C
C      0.27659  0.53097  0.44749     C
C      0.27659  0.53097  0.74495     C
C      0.27659  0.74495  0.44749     C
C      0.27659  0.74495  0.53097     C
C       0.2781   0.2781  0.62188     C
C       0.2781   0.2781  0.82192     C
C       0.2781  0.62188   0.2781     C
C       0.2781  0.62188  0.82192     C
C       0.2781  0.82192   0.2781     C
C       0.2781  0.82192  0.62188     C
O      0.27911  0.16267  0.27911     O
O      0.27911  0.27911  0.16267     O
O      0.27911  0.27911  0.27911     O
C       0.2801   0.2801  0.67012     C
C       0.2801   0.2801  0.76968     C
C       0.2801  0.67012   0.2801     C
C       0.2801  0.67012  0.76968     C
C       0.2801  0.76968   0.2801     C
C       0.2801  0.76968  0.67012     C
O      0.29115  0.11141  0.21009     O
O      0.29115  0.11141  0.38735     O
O      0.29115  0.21009  0.11141     O
O      0.29115  0.21009  0.38735     O
O      0.29115  0.38735  0.11141     O
O      0.29115  0.38735  0.21009     O
H      0.29468  0.41448  0.56798     H
H      0.29468  0.41448  0.72286     H
H      0.29468  0.56798  0.41448     H
H      0.29468  0.56798  0.72286     H
H      0.29468  0.72286  0.41448     H
H      0.29468  0.72286  0.56798     H
C       0.2979  0.49184  0.49184     C
C       0.2979  0.49184  0.71842     C
C       0.2979  0.71842  0.49184     C
C      0.30251  0.00505  0.21903     C
C      0.30251  0.00505  0.47341     C
C      0.30251  0.21903  0.00505     C
C      0.30251  0.21903  0.47341     C
C      0.30251  0.47341  0.00505     C
C      0.30251  0.47341  0.21903     C
C      0.30772  0.22408  0.51746     C
C      0.30772  0.22408  0.95074     C
C      0.30772  0.51746  0.22408     C
C      0.30772  0.51746  0.95074     C
C      0.30772  0.95074  0.22408     C
C      0.30772  0.95074  0.51746     C
Zr     0.31221  0.18779  0.18779    Zr
Zr     0.31221  0.18779  0.31221    Zr
Zr     0.31221  0.31221  0.18779    Zr
C       0.3228   0.2444   0.6902     C
C       0.3228   0.2444   0.7426     C
C       0.3228   0.6902   0.2444     C
C       0.3228   0.6902   0.7426     C
C       0.3228   0.7426   0.2444     C
C       0.3228   0.7426   0.6902     C
H      0.33552  0.02714  0.18202     H
H      0.33552  0.02714  0.45532     H
H      0.33552  0.18202  0.02714     H
H      0.33552  0.18202  0.45532     H
H      0.33552  0.45532  0.02714     H
H      0.33552  0.45532  0.18202     H
H      0.34461  0.19083  0.53565     H
H      0.34461  0.19083  0.92891     H
H      0.34461  0.53565  0.19083     H
H      0.34461  0.53565  0.92891     H
H      0.34461  0.92891  0.19083     H
H      0.34461  0.92891  0.53565     H
C      0.34571  0.49661  0.49661     C
C      0.34571  0.49661  0.66107     C
C      0.34571  0.66107  0.49661     C
O      0.34777  0.21741  0.21741     O
H      0.36067  0.21274  0.66687     H
H      0.36067  0.21274  0.75973     H
H      0.36067  0.66687  0.21274     H
H      0.36067  0.66687  0.75973     H
H      0.36067  0.75973  0.21274     H
H      0.36067  0.75973  0.66687     H
O      0.36265  0.45885  0.53991     O
O      0.36265  0.45885  0.63859     O
O      0.36265  0.53991  0.45885     O
O      0.36265  0.53991  0.63859     O
O      0.36265  0.63859  0.45885     O
O      0.36265  0.63859  0.53991     O
H      0.36734  0.54422  0.54422     H
O      0.38735  0.11141  0.21009     O
O      0.38735  0.11141  0.29115     O
O      0.38735  0.21009  0.11141     O
O      0.38735  0.21009  0.29115     O
O      0.38735  0.29115  0.11141     O
O      0.38735  0.29115  0.21009     O
H      0.38933  0.08313  0.53726     H
H      0.38933  0.08313  0.99027     H
H      0.38933  0.53726  0.08313     H
H      0.38933  0.53726  0.99027     H
H      0.38933  0.99027  0.08313     H
H      0.38933  0.99027  0.53726     H
H      0.38941  0.20353  0.20353     H
O      0.40223  0.53259  0.53259     O
C      0.40429  0.08893  0.25339     C
C      0.40429  0.25339  0.08893     C
C      0.40429  0.25339  0.25339     C
H      0.40539  0.21435  0.55917     H
H      0.40539  0.21435  0.82109     H
H      0.40539  0.55917  0.21435     H
H      0.40539  0.55917  0.82109     H
H      0.40539  0.82109  0.21435     H
H      0.40539  0.82109  0.55917     H
H      0.41448  0.29468  0.56798     H
H      0.41448  0.29468  0.72286     H
H      0.41448  0.56798  0.29468     H
H      0.41448  0.56798  0.72286     H
H      0.41448  0.72286  0.29468     H
H      0.41448  0.72286  0.56798     H
C       0.4272   0.0074   0.0598     C
C       0.4272   0.0074   0.5056     C
C       0.4272   0.0598   0.0074     C
C       0.4272   0.0598   0.5056     C
C       0.4272   0.5056   0.0074     C
C       0.4272   0.5056   0.0598     C
Zr     0.43779  0.43779  0.56221    Zr
Zr     0.43779  0.56221  0.43779    Zr
Zr     0.43779  0.56221  0.56221    Zr
C      0.44228  0.23254  0.52592     C
C      0.44228  0.23254  0.79926     C
C      0.44228  0.52592  0.23254     C
C      0.44228  0.52592  0.79926     C
C      0.44228  0.79926  0.23254     C
C      0.44228  0.79926  0.52592     C
C      0.44749  0.27659  0.53097     C
C      0.44749  0.27659  0.74495     C
C      0.44749  0.53097  0.27659     C
C      0.44749  0.53097  0.74495     C
C      0.44749  0.74495  0.27659     C
C      0.44749  0.74495  0.53097     C
C       0.4521  0.03158  0.25816     C
C       0.4521  0.25816  0.03158     C
C       0.4521  0.25816  0.25816     C
H      0.45532  0.02714  0.18202     H
H      0.45532  0.02714  0.33552     H
H      0.45532  0.18202  0.02714     H
H      0.45532  0.18202  0.33552     H
H      0.45532  0.33552  0.02714     H
H      0.45532  0.33552  0.18202     H
O      0.45885  0.36265  0.53991     O
O      0.45885  0.36265  0.63859     O
O      0.45885  0.53991  0.36265     O
O      0.45885  0.53991  0.63859     O
O      0.45885  0.63859  0.36265     O
O      0.45885  0.63859  0.53991     O
C       0.4699  0.07988   0.4699     C
C       0.4699  0.07988  0.98032     C
C       0.4699   0.4699  0.07988     C
C       0.4699   0.4699  0.98032     C
C       0.4699  0.98032  0.07988     C
C       0.4699  0.98032   0.4699     C
O      0.47089  0.47089  0.47089     O
O      0.47089  0.47089  0.58733     O
O      0.47089  0.58733  0.47089     O
C       0.4719  0.12812   0.4719     C
C       0.4719  0.12812  0.92808     C
C       0.4719   0.4719  0.12812     C
C       0.4719   0.4719  0.92808     C
C       0.4719  0.92808  0.12812     C
C       0.4719  0.92808   0.4719     C
C      0.47341  0.00505  0.21903     C
C      0.47341  0.00505  0.30251     C
C      0.47341  0.21903  0.00505     C
C      0.47341  0.21903  0.30251     C
C      0.47341  0.30251  0.00505     C
C      0.47341  0.30251  0.21903     C
C        0.476  0.16592    0.476     C
C        0.476  0.16592  0.88208     C
C        0.476    0.476  0.16592     C
C        0.476    0.476  0.88208     C
C        0.476  0.88208  0.16592     C
C        0.476  0.88208    0.476     C
C       0.4812  0.21072   0.4812     C
C       0.4812  0.21072  0.82688     C
C       0.4812   0.4812  0.21072     C
C       0.4812   0.4812  0.82688     C
C       0.4812  0.82688  0.21072     C
C       0.4812  0.82688   0.4812     C
C      0.49184   0.2979  0.49184     C
C      0.49184   0.2979  0.71842     C
C      0.49184  0.49184   0.2979     C
C      0.49184  0.49184  0.71842     C
C      0.49184  0.71842   0.2979     C
C      0.49184  0.71842  0.49184     C
C      0.49661  0.34571  0.49661     C
C      0.49661  0.34571  0.66107     C
C      0.49661  0.49661  0.34571     C
C      0.49661  0.49661  0.66107     C
C      0.49661  0.66107  0.34571     C
C      0.49661  0.66107  0.49661     C
C       0.5056   0.0074   0.0598     C
C       0.5056   0.0074   0.4272     C
C       0.5056   0.0598   0.0074     C
C       0.5056   0.0598   0.4272     C
C       0.5056   0.4272   0.0074     C
C       0.5056   0.4272   0.0598     C
C      0.51746  0.22408  0.30772     C
C      0.51746  0.22408  0.95074     C
C      0.51746  0.30772  0.22408     C
C      0.51746  0.30772  0.95074     C
C      0.51746  0.95074  0.22408     C
C      0.51746  0.95074  0.30772     C
C      0.52592  0.23254  0.44228     C
C      0.52592  0.23254  0.79926     C
C      0.52592  0.44228  0.23254     C
C      0.52592  0.44228  0.79926     C
C      0.52592  0.79926  0.23254     C
C      0.52592  0.79926  0.44228     C
C      0.53097  0.27659  0.44749     C
C      0.53097  0.27659  0.74495     C
C      0.53097  0.44749  0.27659     C
C      0.53097  0.44749  0.74495     C
C      0.53097  0.74495  0.27659     C
C      0.53097  0.74495  0.44749     C
O      0.53259  0.40223  0.53259     O
O      0.53259  0.53259  0.40223     O
O      0.53259  0.53259  0.53259     O
H      0.53565  0.19083  0.34461     H
H      0.53565  0.19083  0.92891     H
H      0.53565  0.34461  0.19083     H
H      0.53565  0.34461  0.92891     H
H      0.53565  0.92891  0.19083     H
H      0.53565  0.92891  0.34461     H
H      0.53726  0.08313  0.38933     H
H      0.53726  0.08313  0.99027     H
H      0.53726  0.38933  0.08313     H
H      0.53726  0.38933  0.99027     H
H      0.53726  0.99027  0.08313     H
H      0.53726  0.99027  0.38933     H
C      0.53928   0.2688   0.2688     C
C      0.53928   0.2688  0.92312     C
C      0.53928  0.92312   0.2688     C
O      0.53991  0.36265  0.45885     O
O      0.53991  0.36265  0.63859     O
O      0.53991  0.45885  0.36265     O
O      0.53991  0.45885  0.63859     O
O      0.53991  0.63859  0.36265     O
O      0.53991  0.63859  0.45885     O
H      0.54422  0.36734  0.54422     H
H      0.54422  0.54422  0.36734     H
H      0.54422  0.54422  0.54422     H
H      0.55917  0.21435  0.40539     H
H      0.55917  0.21435  0.82109     H
H      0.55917  0.40539  0.21435     H
H      0.55917  0.40539  0.82109     H
H      0.55917  0.82109  0.21435     H
H      0.55917  0.82109  0.40539     H
Zr     0.56221  0.43779  0.43779    Zr
Zr     0.56221  0.43779  0.56221    Zr
Zr     0.56221  0.56221  0.43779    Zr
H      0.56798  0.29468  0.41448     H
H      0.56798  0.29468  0.72286     H
H      0.56798  0.41448  0.29468     H
H      0.56798  0.41448  0.72286     H
H      0.56798  0.72286  0.29468     H
H      0.56798  0.72286  0.41448     H
C      0.58408    0.274    0.274     C
C      0.58408    0.274  0.86792     C
C      0.58408  0.86792    0.274     C
O      0.58733  0.47089  0.47089     O
C      0.62188   0.2781   0.2781     C
C      0.62188   0.2781  0.82192     C
C      0.62188  0.82192   0.2781     C
O      0.63859  0.36265  0.45885     O
O      0.63859  0.36265  0.53991     O
O      0.63859  0.45885  0.36265     O
O      0.63859  0.45885  0.53991     O
O      0.63859  0.53991  0.36265     O
O      0.63859  0.53991  0.45885     O
C      0.66107  0.34571  0.49661     C
C      0.66107  0.49661  0.34571     C
C      0.66107  0.49661  0.49661     C
H      0.66687  0.21274  0.36067     H
H      0.66687  0.21274  0.75973     H
H      0.66687  0.36067  0.21274     H
H      0.66687  0.36067  0.75973     H
H      0.66687  0.75973  0.21274     H
H      0.66687  0.75973  0.36067     H
C      0.67012   0.2801   0.2801     C
C      0.67012   0.2801  0.76968     C
C      0.67012  0.76968   0.2801     C
C       0.6902   0.2444   0.3228     C
C       0.6902   0.2444   0.7426     C
C       0.6902   0.3228   0.2444     C
C       0.6902   0.3228   0.7426     C
C       0.6902   0.7426   0.2444     C
C       0.6902   0.7426   0.3228     C
C      0.71842   0.2979  0.49184     C
C      0.71842  0.49184   0.2979     C
C      0.71842  0.49184  0.49184     C
H      0.72286  0.29468  0.41448     H
H      0.72286  0.29468  0.56798     H
H      0.72286  0.41448  0.29468     H
H      0.72286  0.41448  0.56798     H
H      0.72286  0.56798  0.29468     H
H      0.72286  0.56798  0.41448     H
C       0.7426   0.2444   0.3228     C
C       0.7426   0.2444   0.6902     C
C       0.7426   0.3228   0.2444     C
C       0.7426   0.3228   0.6902     C
C       0.7426   0.6902   0.2444     C
C       0.7426   0.6902   0.3228     C
C      0.74495  0.27659  0.44749     C
C      0.74495  0.27659  0.53097     C
C      0.74495  0.44749  0.27659     C
C      0.74495  0.44749  0.53097     C
C      0.74495  0.53097  0.27659     C
C      0.74495  0.53097  0.44749     C
H      0.75973  0.21274  0.36067     H
H      0.75973  0.21274  0.66687     H
H      0.75973  0.36067  0.21274     H
H      0.75973  0.36067  0.66687     H
H      0.75973  0.66687  0.21274     H
H      0.75973  0.66687  0.36067     H
C      0.76968   0.2801   0.2801     C
C      0.76968   0.2801  0.67012     C
C      0.76968  0.67012   0.2801     C
C      0.79926  0.23254  0.44228     C
C      0.79926  0.23254  0.52592     C
C      0.79926  0.44228  0.23254     C
C      0.79926  0.44228  0.52592     C
C      0.79926  0.52592  0.23254     C
C      0.79926  0.52592  0.44228     C
H      0.82109  0.21435  0.40539     H
H      0.82109  0.21435  0.55917     H
H      0.82109  0.40539  0.21435     H
H      0.82109  0.40539  0.55917     H
H      0.82109  0.55917  0.21435     H
H      0.82109  0.55917  0.40539     H
C      0.82192   0.2781   0.2781     C
C      0.82192   0.2781  0.62188     C
C      0.82192  0.62188   0.2781     C
C      0.82688  0.21072   0.4812     C
C      0.82688   0.4812  0.21072     C
C      0.82688   0.4812   0.4812     C
C      0.86792    0.274    0.274     C
C      0.86792    0.274  0.58408     C
C      0.86792  0.58408    0.274     C
C      0.88208  0.16592    0.476     C
C      0.88208    0.476  0.16592     C
C      0.88208    0.476    0.476     C
C      0.92312   0.2688   0.2688     C
C      0.92312   0.2688  0.53928     C
C      0.92312  0.53928   0.2688     C
C      0.92808  0.12812   0.4719     C
C      0.92808   0.4719  0.12812     C
C      0.92808   0.4719   0.4719     C
H      0.92891  0.19083  0.34461     H
H      0.92891  0.19083  0.53565     H
H      0.92891  0.34461  0.19083     H
H      0.92891  0.34461  0.53565     H
H      0.92891  0.53565  0.19083     H
H      0.92891  0.53565  0.34461     H
C      0.95074  0.22408  0.30772     C
C      0.95074  0.22408  0.51746     C
C      0.95074  0.30772  0.22408     C
C      0.95074  0.30772  0.51746     C
C      0.95074  0.51746  0.22408     C
C      0.95074  0.51746  0.30772     C
C      0.98032  0.07988   0.4699     C
C      0.98032   0.4699  0.07988     C
C      0.98032   0.4699   0.4699     C
H      0.99027  0.08313  0.38933     H
H      0.99027  0.08313  0.53726     H
H      0.99027  0.38933  0.08313     H
H      0.99027  0.38933  0.53726     H
H      0.99027  0.53726  0.08313     H
H      0.99027  0.53726  0.38933     H
