data_I
_chemical_name_common  '/home/zhangsd/repos/MofS-CGCNN/ML/data/SSD/clean_cifs/OZUKUR_clean'
_cell_length_a 26.29030
_cell_length_b 26.29030
_cell_length_c  7.06760
_cell_angle_alpha 90.00000
_cell_angle_beta  90.00000
_cell_angle_gamma 120.00000
_space_group_name_H-M_alt      'P 1'


loop_
_space_group_symop_operation_xyz
  'x, y, z' 

loop_
_atom_site_label
_atom_site_fract_x
_atom_site_fract_y
_atom_site_fract_z
_atom_site_type_symbol
O       0.0067   0.6353      0.8     O
C       0.0069   0.5452    0.895     C
C       0.0098   0.4559    0.913     C
C       0.0128   0.5917    0.758     C
C       0.0157    0.503   0.8106     C
Mn     0.01763  0.71417  0.69367    Mn
O       0.0223   0.4147    0.855     O
H      0.02743   0.5025  0.66276     H
Mn     0.02987  0.64903  0.36033    Mn
O       0.0303   0.5923    0.592     O
O      0.03137  0.70473  0.13333     O
O      0.03807  0.34003  0.53333     O
Mn      0.0475   0.3632    0.973    Mn
O      0.05907  0.31103  0.18833     O
O      0.07437  0.77133  0.92533     O
C      0.07497  0.75443  0.09133     C
O      0.08137  0.72573  0.47833     O
C      0.08777  0.34613  0.57533     C
O      0.10467  0.36363  0.74133     O
C      0.11277  0.32353  0.24633     C
C      0.12147  0.79503  0.22833     C
C      0.12257  0.77943  0.42033     C
C      0.12837  0.34023  0.43833     C
H      0.14174   0.3059  0.99609     H
C      0.15397  0.31763  0.14393     C
C      0.16367  0.84603  0.14393     C
H      0.16417  0.85826  0.99609     H
H      0.16917   0.8084  0.67057     H
C      0.16967  0.82063  0.52273     C
C      0.17937  0.34903  0.52273     C
H       0.1916  0.36076  0.67057     H
C      0.20497  0.32643  0.22833     C
C      0.21077  0.88723  0.24633     C
C      0.21187  0.87163  0.43833     C
C      0.22057  0.34313  0.42033     C
O      0.22867  0.30303  0.92533     O
C      0.24557  0.32053  0.09133     C
O      0.25197  0.94093  0.18833     O
C      0.25837  0.91223  0.57533     C
O      0.25897  0.89533  0.74133     O
O      0.27427  0.35563  0.47833     O
Mn     0.28583  0.30347  0.69367    Mn
O      0.29527  0.32663  0.13333     O
O      0.30197  0.96193  0.53333     O
O      0.30303  0.07437  0.07467     O
Mn     0.30347  0.01763  0.30633    Mn
H       0.3059  0.16417  0.00391     H
O      0.31103  0.25197  0.81167     O
Mn      0.3157   0.9525    0.973    Mn
C      0.31763  0.16367  0.85607     C
C      0.32053  0.07497  0.90867     C
C      0.32353  0.21077  0.75367     C
C      0.32643  0.12147  0.77167     C
O      0.32663  0.03137  0.86667     O
O      0.34003  0.30197  0.46667     O
C      0.34023  0.21187  0.56167     C
C      0.34313  0.12257  0.57967     C
C      0.34613  0.25837  0.42467     C
C      0.34903  0.16967  0.47727     C
Mn     0.35097  0.38083  0.36033    Mn
O      0.35563  0.08137  0.52167     O
H      0.36076  0.16917  0.32943     H
Mn      0.3632   0.3157    0.027    Mn
O      0.36363  0.25897  0.25867     O
O       0.3647   0.3714      0.8     O
O       0.3714   0.0067      0.2     O
Mn     0.38083  0.02987  0.63967    Mn
O       0.3924   0.9777    0.855     O
O       0.4077    0.438    0.592     O
C       0.4083   0.4211    0.758     C
O       0.4147   0.3924    0.145     O
C       0.4211   0.0128    0.242     C
O        0.438   0.0303    0.408     O
C       0.4461   0.9902    0.913     C
C       0.4548   0.4617    0.895     C
C       0.4559   0.4461    0.087     C
C       0.4617   0.0069    0.105     C
H      0.47507  0.97257  0.66276     H
C       0.4873   0.9843   0.8106     C
C        0.497   0.5127   0.8106     C
H       0.4975  0.52493  0.66276     H
H       0.5025  0.47507  0.33724     H
C        0.503   0.4873   0.1894     C
C       0.5127   0.0157   0.1894     C
H      0.52493  0.02743  0.33724     H
C       0.5383   0.9931    0.895     C
C       0.5441   0.5539    0.913     C
C       0.5452   0.5383    0.105     C
C       0.5539   0.0098    0.087     C
O        0.562   0.9697    0.592     O
C       0.5789   0.9872    0.758     C
O       0.5853   0.6076    0.855     O
C       0.5917   0.5789    0.242     C
O       0.5923    0.562    0.408     O
O       0.6076   0.0223    0.145     O
Mn     0.61917  0.97013  0.36033    Mn
O       0.6286   0.9933      0.8     O
O       0.6353   0.6286      0.2     O
O      0.63637  0.74103  0.74133     O
Mn      0.6368   0.6843    0.973    Mn
H      0.63924  0.83083  0.67057     H
O      0.64437  0.91863  0.47833     O
Mn     0.64903  0.61917  0.63967    Mn
C      0.65097  0.83033  0.52273     C
C      0.65387  0.74163  0.57533     C
C      0.65687  0.87743  0.42033     C
C      0.65977  0.78813  0.43833     C
O      0.65997  0.69803  0.53333     O
O      0.67337  0.96863  0.13333     O
C      0.67357  0.87853  0.22833     C
C      0.67647  0.78923  0.24633     C
C      0.67947  0.92503  0.09133     C
C      0.68237  0.83633  0.14393     C
Mn      0.6843   0.0475    0.027    Mn
O      0.68897  0.74803  0.18833     O
H       0.6941  0.83583  0.99609     H
Mn     0.69653  0.98237  0.69367    Mn
O      0.69697  0.92563  0.92533     O
O      0.69803  0.03807  0.46667     O
O      0.70473  0.67337  0.86667     O
Mn     0.71417  0.69653  0.30633    Mn
O      0.72573  0.64437  0.52167     O
O      0.74103  0.10467  0.25867     O
C      0.74163  0.08777  0.42467     C
O      0.74803  0.05907  0.81167     O
C      0.75443  0.67947  0.90867     C
O      0.77133  0.69697  0.07467     O
C      0.77943  0.65687  0.57967     C
C      0.78813  0.12837  0.56167     C
C      0.78923  0.11277  0.75367     C
C      0.79503  0.67357  0.77167     C
H       0.8084  0.63924  0.32943     H
C      0.82063  0.65097  0.47727     C
C      0.83033  0.17937  0.47727     C
H      0.83083   0.1916  0.32943     H
H      0.83583  0.14174  0.00391     H
C      0.83633  0.15397  0.85607     C
C      0.84603  0.68237  0.85607     C
H      0.85826   0.6941  0.00391     H
C      0.87163  0.65977  0.56167     C
C      0.87743  0.22057  0.57967     C
C      0.87853  0.20497  0.77167     C
C      0.88723  0.67647  0.75367     C
O      0.89533  0.63637  0.25867     O
C      0.91223  0.65387  0.42467     C
O      0.91863  0.27427  0.52167     O
C      0.92503  0.24557  0.90867     C
O      0.92563  0.22867  0.07467     O
O      0.94093  0.68897  0.81167     O
Mn      0.9525   0.6368    0.027    Mn
O      0.96193  0.65997  0.46667     O
O      0.96863  0.29527  0.86667     O
O       0.9697   0.4077    0.408     O
Mn     0.97013  0.35097  0.63967    Mn
H      0.97257   0.4975  0.33724     H
O       0.9777   0.5853    0.145     O
Mn     0.98237  0.28583  0.30633    Mn
C       0.9843    0.497   0.1894     C
C       0.9872   0.4083    0.242     C
C       0.9902   0.5441    0.087     C
C       0.9931   0.4548    0.105     C
O       0.9933   0.3647      0.2     O
