data_I
_chemical_name_common  '/home/zhangsd/repos/MofS-CGCNN/ML/data/SSD/clean_cifs/OZULAY_clean'
_cell_length_a 26.29780
_cell_length_b 26.29780
_cell_length_c  7.07410
_cell_angle_alpha 90.00000
_cell_angle_beta  90.00000
_cell_angle_gamma 120.00000
_space_group_name_H-M_alt      'P 1'


loop_
_space_group_symop_operation_xyz
  'x, y, z' 

loop_
_atom_site_label
_atom_site_fract_x
_atom_site_fract_y
_atom_site_fract_z
_atom_site_type_symbol
C        0.007   0.4567    0.932     C
C       0.0071   0.5455    0.874     C
O       0.0087   0.6335    0.789     O
C       0.0125   0.5902    0.755     C
C       0.0182    0.502    0.807     C
Mn     0.02103  0.71587  0.68467    Mn
O       0.0236   0.4197    0.859     O
H      0.02743   0.5025  0.66276     H
Mn     0.02817  0.64563  0.35133    Mn
O       0.0326    0.593    0.581     O
O      0.03317  0.70853  0.12233     O
O      0.04187  0.34203  0.54433     O
Mn      0.0492   0.3615    0.982    Mn
O      0.06277  0.30973  0.19233     O
O      0.07367  0.77293  0.91433     O
C      0.07647  0.75563  0.08833     C
O      0.08637  0.72943  0.47433     O
C      0.08897  0.34583  0.57833     C
O      0.10627  0.36593  0.75233     O
C      0.11637  0.32633  0.26533     C
C      0.12117  0.79493  0.20733     C
C      0.12337  0.78303  0.40133     C
C      0.12827  0.34043  0.45933     C
H      0.14174   0.3059  0.99609     H
C      0.15047  0.31513  0.14033     C
H      0.16417  0.85826  0.99609     H
C      0.16467  0.84953  0.14033     C
C      0.16867  0.81713  0.52633     C
H      0.16917   0.8084  0.67057     H
C      0.18287  0.35153  0.52633     C
H       0.1916  0.36076  0.67057     H
C      0.20507  0.32623  0.20733     C
C      0.20997  0.88363  0.26533     C
C      0.21217  0.87173  0.45933     C
C      0.21697  0.34033  0.40133     C
O      0.22707  0.30073  0.91433     O
C      0.24437  0.32083  0.08833     C
O      0.24697  0.93723  0.19233     O
C      0.25687  0.91103  0.57833     C
O      0.25967  0.89373  0.75233     O
O      0.27057  0.35693  0.47433     O
Mn     0.28413  0.30517  0.68467    Mn
O      0.29147  0.32463  0.12233     O
O      0.30017  0.95813  0.54433     O
O      0.30073  0.07367  0.08567     O
Mn     0.30517  0.02103  0.31533    Mn
H       0.3059  0.16417  0.00391     H
O      0.30973  0.24697  0.80767     O
Mn      0.3123   0.9508    0.982    Mn
C      0.31513  0.16467  0.85967     C
C      0.32083  0.07647  0.91167     C
O      0.32463  0.03317  0.87767     O
C      0.32623  0.12117  0.79267     C
C      0.32633  0.20997  0.73467     C
C      0.34033  0.12337  0.59867     C
C      0.34043  0.21217  0.54067     C
O      0.34203  0.30017  0.45567     O
C      0.34583  0.25687  0.42167     C
C      0.35153  0.16867  0.47367     C
Mn     0.35437  0.38253  0.35133    Mn
O      0.35693  0.08637  0.52567     O
H      0.36076  0.16917  0.32943     H
Mn      0.3615   0.3123    0.018    Mn
O      0.36593  0.25967  0.24767     O
O       0.3665   0.3752    0.789     O
O       0.3752   0.0087    0.211     O
Mn     0.38253  0.02817  0.64867    Mn
O       0.3961   0.9764    0.859     O
O        0.407   0.4396    0.581     O
C       0.4098   0.4223    0.755     C
O       0.4197   0.3961    0.141     O
C       0.4223   0.0125    0.245     C
O       0.4396   0.0326    0.419     O
C       0.4497    0.993    0.932     C
C       0.4545   0.4616    0.874     C
C       0.4567   0.4497    0.068     C
C       0.4616   0.0071    0.126     C
H      0.47507  0.97257  0.66276     H
C       0.4838   0.9818    0.807     C
H       0.4975  0.52493  0.66276     H
C        0.498   0.5162    0.807     C
C        0.502   0.4838    0.193     C
H       0.5025  0.47507  0.33724     H
C       0.5162   0.0182    0.193     C
H      0.52493  0.02743  0.33724     H
C       0.5384   0.9929    0.874     C
C       0.5433   0.5503    0.932     C
C       0.5455   0.5384    0.126     C
C       0.5503    0.007    0.068     C
O       0.5604   0.9674    0.581     O
C       0.5777   0.9875    0.755     C
O       0.5803   0.6039    0.859     O
C       0.5902   0.5777    0.245     C
O        0.593   0.5604    0.419     O
O       0.6039   0.0236    0.141     O
Mn     0.61747  0.97183  0.35133    Mn
O       0.6248   0.9913    0.789     O
O       0.6335   0.6248    0.211     O
O      0.63407  0.74033  0.75233     O
Mn      0.6385   0.6877    0.982    Mn
H      0.63924  0.83083  0.67057     H
O      0.64307  0.91363  0.47433     O
Mn     0.64563  0.61747  0.64867    Mn
C      0.64847  0.83133  0.52633     C
C      0.65417  0.74313  0.57833     C
O      0.65797  0.69983  0.54433     O
C      0.65957  0.78783  0.45933     C
C      0.65967  0.87663  0.40133     C
C      0.67367  0.79003  0.26533     C
C      0.67377  0.87883  0.20733     C
O      0.67537  0.96683  0.12233     O
C      0.67917  0.92353  0.08833     C
C      0.68487  0.83533  0.14033     C
Mn      0.6877   0.0492    0.018    Mn
O      0.69027  0.75303  0.19233     O
H       0.6941  0.83583  0.99609     H
Mn     0.69483  0.97897  0.68467    Mn
O      0.69927  0.92633  0.91433     O
O      0.69983  0.04187  0.45567     O
O      0.70853  0.67537  0.87767     O
Mn     0.71587  0.69483  0.31533    Mn
O      0.72943  0.64307  0.52567     O
O      0.74033  0.10627  0.24767     O
C      0.74313  0.08897  0.42167     C
O      0.75303  0.06277  0.80767     O
C      0.75563  0.67917  0.91167     C
O      0.77293  0.69927  0.08567     O
C      0.78303  0.65967  0.59867     C
C      0.78783  0.12827  0.54067     C
C      0.79003  0.11637  0.73467     C
C      0.79493  0.67377  0.79267     C
H       0.8084  0.63924  0.32943     H
C      0.81713  0.64847  0.47367     C
H      0.83083   0.1916  0.32943     H
C      0.83133  0.18287  0.47367     C
C      0.83533  0.15047  0.85967     C
H      0.83583  0.14174  0.00391     H
C      0.84953  0.68487  0.85967     C
H      0.85826   0.6941  0.00391     H
C      0.87173  0.65957  0.54067     C
C      0.87663  0.21697  0.59867     C
C      0.87883  0.20507  0.79267     C
C      0.88363  0.67367  0.73467     C
O      0.89373  0.63407  0.24767     O
C      0.91103  0.65417  0.42167     C
O      0.91363  0.27057  0.52567     O
C      0.92353  0.24437  0.91167     C
O      0.92633  0.22707  0.08567     O
O      0.93723  0.69027  0.80767     O
Mn      0.9508   0.6385    0.018    Mn
O      0.95813  0.65797  0.45567     O
O      0.96683  0.29147  0.87767     O
O       0.9674    0.407    0.419     O
Mn     0.97183  0.35437  0.64867    Mn
H      0.97257   0.4975  0.33724     H
O       0.9764   0.5803    0.141     O
Mn     0.97897  0.28413  0.31533    Mn
C       0.9818    0.498    0.193     C
C       0.9875   0.4098    0.245     C
O       0.9913   0.3665    0.211     O
C       0.9929   0.4545    0.126     C
C        0.993   0.5433    0.068     C
