data_I
_chemical_name_common  '/home/zhangsd/repos/MofS-CGCNN/ML/data/SSD/clean_cifs/PACGIM_clean'
_cell_length_a 24.86120
_cell_length_b 24.86120
_cell_length_c 28.26000
_cell_angle_alpha 90.00000
_cell_angle_beta  90.00000
_cell_angle_gamma 120.00000
_space_group_name_H-M_alt      'P 1'


loop_
_space_group_symop_operation_xyz
  'x, y, z' 

loop_
_atom_site_label
_atom_site_fract_x
_atom_site_fract_y
_atom_site_fract_z
_atom_site_type_symbol
Th         0.0      0.0  0.15444    Th
Th         0.0      0.0  0.34556    Th
Th         0.0      0.0  0.65444    Th
Th         0.0      0.0  0.84556    Th
C          0.0  0.08953     0.25     C
C          0.0  0.14983     0.25     C
C          0.0  0.26285     0.25     C
N          0.0  0.32053     0.25     N
N          0.0  0.67947     0.75     N
C          0.0  0.73715     0.75     C
C          0.0  0.85017     0.75     C
C          0.0  0.91047     0.75     C
C      0.00964  0.11899  0.87456     C
C      0.00964  0.89064  0.37456     C
C      0.01182  0.17923  0.88405     C
C      0.01182  0.83258  0.38405     C
N       0.0128  0.34614  0.91667     N
N       0.0128  0.66667  0.41667     N
C      0.01319  0.29095  0.90487     C
C      0.01319  0.72223  0.40487     C
H      0.01467  0.41963  0.29503     H
H      0.01467  0.59503  0.79503     H
H       0.0162   0.4489   0.5975     H
H       0.0162   0.5673   0.0975     H
C      0.01786  0.24351  0.29019     C
C      0.01786  0.77434  0.79019     C
C      0.01831  0.18755  0.29041     C
C      0.01831  0.83075  0.79041     C
O      0.02256  0.07734  0.28567     O
O      0.02256  0.94521  0.78567     O
H      0.02987  0.26863  0.31783     H
H      0.02987  0.76123  0.81783     H
H      0.03107  0.17503  0.31803     H
H      0.03107  0.85603  0.81803     H
C       0.0376  0.27982  0.61889     C
C       0.0376  0.75779  0.11889     C
C      0.03802  0.22495  0.62859     C
C      0.03802  0.81308  0.12859     C
O       0.0389  0.11342  0.64333     O
O       0.0389  0.92549  0.14333     O
C      0.04238   0.3889  0.57154     C
C      0.04238  0.65348  0.07154     C
C      0.04933  0.44673  0.58258     C
C      0.04933   0.6026  0.08258     C
C      0.05352  0.42445  0.28555     C
C      0.05352  0.62906  0.78555     C
O      0.05479  0.07734  0.78567     O
O      0.05479  0.97744  0.28567     O
C      0.05557  0.37571  0.26179     C
C      0.05557  0.67985  0.76179     C
O      0.05617  0.11261  0.88426     O
O      0.05617  0.94355  0.38426     O
O      0.05645  0.11261  0.38426     O
O      0.05645  0.94383  0.88426     O
C      0.06374  0.22913  0.90538     C
C      0.06374   0.8346  0.40538     C
C      0.06407    0.284  0.91591     C
C      0.06407  0.78006  0.41591     C
H       0.0647   0.4279   0.9845     H
H       0.0647   0.6368   0.4845     H
C      0.07048  0.40382  0.91667     C
C      0.07048  0.66667  0.41667     C
H      0.07163  0.31867  0.62837     H
H      0.07163  0.75297  0.12837     H
H      0.07293  0.22697  0.64407     H
H      0.07293  0.84597  0.14407     H
O      0.07451  0.11342  0.14333     O
O      0.07451   0.9611  0.64333     O
O      0.07734  0.02256  0.21433     O
O      0.07734  0.05479  0.71433     O
H       0.0863    0.348   0.5383     H
H       0.0863   0.7383   0.0383     H
C      0.08953      0.0     0.25     C
C      0.08953  0.08953     0.75     C
C      0.08982  0.44101  0.95686     C
C      0.08982  0.64881  0.45686     C
C      0.09112  0.38685  0.54778     C
C      0.09112  0.70427  0.04778     C
H      0.09457  0.39803  0.84883     H
H      0.09457  0.69653  0.34883     H
H      0.09907  0.22543  0.91273     H
H      0.09907  0.87363  0.41273     H
H      0.09937  0.31713  0.93083     H
H      0.09937  0.78223  0.43083     H
C       0.1042  0.50127  0.57205     C
C       0.1042  0.60293  0.07205     C
H      0.10637  0.51263  0.31073     H
H      0.10637  0.59373  0.81073     H
C      0.10768  0.42315  0.87647     C
C      0.10768  0.68452  0.37647     C
H       0.1079   0.5403   0.5794     H
H       0.1079   0.5676   0.0794     H
C      0.10839  0.47974  0.29525     C
C      0.10839  0.62864  0.79525     C
C      0.10936  0.11899  0.37456     C
C      0.10936  0.99036  0.87456     C
O      0.11261  0.05617  0.61574     O
O      0.11261  0.05645  0.11574     O
C       0.1134  0.38266  0.25075     C
C       0.1134  0.73073  0.75075     C
O      0.11342   0.0389  0.85667     O
O      0.11342  0.07451  0.35667     O
H      0.11557  0.34953  0.23583     H
H      0.11557  0.76603  0.73583     H
C      0.11899  0.00964  0.62544     C
C      0.11899  0.10936  0.12544     C
H      0.12637  0.22543  0.41273     H
H      0.12637  0.90093  0.91273     H
H      0.14397  0.17503  0.81803     H
H      0.14397  0.96893  0.31803     H
C      0.14578  0.49742  0.95708     C
C      0.14578  0.64836  0.45708     C
C      0.14641  0.44172  0.53808     C
C      0.14641  0.70469  0.03808     C
C      0.14983      0.0     0.25     C
C      0.14983  0.14983     0.75     C
H      0.15403  0.22697  0.14407     H
H      0.15403  0.92707  0.64407     H
C       0.1541  0.49925  0.55072     C
C       0.1541  0.65485  0.05072     C
H       0.1583   0.5227   0.9847     H
H       0.1583   0.6356   0.4847     H
C      0.16409  0.47911  0.87625     C
C      0.16409  0.68497  0.37625     C
C       0.1654  0.22913  0.40538     C
C       0.1654  0.93626  0.90538     C
C      0.16592  0.48743  0.28261     C
C      0.16592  0.67848  0.78261     C
C      0.16742  0.17923  0.38405     C
C      0.16742  0.98818  0.88405     C
C      0.16794  0.43753  0.26128     C
C      0.16794   0.7304  0.76128     C
C      0.16925  0.18755  0.79041     C
C      0.16925  0.98169  0.29041     C
H      0.17503  0.03107  0.18197     H
H      0.17503  0.14397  0.68197     H
C      0.17923  0.01182  0.61595     C
C      0.17923  0.16742  0.11595     C
H       0.1793   0.4397   0.5226     H
H       0.1793   0.7396   0.0226     H
C       0.1835  0.51684  0.91667     C
C       0.1835  0.66667  0.41667     C
C      0.18692  0.22495  0.12859     C
C      0.18692  0.96198  0.62859     C
C      0.18755  0.01831  0.20959     C
C      0.18755  0.16925  0.70959     C
H      0.18937  0.49163  0.84863     H
H      0.18937  0.69773  0.34863     H
H      0.20697  0.44123  0.25393     H
H      0.20697  0.76573  0.75393     H
C      0.21434  0.55731  0.54123     C
C      0.21434  0.65703  0.04123     C
H      0.21777  0.31713  0.43083     H
H      0.21777  0.90063  0.93083     H
O      0.21992  0.59215  0.30999     O
O      0.21992  0.62776  0.80999     O
C      0.21994    0.284  0.41591     C
C      0.21994  0.93593  0.91591     C
O      0.22072  0.61022  0.55093     O
O      0.22072   0.6105  0.05093     O
C      0.22398  0.54767   0.2921     C
C      0.22398   0.6763   0.7921     C
C      0.22495  0.03802  0.87141     C
C      0.22495  0.18692  0.37141     C
H      0.22543  0.09907  0.58727     H
H      0.22543  0.12637  0.08727     H
C      0.22566  0.24351  0.79019     C
C      0.22566  0.98214  0.29019     C
H      0.22697  0.07293  0.85593     H
H      0.22697  0.15403  0.35593     H
C      0.22913  0.06374  0.59462     C
C      0.22913   0.1654  0.09462     C
H      0.23397  0.34953  0.73583     H
H      0.23397  0.88443  0.23583     H
H      0.23427  0.44123  0.75393     H
H      0.23427  0.79303  0.25393     H
H      0.23877  0.26863  0.81783     H
H      0.23877  0.97013  0.31783     H
C      0.24221  0.27982  0.11889     C
C      0.24221   0.9624  0.61889     C
C      0.24351  0.01786  0.20981     C
C      0.24351  0.22566  0.70981     C
C       0.2438  0.57714  0.91667     C
C       0.2438  0.66667  0.41667     C
H      0.24703  0.31867  0.12837     H
H      0.24703  0.92837  0.62837     H
O      0.25599  0.61188  0.95234     O
O      0.25599  0.64411  0.45234     O
O      0.25882  0.55325  0.52334     O
O      0.25882  0.70557  0.02334     O
H       0.2604   0.4397   0.0226     H
H       0.2604   0.8207   0.5226     H
H       0.2617    0.348   0.0383     H
H       0.2617   0.9137   0.5383     H
C      0.26285      0.0     0.25     C
C      0.26285  0.26285     0.75     C
H      0.26863  0.02987  0.18217     H
H      0.26863  0.23877  0.68217     H
C      0.26927  0.38266  0.75075     C
C      0.26927   0.8866  0.25075     C
C       0.2696  0.43753  0.76128     C
C       0.2696  0.83206  0.26128     C
O      0.27689  0.55405   0.2824     O
O      0.27689  0.72283   0.7824     O
O      0.27717  0.55405   0.7824     O
O      0.27717  0.72311   0.2824     O
C      0.27777  0.29095  0.40487     C
C      0.27777  0.98681  0.90487     C
O      0.27855  0.58932  0.88099     O
O      0.27855  0.68922  0.38099     O
C      0.27982   0.0376  0.88111     C
C      0.27982  0.24221  0.38111     C
C        0.284  0.06407  0.58409     C
C        0.284  0.21994  0.08409     C
C      0.29095  0.01319  0.59513     C
C      0.29095  0.27777  0.09513     C
O      0.29443  0.55325  0.02334     O
O      0.29443  0.74118  0.52334     O
C      0.29531  0.44172  0.03808     C
C      0.29531  0.85359  0.53808     C
C      0.29573  0.38685  0.04778     C
C      0.29573  0.90888  0.54778     C
H      0.30227  0.49163  0.34863     H
H      0.30227  0.81063  0.84863     H
H      0.30347  0.39803  0.34883     H
H      0.30347  0.90543  0.84883     H
O      0.31078  0.58932  0.38099     O
O      0.31078  0.72145  0.88099     O
C      0.31503  0.47911  0.37625     C
C      0.31503  0.83591  0.87625     C
C      0.31548  0.42315  0.37647     C
C      0.31548  0.89232  0.87647     C
H      0.31713  0.09937  0.56917     H
H      0.31713  0.21777  0.06917     H
H      0.31867  0.07163  0.87163     H
H      0.31867  0.24703  0.37163     H
C      0.32015  0.37571  0.76179     C
C      0.32015  0.94443  0.26179     C
N      0.32053      0.0     0.25     N
N      0.32053  0.32053     0.75     N
C      0.32152  0.48743  0.78261     C
C      0.32152  0.83408  0.28261     C
C       0.3237  0.54767   0.7921     C
C       0.3237  0.77602   0.2921     C
N      0.33333  0.34614  0.41667     N
C      0.33333  0.40382  0.41667     C
C      0.33333  0.51684  0.41667     C
C      0.33333  0.57714  0.41667     C
Th     0.33333  0.66667  0.01223    Th
Th     0.33333  0.66667   0.3211    Th
Th     0.33333  0.66667  0.51223    Th
Th     0.33333  0.66667   0.8211    Th
C      0.33333   0.7562  0.91667     C
C      0.33333   0.8165  0.91667     C
C      0.33333  0.92952  0.91667     C
N      0.33333   0.9872  0.91667     N
C      0.34297  0.55731  0.04123     C
C      0.34297  0.78566  0.54123     C
C      0.34515  0.49925  0.05072     C
C      0.34515   0.8459  0.55072     C
N      0.34614   0.0128  0.58333     N
N      0.34614  0.33333  0.08333     N
C      0.34652   0.3889  0.07154     C
C      0.34652  0.95762  0.57154     C
H        0.348   0.0863   0.9617     H
H        0.348   0.2617   0.4617     H
H      0.34953  0.11557  0.26417     H
H      0.34953  0.23397  0.76417     H
C      0.35119  0.44101  0.45686     C
C      0.35119  0.91018  0.95686     C
C      0.35164  0.49742  0.45708     C
C      0.35164  0.85422  0.95708     C
O      0.35589  0.61188  0.45234     O
O      0.35589  0.74401  0.95234     O
H       0.3632   0.4279   0.4845     H
H       0.3632   0.9353   0.9845     H
H       0.3644   0.5227   0.4847     H
H       0.3644   0.8417   0.9847     H
C      0.37094  0.42445  0.78555     C
C      0.37094  0.94648  0.28555     C
C      0.37136  0.47974  0.79525     C
C      0.37136  0.89161  0.29525     C
O      0.37224  0.59215  0.80999     O
O      0.37224  0.78008  0.30999     O
C      0.37571  0.05557  0.23821     C
C      0.37571  0.32015  0.73821     C
C      0.38266   0.1134  0.24925     C
C      0.38266  0.26927  0.74925     C
C      0.38685  0.09112  0.95222     C
C      0.38685  0.29573  0.45222     C
O      0.38812  0.64411  0.95234     O
O      0.38812  0.74401  0.45234     O
C       0.3889  0.04238  0.92846     C
C       0.3889  0.34652  0.42846     C
O       0.3895  0.61022  0.05093     O
O       0.3895  0.77928  0.55093     O
O      0.38978   0.6105  0.55093     O
O      0.38978  0.77928  0.05093     O
C      0.39707  0.50127  0.07205     C
C      0.39707   0.8958  0.57205     C
C       0.3974  0.44673  0.08258     C
C       0.3974  0.95067  0.58258     C
H      0.39803  0.09457  0.65117     H
H      0.39803  0.30347  0.15117     H
C      0.40382  0.07048  0.58333     C
C      0.40382  0.33333  0.08333     C
H      0.40497  0.41963  0.79503     H
H      0.40497  0.98533  0.29503     H
H      0.40627  0.51263  0.81073     H
H      0.40627  0.89363  0.31073     H
O      0.40785  0.62776  0.30999     O
O      0.40785  0.78008  0.80999     O
O      0.41068  0.68922  0.88099     O
O      0.41068  0.72145  0.38099     O
H      0.41963  0.01467  0.20497     H
H      0.41963  0.40497  0.70497     H
C      0.42286  0.66667  0.91667     C
C      0.42286   0.7562  0.41667     C
C      0.42315  0.10768  0.62353     C
C      0.42315  0.31548  0.12353     C
C      0.42445  0.05352  0.21445     C
C      0.42445  0.37094  0.71445     C
H       0.4279   0.0647   0.5155     H
H       0.4279   0.3632   0.0155     H
H       0.4324   0.5403   0.0794     H
H       0.4324   0.8921   0.5794     H
H       0.4327   0.4489   0.0975     H
H       0.4327   0.9838   0.5975     H
C      0.43753  0.16794  0.23872     C
C      0.43753   0.2696  0.73872     C
H       0.4397   0.1793   0.9774     H
H       0.4397   0.2604   0.4774     H
C      0.44101  0.08982  0.54314     C
C      0.44101  0.35119  0.04314     C
H      0.44123  0.20697  0.24607     H
H      0.44123  0.23427  0.74607     H
C      0.44172  0.14641  0.96192     C
C      0.44172  0.29531  0.46192     C
C      0.44269  0.65703  0.54123     C
C      0.44269  0.78566  0.04123     C
O      0.44595  0.72283   0.2824     O
O      0.44595  0.72311   0.7824     O
C      0.44673  0.04933  0.91742     C
C      0.44673   0.3974  0.41742     C
O      0.44675  0.70557  0.52334     O
O      0.44675  0.74118  0.02334     O
H       0.4489   0.0162   0.9025     H
H       0.4489   0.4327   0.4025     H
C      0.45233   0.6763   0.2921     C
C      0.45233  0.77602   0.7921     C
H       0.4597   0.5676   0.5794     H
H       0.4597   0.8921   0.0794     H
H       0.4773   0.6356   0.9847     H
H       0.4773   0.8417   0.4847     H
C      0.47911  0.16409  0.62375     C
C      0.47911  0.31503  0.12375     C
C      0.47974  0.10839  0.20475     C
C      0.47974  0.37136  0.70475     C
C      0.48316  0.66667  0.91667     C
C      0.48316   0.8165  0.41667     C
H      0.48737  0.59373  0.31073     H
H      0.48737  0.89363  0.81073     H
C      0.48743  0.16592  0.21739     C
C      0.48743  0.32152  0.71739     C
H      0.49163  0.18937  0.65137     H
H      0.49163  0.30227  0.15137     H
C      0.49742  0.14578  0.54292     C
C      0.49742  0.35164  0.04292     C
C      0.49873  0.60293  0.57205     C
C      0.49873   0.8958  0.07205     C
C      0.49925   0.1541  0.94928     C
C      0.49925  0.34515  0.44928     C
C      0.50075  0.65485  0.55072     C
C      0.50075   0.8459  0.05072     C
C      0.50127   0.1042  0.92795     C
C      0.50127  0.39707  0.42795     C
C      0.50258  0.64836  0.95708     C
C      0.50258  0.85422  0.45708     C
H      0.50837  0.69773  0.84863     H
H      0.50837  0.81063  0.34863     H
C      0.51257  0.67848  0.28261     C
C      0.51257  0.83408  0.78261     C
H      0.51263  0.10637  0.18927     H
H      0.51263  0.40627  0.68927     H
C      0.51684   0.1835  0.58333     C
C      0.51684  0.33333  0.08333     C
C      0.52026  0.62864  0.29525     C
C      0.52026  0.89161  0.79525     C
C      0.52089  0.68497  0.87625     C
C      0.52089  0.83591  0.37625     C
H       0.5227   0.1583   0.5153     H
H       0.5227   0.3644   0.0153     H
H       0.5403   0.1079   0.9206     H
H       0.5403   0.4324   0.4206     H
C      0.54767  0.22398   0.2079     C
C      0.54767   0.3237   0.7079     C
H       0.5511   0.5673   0.5975     H
H       0.5511   0.9838   0.0975     H
O      0.55325  0.25882  0.97666     O
O      0.55325  0.29443  0.47666     O
C      0.55327   0.6026  0.58258     C
C      0.55327  0.95067  0.08258     C
O      0.55405  0.27689   0.2176     O
O      0.55405  0.27717   0.7176     O
C      0.55731  0.21434  0.95877     C
C      0.55731  0.34297  0.45877     C
C      0.55828  0.70469  0.53808     C
C      0.55828  0.85359  0.03808     C
H      0.55877  0.76573  0.25393     H
H      0.55877  0.79303  0.75393     H
C      0.55899  0.64881  0.95686     C
C      0.55899  0.91018  0.45686     C
H       0.5603   0.7396   0.5226     H
H       0.5603   0.8207   0.0226     H
C      0.56247   0.7304  0.26128     C
C      0.56247  0.83206  0.76128     C
H       0.5673   0.0162   0.4025     H
H       0.5673   0.5511   0.9025     H
H       0.5676   0.1079   0.4206     H
H       0.5676   0.4597   0.9206     H
H       0.5721   0.6368   0.9845     H
H       0.5721   0.9353   0.4845     H
C      0.57555  0.62906  0.28555     C
C      0.57555  0.94648  0.78555     C
C      0.57685  0.68452  0.87647     C
C      0.57685  0.89232  0.37647     C
C      0.57714   0.2438  0.58333     C
C      0.57714  0.33333  0.08333     C
H      0.58037  0.59503  0.29503     H
H      0.58037  0.98533  0.79503     H
O      0.58932  0.27855  0.61901     O
O      0.58932  0.31078  0.11901     O
O      0.59215  0.21992  0.19001     O
O      0.59215  0.37224  0.69001     O
H      0.59373  0.10637  0.68927     H
H      0.59373  0.48737  0.18927     H
H      0.59503  0.01467  0.70497     H
H      0.59503  0.58037  0.20497     H
C      0.59618  0.66667  0.91667     C
C      0.59618  0.92952  0.41667     C
H      0.60197  0.69653  0.84883     H
H      0.60197  0.90543  0.34883     H
C       0.6026  0.04933  0.41742     C
C       0.6026  0.55327  0.91742     C
C      0.60293   0.1042  0.42795     C
C      0.60293  0.49873  0.92795     C
O      0.61022  0.22072  0.94907     O
O      0.61022   0.3895  0.44907     O
O       0.6105  0.22072  0.44907     O
O       0.6105  0.38978  0.94907     O
C       0.6111  0.65348  0.57154     C
C       0.6111  0.95762  0.07154     C
O      0.61188  0.25599  0.54766     O
O      0.61188  0.35589  0.04766     O
C      0.61315  0.70427  0.54778     C
C      0.61315  0.90888  0.04778     C
C      0.61734  0.73073  0.25075     C
C      0.61734   0.8866  0.75075     C
C      0.62429  0.67985  0.26179     C
C      0.62429  0.94443  0.76179     C
O      0.62776  0.21992  0.69001     O
O      0.62776  0.40785  0.19001     O
C      0.62864  0.10839  0.70475     C
C      0.62864  0.52026  0.20475     C
C      0.62906  0.05352  0.71445     C
C      0.62906  0.57555  0.21445     C
H       0.6356   0.1583   0.0153     H
H       0.6356   0.4773   0.5153     H
H       0.6368   0.0647   0.0155     H
H       0.6368   0.5721   0.5155     H
O      0.64411  0.25599  0.04766     O
O      0.64411  0.38812  0.54766     O
C      0.64836  0.14578  0.04292     C
C      0.64836  0.50258  0.54292     C
C      0.64881  0.08982  0.04314     C
C      0.64881  0.55899  0.54314     C
H      0.65047  0.76603  0.23583     H
H      0.65047  0.88443  0.73583     H
H        0.652   0.7383   0.5383     H
H        0.652   0.9137   0.0383     H
C      0.65348  0.04238  0.42846     C
C      0.65348   0.6111  0.92846     C
N      0.65386  0.66667  0.91667     N
N      0.65386   0.9872  0.41667     N
C      0.65485   0.1541  0.44928     C
C      0.65485  0.50075  0.94928     C
C      0.65703  0.21434  0.45877     C
C      0.65703  0.44269  0.95877     C
N      0.66667   0.0128  0.08333     N
C      0.66667  0.07048  0.08333     C
C      0.66667   0.1835  0.08333     C
C      0.66667   0.2438  0.08333     C
Th     0.66667  0.33333   0.1789    Th
Th     0.66667  0.33333  0.48777    Th
Th     0.66667  0.33333   0.6789    Th
Th     0.66667  0.33333  0.98777    Th
C      0.66667  0.42286  0.58333     C
C      0.66667  0.48316  0.58333     C
C      0.66667  0.59618  0.58333     C
N      0.66667  0.65386  0.58333     N
C       0.6763  0.22398   0.7079     C
C       0.6763  0.45233   0.2079     C
C      0.67848  0.16592  0.71739     C
C      0.67848  0.51257  0.21739     C
N      0.67947      0.0     0.75     N
N      0.67947  0.67947     0.25     N
C      0.67985  0.05557  0.73821     C
C      0.67985  0.62429  0.23821     C
H      0.68133  0.75297  0.62837     H
H      0.68133  0.92837  0.12837     H
H      0.68287  0.78223  0.93083     H
H      0.68287  0.90063  0.43083     H
C      0.68452  0.10768  0.12353     C
C      0.68452  0.57685  0.62353     C
C      0.68497  0.16409  0.12375     C
C      0.68497  0.52089  0.62375     C
O      0.68922  0.27855  0.11901     O
O      0.68922  0.41068  0.61901     O
H      0.69653  0.09457  0.15117     H
H      0.69653  0.60197  0.65117     H
H      0.69773  0.18937  0.15137     H
H      0.69773  0.50837  0.65137     H
C      0.70427  0.09112  0.45222     C
C      0.70427  0.61315  0.95222     C
C      0.70469  0.14641  0.46192     C
C      0.70469  0.55828  0.96192     C
O      0.70557  0.25882  0.47666     O
O      0.70557  0.44675  0.97666     O
C      0.70905  0.72223  0.90487     C
C      0.70905  0.98681  0.40487     C
C        0.716  0.78006  0.91591     C
C        0.716  0.93593  0.41591     C
C      0.72018  0.75779  0.61889     C
C      0.72018   0.9624  0.11889     C
O      0.72145  0.31078  0.61901     O
O      0.72145  0.41068  0.11901     O
C      0.72223  0.01319  0.09513     C
C      0.72223  0.70905  0.59513     C
O      0.72283  0.27689   0.7176     O
O      0.72283  0.44595   0.2176     O
O      0.72311  0.27717   0.2176     O
O      0.72311  0.44595   0.7176     O
C       0.7304  0.16794  0.73872     C
C       0.7304  0.56247  0.23872     C
C      0.73073   0.1134  0.74925     C
C      0.73073  0.61734  0.24925     C
H      0.73137  0.76123  0.31783     H
H      0.73137  0.97013  0.81783     H
C      0.73715      0.0     0.75     C
C      0.73715  0.73715     0.25     C
H       0.7383   0.0863   0.4617     H
H       0.7383    0.652   0.9617     H
H       0.7396   0.1793   0.4774     H
H       0.7396   0.5603   0.9774     H
O      0.74118  0.29443  0.97666     O
O      0.74118  0.44675  0.47666     O
O      0.74401  0.35589  0.54766     O
O      0.74401  0.38812  0.04766     O
H      0.75297  0.07163  0.37163     H
H      0.75297  0.68133  0.87163     H
C       0.7562  0.33333  0.58333     C
C       0.7562  0.42286  0.08333     C
C      0.75649  0.77434  0.29019     C
C      0.75649  0.98214  0.79019     C
C      0.75779   0.0376  0.38111     C
C      0.75779  0.72018  0.88111     C
H      0.76123  0.02987  0.68217     H
H      0.76123  0.73137  0.18217     H
H      0.76573  0.20697  0.74607     H
H      0.76573  0.55877  0.24607     H
H      0.76603  0.11557  0.76417     H
H      0.76603  0.65047  0.26417     H
C      0.77087   0.8346  0.90538     C
C      0.77087  0.93626  0.40538     C
H      0.77303  0.84597  0.64407     H
H      0.77303  0.92707  0.14407     H
C      0.77434  0.01786  0.70981     C
C      0.77434  0.75649  0.20981     C
H      0.77457  0.87363  0.91273     H
H      0.77457  0.90093  0.41273     H
C      0.77505  0.81308  0.62859     C
C      0.77505  0.96198  0.12859     C
C      0.77602   0.3237   0.2079     C
C      0.77602  0.45233   0.7079     C
O      0.77928   0.3895  0.94907     O
O      0.77928  0.38978  0.44907     O
C      0.78006  0.06407  0.08409     C
C      0.78006    0.716  0.58409     C
O      0.78008  0.37224  0.19001     O
O      0.78008  0.40785  0.69001     O
H      0.78223  0.09937  0.06917     H
H      0.78223  0.68287  0.56917     H
C      0.78566  0.34297  0.95877     C
C      0.78566  0.44269  0.45877     C
H      0.79303  0.23427  0.24607     H
H      0.79303  0.55877  0.74607     H
H      0.81063  0.30227  0.65137     H
H      0.81063  0.50837  0.15137     H
C      0.81245  0.83075  0.29041     C
C      0.81245  0.98169  0.79041     C
C      0.81308  0.03802  0.37141     C
C      0.81308  0.77505  0.87141     C
C       0.8165  0.33333  0.58333     C
C       0.8165  0.48316  0.08333     C
H       0.8207   0.2604   0.9774     H
H       0.8207   0.5603   0.4774     H
C      0.82077  0.83258  0.88405     C
C      0.82077  0.98818  0.38405     C
H      0.82497  0.85603  0.31803     H
H      0.82497  0.96893  0.81803     H
C      0.83075  0.01831  0.70959     C
C      0.83075  0.81245  0.20959     C
C      0.83206   0.2696  0.23872     C
C      0.83206  0.56247  0.73872     C
C      0.83258  0.01182  0.11595     C
C      0.83258  0.82077  0.61595     C
C      0.83408  0.32152  0.21739     C
C      0.83408  0.51257  0.71739     C
C       0.8346  0.06374  0.09462     C
C       0.8346  0.77087  0.59462     C
C      0.83591  0.31503  0.62375     C
C      0.83591  0.52089  0.12375     C
H       0.8417   0.3644   0.5153     H
H       0.8417   0.4773   0.0153     H
C       0.8459  0.34515  0.94928     C
C       0.8459  0.50075  0.44928     C
H      0.84597  0.07293  0.35593     H
H      0.84597  0.77303  0.85593     H
C      0.85017      0.0     0.75     C
C      0.85017  0.85017     0.25     C
C      0.85359  0.29531  0.96192     C
C      0.85359  0.55828  0.46192     C
C      0.85422  0.35164  0.54292     C
C      0.85422  0.50258  0.04292     C
H      0.85603  0.03107  0.68197     H
H      0.85603  0.82497  0.18197     H
H      0.87363  0.09907  0.08727     H
H      0.87363  0.77457  0.58727     H
C      0.88101  0.89064  0.87456     C
C      0.88101  0.99036  0.37456     C
H      0.88443  0.23397  0.26417     H
H      0.88443  0.65047  0.76417     H
O      0.88658  0.92549  0.64333     O
O      0.88658   0.9611  0.14333     O
C       0.8866  0.26927  0.24925     C
C       0.8866  0.61734  0.74925     C
O      0.88739  0.94355  0.88426     O
O      0.88739  0.94383  0.38426     O
C      0.89064  0.00964  0.12544     C
C      0.89064  0.88101  0.62544     C
C      0.89161  0.37136  0.20475     C
C      0.89161  0.52026  0.70475     C
H       0.8921   0.4324   0.9206     H
H       0.8921   0.4597   0.4206     H
C      0.89232  0.31548  0.62353     C
C      0.89232  0.57685  0.12353     C
H      0.89363  0.40627  0.18927     H
H      0.89363  0.48737  0.68927     H
C       0.8958  0.39707  0.92795     C
C       0.8958  0.49873  0.42795     C
H      0.90063  0.21777  0.56917     H
H      0.90063  0.68287  0.06917     H
H      0.90093  0.12637  0.58727     H
H      0.90093  0.77457  0.08727     H
H      0.90543  0.30347  0.65117     H
H      0.90543  0.60197  0.15117     H
C      0.90888  0.29573  0.95222     C
C      0.90888  0.61315  0.45222     C
C      0.91018  0.35119  0.54314     C
C      0.91018  0.55899  0.04314     C
C      0.91047      0.0     0.75     C
C      0.91047  0.91047     0.25     C
H       0.9137   0.2617   0.9617     H
H       0.9137    0.652   0.4617     H
O      0.92266  0.94521  0.28567     O
O      0.92266  0.97744  0.78567     O
O      0.92549   0.0389  0.35667     O
O      0.92549  0.88658  0.85667     O
H      0.92707  0.15403  0.85593     H
H      0.92707  0.77303  0.35593     H
H      0.92837  0.24703  0.87163     H
H      0.92837  0.68133  0.37163     H
C      0.92952  0.33333  0.58333     C
C      0.92952  0.59618  0.08333     C
H       0.9353   0.3632   0.5155     H
H       0.9353   0.5721   0.0155     H
C      0.93593  0.21994  0.58409     C
C      0.93593    0.716  0.08409     C
C      0.93626   0.1654  0.59462     C
C      0.93626  0.77087  0.09462     C
O      0.94355  0.05617  0.11574     O
O      0.94355  0.88739  0.61574     O
O      0.94383  0.05645  0.61574     O
O      0.94383  0.88739  0.11574     O
C      0.94443  0.32015  0.23821     C
C      0.94443  0.62429  0.73821     C
O      0.94521  0.02256  0.71433     O
O      0.94521  0.92266  0.21433     O
C      0.94648  0.37094  0.21445     C
C      0.94648  0.57555  0.71445     C
C      0.95067   0.3974  0.91742     C
C      0.95067  0.55327  0.41742     C
C      0.95762  0.34652  0.92846     C
C      0.95762   0.6111  0.42846     C
O       0.9611  0.07451  0.85667     O
O       0.9611  0.88658  0.35667     O
C      0.96198  0.18692  0.87141     C
C      0.96198  0.77505  0.37141     C
C       0.9624  0.24221  0.88111     C
C       0.9624  0.72018  0.38111     C
H      0.96893  0.14397  0.18197     H
H      0.96893  0.82497  0.68197     H
H      0.97013  0.23877  0.18217     H
H      0.97013  0.73137  0.68217     H
O      0.97744  0.05479  0.21433     O
O      0.97744  0.92266  0.71433     O
C      0.98169  0.16925  0.20959     C
C      0.98169  0.81245  0.70959     C
C      0.98214  0.22566  0.20981     C
C      0.98214  0.75649  0.70981     C
H       0.9838   0.4327   0.9025     H
H       0.9838   0.5511   0.4025     H
H      0.98533  0.40497  0.20497     H
H      0.98533  0.58037  0.70497     H
C      0.98681  0.27777  0.59513     C
C      0.98681  0.70905  0.09513     C
N       0.9872  0.33333  0.58333     N
N       0.9872  0.65386  0.08333     N
C      0.98818  0.16742  0.61595     C
C      0.98818  0.82077  0.11595     C
C      0.99036  0.10936  0.62544     C
C      0.99036  0.88101  0.12544     C
