data_I
_chemical_name_common  '/home/zhangsd/repos/MofS-CGCNN/ML/data/SSD/clean_cifs/PACZOK_clean'
_cell_length_a 26.50680
_cell_length_b 26.50680
_cell_length_c 26.50680
_cell_angle_alpha 90.00000
_cell_angle_beta  90.00000
_cell_angle_gamma 90.00000
_space_group_name_H-M_alt      'P 1'


loop_
_space_group_symop_operation_xyz
  'x, y, z' 

loop_
_atom_site_label
_atom_site_fract_x
_atom_site_fract_y
_atom_site_fract_z
_atom_site_type_symbol
V          0.0  0.20591  0.34661     V
V          0.0  0.20591  0.65339     V
V          0.0  0.24572  0.24572     V
V          0.0  0.24572  0.75428     V
V          0.0  0.34661  0.20591     V
V          0.0  0.34661  0.79409     V
V          0.0  0.65339  0.20591     V
V          0.0  0.65339  0.79409     V
V          0.0  0.75428  0.24572     V
V          0.0  0.75428  0.75428     V
V          0.0  0.79409  0.34661     V
V          0.0  0.79409  0.65339     V
O      0.04732  0.22976  0.29603     O
O      0.04732  0.22976  0.70397     O
O      0.04732  0.29603  0.22976     O
O      0.04732  0.29603  0.77024     O
O      0.04732  0.70397  0.22976     O
O      0.04732  0.70397  0.77024     O
O      0.04732  0.77024  0.29603     O
O      0.04732  0.77024  0.70397     O
O       0.0487   0.2241   0.3977     O
O       0.0487   0.2241   0.6023     O
O       0.0487   0.3977   0.2241     O
O       0.0487   0.3977   0.7759     O
O       0.0487   0.6023   0.2241     O
O       0.0487   0.6023   0.7759     O
O       0.0487   0.7759   0.3977     O
O       0.0487   0.7759   0.6023     O
V       0.0944  0.28579  0.28579     V
V       0.0944  0.28579  0.71421     V
V       0.0944  0.71421  0.28579     V
V       0.0944  0.71421  0.71421     V
P      0.09981     0.25  0.40019     P
P      0.09981     0.25  0.59981     P
P      0.09981  0.40019     0.25     P
P      0.09981  0.40019     0.75     P
P      0.09981  0.59981     0.25     P
P      0.09981  0.59981     0.75     P
P      0.09981     0.75  0.40019     P
P      0.09981     0.75  0.59981     P
O       0.1023   0.2759   0.4513     O
O       0.1023   0.2759   0.5487     O
O       0.1023   0.4513   0.2759     O
O       0.1023   0.4513   0.7241     O
O       0.1023   0.5487   0.2759     O
O       0.1023   0.5487   0.7241     O
O       0.1023   0.7241   0.4513     O
O       0.1023   0.7241   0.5487     O
O        0.105   0.2895   0.3585     O
O        0.105   0.2895   0.6415     O
O        0.105   0.3585   0.2895     O
O        0.105   0.3585   0.7105     O
O        0.105   0.6415   0.2895     O
O        0.105   0.6415   0.7105     O
O        0.105   0.7105   0.3585     O
O        0.105   0.7105   0.6415     O
O       0.1415   0.2105    0.395     O
O       0.1415   0.2105    0.605     O
O       0.1415    0.395   0.2105     O
O       0.1415    0.395   0.7895     O
O       0.1415    0.605   0.2105     O
O       0.1415    0.605   0.7895     O
O       0.1415   0.7895    0.395     O
O       0.1415   0.7895    0.605     O
V      0.15339  0.29409      0.5     V
V      0.15339      0.5  0.29409     V
V      0.15339      0.5  0.70591     V
V      0.15339  0.70591      0.5     V
O      0.20397  0.27024  0.45268     O
O      0.20397  0.27024  0.54732     O
O      0.20397  0.45268  0.27024     O
O      0.20397  0.45268  0.72976     O
O      0.20397  0.54732  0.27024     O
O      0.20397  0.54732  0.72976     O
O      0.20397  0.72976  0.45268     O
O      0.20397  0.72976  0.54732     O
V      0.20591      0.0  0.34661     V
V      0.20591      0.0  0.65339     V
V      0.20591  0.34661      0.0     V
V      0.20591  0.65339      0.0     V
O       0.2105   0.1415    0.395     O
O       0.2105   0.1415    0.605     O
O       0.2105    0.395   0.1415     O
O       0.2105    0.395   0.8585     O
O       0.2105    0.605   0.1415     O
O       0.2105    0.605   0.8585     O
O       0.2105   0.8585    0.395     O
O       0.2105   0.8585    0.605     O
V      0.21421  0.21421   0.4056     V
V      0.21421  0.21421   0.5944     V
V      0.21421   0.4056  0.21421     V
V      0.21421   0.4056  0.78579     V
V      0.21421   0.5944  0.21421     V
V      0.21421   0.5944  0.78579     V
V      0.21421  0.78579   0.4056     V
V      0.21421  0.78579   0.5944     V
O       0.2241   0.0487   0.3977     O
O       0.2241   0.0487   0.6023     O
O       0.2241   0.3977   0.0487     O
O       0.2241   0.3977   0.9513     O
O       0.2241   0.6023   0.0487     O
O       0.2241   0.6023   0.9513     O
O       0.2241   0.9513   0.3977     O
O       0.2241   0.9513   0.6023     O
O      0.22976  0.04732  0.29603     O
O      0.22976  0.04732  0.70397     O
O      0.22976  0.29603  0.04732     O
O      0.22976  0.29603  0.95268     O
O      0.22976  0.70397  0.04732     O
O      0.22976  0.70397  0.95268     O
O      0.22976  0.95268  0.29603     O
O      0.22976  0.95268  0.70397     O
V      0.24572      0.0  0.24572     V
V      0.24572      0.0  0.75428     V
V      0.24572  0.24572      0.0     V
V      0.24572  0.75428      0.0     V
P         0.25  0.09981  0.40019     P
P         0.25  0.09981  0.59981     P
P         0.25  0.40019  0.09981     P
P         0.25  0.40019  0.90019     P
P         0.25  0.59981  0.09981     P
P         0.25  0.59981  0.90019     P
P         0.25  0.90019  0.40019     P
P         0.25  0.90019  0.59981     P
V      0.25428  0.25428      0.5     V
V      0.25428      0.5  0.25428     V
V      0.25428      0.5  0.74572     V
V      0.25428  0.74572      0.5     V
O      0.27024  0.20397  0.45268     O
O      0.27024  0.20397  0.54732     O
O      0.27024  0.45268  0.20397     O
O      0.27024  0.45268  0.79603     O
O      0.27024  0.54732  0.20397     O
O      0.27024  0.54732  0.79603     O
O      0.27024  0.79603  0.45268     O
O      0.27024  0.79603  0.54732     O
O       0.2759   0.1023   0.4513     O
O       0.2759   0.1023   0.5487     O
O       0.2759   0.4513   0.1023     O
O       0.2759   0.4513   0.8977     O
O       0.2759   0.5487   0.1023     O
O       0.2759   0.5487   0.8977     O
O       0.2759   0.8977   0.4513     O
O       0.2759   0.8977   0.5487     O
V      0.28579   0.0944  0.28579     V
V      0.28579   0.0944  0.71421     V
V      0.28579  0.28579   0.0944     V
V      0.28579  0.28579   0.9056     V
V      0.28579  0.71421   0.0944     V
V      0.28579  0.71421   0.9056     V
V      0.28579   0.9056  0.28579     V
V      0.28579   0.9056  0.71421     V
O       0.2895    0.105   0.3585     O
O       0.2895    0.105   0.6415     O
O       0.2895   0.3585    0.105     O
O       0.2895   0.3585    0.895     O
O       0.2895   0.6415    0.105     O
O       0.2895   0.6415    0.895     O
O       0.2895    0.895   0.3585     O
O       0.2895    0.895   0.6415     O
V      0.29409  0.15339      0.5     V
V      0.29409      0.5  0.15339     V
V      0.29409      0.5  0.84661     V
V      0.29409  0.84661      0.5     V
O      0.29603  0.04732  0.22976     O
O      0.29603  0.04732  0.77024     O
O      0.29603  0.22976  0.04732     O
O      0.29603  0.22976  0.95268     O
O      0.29603  0.77024  0.04732     O
O      0.29603  0.77024  0.95268     O
O      0.29603  0.95268  0.22976     O
O      0.29603  0.95268  0.77024     O
V      0.34661      0.0  0.20591     V
V      0.34661      0.0  0.79409     V
V      0.34661  0.20591      0.0     V
V      0.34661  0.79409      0.0     V
O       0.3585    0.105   0.2895     O
O       0.3585    0.105   0.7105     O
O       0.3585   0.2895    0.105     O
O       0.3585   0.2895    0.895     O
O       0.3585   0.7105    0.105     O
O       0.3585   0.7105    0.895     O
O       0.3585    0.895   0.2895     O
O       0.3585    0.895   0.7105     O
O        0.395   0.1415   0.2105     O
O        0.395   0.1415   0.7895     O
O        0.395   0.2105   0.1415     O
O        0.395   0.2105   0.8585     O
O        0.395   0.7895   0.1415     O
O        0.395   0.7895   0.8585     O
O        0.395   0.8585   0.2105     O
O        0.395   0.8585   0.7895     O
O       0.3977   0.0487   0.2241     O
O       0.3977   0.0487   0.7759     O
O       0.3977   0.2241   0.0487     O
O       0.3977   0.2241   0.9513     O
O       0.3977   0.7759   0.0487     O
O       0.3977   0.7759   0.9513     O
O       0.3977   0.9513   0.2241     O
O       0.3977   0.9513   0.7759     O
P      0.40019  0.09981     0.25     P
P      0.40019  0.09981     0.75     P
P      0.40019     0.25  0.09981     P
P      0.40019     0.25  0.90019     P
P      0.40019     0.75  0.09981     P
P      0.40019     0.75  0.90019     P
P      0.40019  0.90019     0.25     P
P      0.40019  0.90019     0.75     P
V       0.4056  0.21421  0.21421     V
V       0.4056  0.21421  0.78579     V
V       0.4056  0.78579  0.21421     V
V       0.4056  0.78579  0.78579     V
O       0.4513   0.1023   0.2759     O
O       0.4513   0.1023   0.7241     O
O       0.4513   0.2759   0.1023     O
O       0.4513   0.2759   0.8977     O
O       0.4513   0.7241   0.1023     O
O       0.4513   0.7241   0.8977     O
O       0.4513   0.8977   0.2759     O
O       0.4513   0.8977   0.7241     O
O      0.45268  0.20397  0.27024     O
O      0.45268  0.20397  0.72976     O
O      0.45268  0.27024  0.20397     O
O      0.45268  0.27024  0.79603     O
O      0.45268  0.72976  0.20397     O
O      0.45268  0.72976  0.79603     O
O      0.45268  0.79603  0.27024     O
O      0.45268  0.79603  0.72976     O
V          0.5  0.15339  0.29409     V
V          0.5  0.15339  0.70591     V
V          0.5  0.25428  0.25428     V
V          0.5  0.25428  0.74572     V
V          0.5  0.29409  0.15339     V
V          0.5  0.29409  0.84661     V
V          0.5  0.70591  0.15339     V
V          0.5  0.70591  0.84661     V
V          0.5  0.74572  0.25428     V
V          0.5  0.74572  0.74572     V
V          0.5  0.84661  0.29409     V
V          0.5  0.84661  0.70591     V
O      0.54732  0.20397  0.27024     O
O      0.54732  0.20397  0.72976     O
O      0.54732  0.27024  0.20397     O
O      0.54732  0.27024  0.79603     O
O      0.54732  0.72976  0.20397     O
O      0.54732  0.72976  0.79603     O
O      0.54732  0.79603  0.27024     O
O      0.54732  0.79603  0.72976     O
O       0.5487   0.1023   0.2759     O
O       0.5487   0.1023   0.7241     O
O       0.5487   0.2759   0.1023     O
O       0.5487   0.2759   0.8977     O
O       0.5487   0.7241   0.1023     O
O       0.5487   0.7241   0.8977     O
O       0.5487   0.8977   0.2759     O
O       0.5487   0.8977   0.7241     O
V       0.5944  0.21421  0.21421     V
V       0.5944  0.21421  0.78579     V
V       0.5944  0.78579  0.21421     V
V       0.5944  0.78579  0.78579     V
P      0.59981  0.09981     0.25     P
P      0.59981  0.09981     0.75     P
P      0.59981     0.25  0.09981     P
P      0.59981     0.25  0.90019     P
P      0.59981     0.75  0.09981     P
P      0.59981     0.75  0.90019     P
P      0.59981  0.90019     0.25     P
P      0.59981  0.90019     0.75     P
O       0.6023   0.0487   0.2241     O
O       0.6023   0.0487   0.7759     O
O       0.6023   0.2241   0.0487     O
O       0.6023   0.2241   0.9513     O
O       0.6023   0.7759   0.0487     O
O       0.6023   0.7759   0.9513     O
O       0.6023   0.9513   0.2241     O
O       0.6023   0.9513   0.7759     O
O        0.605   0.1415   0.2105     O
O        0.605   0.1415   0.7895     O
O        0.605   0.2105   0.1415     O
O        0.605   0.2105   0.8585     O
O        0.605   0.7895   0.1415     O
O        0.605   0.7895   0.8585     O
O        0.605   0.8585   0.2105     O
O        0.605   0.8585   0.7895     O
O       0.6415    0.105   0.2895     O
O       0.6415    0.105   0.7105     O
O       0.6415   0.2895    0.105     O
O       0.6415   0.2895    0.895     O
O       0.6415   0.7105    0.105     O
O       0.6415   0.7105    0.895     O
O       0.6415    0.895   0.2895     O
O       0.6415    0.895   0.7105     O
V      0.65339      0.0  0.20591     V
V      0.65339      0.0  0.79409     V
V      0.65339  0.20591      0.0     V
V      0.65339  0.79409      0.0     V
O      0.70397  0.04732  0.22976     O
O      0.70397  0.04732  0.77024     O
O      0.70397  0.22976  0.04732     O
O      0.70397  0.22976  0.95268     O
O      0.70397  0.77024  0.04732     O
O      0.70397  0.77024  0.95268     O
O      0.70397  0.95268  0.22976     O
O      0.70397  0.95268  0.77024     O
V      0.70591  0.15339      0.5     V
V      0.70591      0.5  0.15339     V
V      0.70591      0.5  0.84661     V
V      0.70591  0.84661      0.5     V
O       0.7105    0.105   0.3585     O
O       0.7105    0.105   0.6415     O
O       0.7105   0.3585    0.105     O
O       0.7105   0.3585    0.895     O
O       0.7105   0.6415    0.105     O
O       0.7105   0.6415    0.895     O
O       0.7105    0.895   0.3585     O
O       0.7105    0.895   0.6415     O
V      0.71421   0.0944  0.28579     V
V      0.71421   0.0944  0.71421     V
V      0.71421  0.28579   0.0944     V
V      0.71421  0.28579   0.9056     V
V      0.71421  0.71421   0.0944     V
V      0.71421  0.71421   0.9056     V
V      0.71421   0.9056  0.28579     V
V      0.71421   0.9056  0.71421     V
O       0.7241   0.1023   0.4513     O
O       0.7241   0.1023   0.5487     O
O       0.7241   0.4513   0.1023     O
O       0.7241   0.4513   0.8977     O
O       0.7241   0.5487   0.1023     O
O       0.7241   0.5487   0.8977     O
O       0.7241   0.8977   0.4513     O
O       0.7241   0.8977   0.5487     O
O      0.72976  0.20397  0.45268     O
O      0.72976  0.20397  0.54732     O
O      0.72976  0.45268  0.20397     O
O      0.72976  0.45268  0.79603     O
O      0.72976  0.54732  0.20397     O
O      0.72976  0.54732  0.79603     O
O      0.72976  0.79603  0.45268     O
O      0.72976  0.79603  0.54732     O
V      0.74572  0.25428      0.5     V
V      0.74572      0.5  0.25428     V
V      0.74572      0.5  0.74572     V
V      0.74572  0.74572      0.5     V
P         0.75  0.09981  0.40019     P
P         0.75  0.09981  0.59981     P
P         0.75  0.40019  0.09981     P
P         0.75  0.40019  0.90019     P
P         0.75  0.59981  0.09981     P
P         0.75  0.59981  0.90019     P
P         0.75  0.90019  0.40019     P
P         0.75  0.90019  0.59981     P
V      0.75428      0.0  0.24572     V
V      0.75428      0.0  0.75428     V
V      0.75428  0.24572      0.0     V
V      0.75428  0.75428      0.0     V
O      0.77024  0.04732  0.29603     O
O      0.77024  0.04732  0.70397     O
O      0.77024  0.29603  0.04732     O
O      0.77024  0.29603  0.95268     O
O      0.77024  0.70397  0.04732     O
O      0.77024  0.70397  0.95268     O
O      0.77024  0.95268  0.29603     O
O      0.77024  0.95268  0.70397     O
O       0.7759   0.0487   0.3977     O
O       0.7759   0.0487   0.6023     O
O       0.7759   0.3977   0.0487     O
O       0.7759   0.3977   0.9513     O
O       0.7759   0.6023   0.0487     O
O       0.7759   0.6023   0.9513     O
O       0.7759   0.9513   0.3977     O
O       0.7759   0.9513   0.6023     O
V      0.78579  0.21421   0.4056     V
V      0.78579  0.21421   0.5944     V
V      0.78579   0.4056  0.21421     V
V      0.78579   0.4056  0.78579     V
V      0.78579   0.5944  0.21421     V
V      0.78579   0.5944  0.78579     V
V      0.78579  0.78579   0.4056     V
V      0.78579  0.78579   0.5944     V
O       0.7895   0.1415    0.395     O
O       0.7895   0.1415    0.605     O
O       0.7895    0.395   0.1415     O
O       0.7895    0.395   0.8585     O
O       0.7895    0.605   0.1415     O
O       0.7895    0.605   0.8585     O
O       0.7895   0.8585    0.395     O
O       0.7895   0.8585    0.605     O
V      0.79409      0.0  0.34661     V
V      0.79409      0.0  0.65339     V
V      0.79409  0.34661      0.0     V
V      0.79409  0.65339      0.0     V
O      0.79603  0.27024  0.45268     O
O      0.79603  0.27024  0.54732     O
O      0.79603  0.45268  0.27024     O
O      0.79603  0.45268  0.72976     O
O      0.79603  0.54732  0.27024     O
O      0.79603  0.54732  0.72976     O
O      0.79603  0.72976  0.45268     O
O      0.79603  0.72976  0.54732     O
V      0.84661  0.29409      0.5     V
V      0.84661      0.5  0.29409     V
V      0.84661      0.5  0.70591     V
V      0.84661  0.70591      0.5     V
O       0.8585   0.2105    0.395     O
O       0.8585   0.2105    0.605     O
O       0.8585    0.395   0.2105     O
O       0.8585    0.395   0.7895     O
O       0.8585    0.605   0.2105     O
O       0.8585    0.605   0.7895     O
O       0.8585   0.7895    0.395     O
O       0.8585   0.7895    0.605     O
O        0.895   0.2895   0.3585     O
O        0.895   0.2895   0.6415     O
O        0.895   0.3585   0.2895     O
O        0.895   0.3585   0.7105     O
O        0.895   0.6415   0.2895     O
O        0.895   0.6415   0.7105     O
O        0.895   0.7105   0.3585     O
O        0.895   0.7105   0.6415     O
O       0.8977   0.2759   0.4513     O
O       0.8977   0.2759   0.5487     O
O       0.8977   0.4513   0.2759     O
O       0.8977   0.4513   0.7241     O
O       0.8977   0.5487   0.2759     O
O       0.8977   0.5487   0.7241     O
O       0.8977   0.7241   0.4513     O
O       0.8977   0.7241   0.5487     O
P      0.90019     0.25  0.40019     P
P      0.90019     0.25  0.59981     P
P      0.90019  0.40019     0.25     P
P      0.90019  0.40019     0.75     P
P      0.90019  0.59981     0.25     P
P      0.90019  0.59981     0.75     P
P      0.90019     0.75  0.40019     P
P      0.90019     0.75  0.59981     P
V       0.9056  0.28579  0.28579     V
V       0.9056  0.28579  0.71421     V
V       0.9056  0.71421  0.28579     V
V       0.9056  0.71421  0.71421     V
O       0.9513   0.2241   0.3977     O
O       0.9513   0.2241   0.6023     O
O       0.9513   0.3977   0.2241     O
O       0.9513   0.3977   0.7759     O
O       0.9513   0.6023   0.2241     O
O       0.9513   0.6023   0.7759     O
O       0.9513   0.7759   0.3977     O
O       0.9513   0.7759   0.6023     O
O      0.95268  0.22976  0.29603     O
O      0.95268  0.22976  0.70397     O
O      0.95268  0.29603  0.22976     O
O      0.95268  0.29603  0.77024     O
O      0.95268  0.70397  0.22976     O
O      0.95268  0.70397  0.77024     O
O      0.95268  0.77024  0.29603     O
O      0.95268  0.77024  0.70397     O
