data_I
_chemical_name_common  '/home/zhangsd/repos/MofS-CGCNN/ML/data/SSD/clean_cifs/PENXUC_clean'
_cell_length_a  7.56090
_cell_length_b 14.18900
_cell_length_c 11.17400
_cell_angle_alpha 90.00000
_cell_angle_beta  99.04000
_cell_angle_gamma 90.00000
_space_group_name_H-M_alt      'P 1'


loop_
_space_group_symop_operation_xyz
  'x, y, z' 

loop_
_atom_site_label
_atom_site_fract_x
_atom_site_fract_y
_atom_site_fract_z
_atom_site_type_symbol
O       0.0311  0.78834  0.34787     O
V      0.05334  0.76846  0.78576     V
O        0.083  0.70276  0.13748     O
O       0.0856  0.21888  0.37383     O
V      0.08805  0.20291   0.8225     V
H       0.1087   0.0084   0.3735     H
H       0.1129    0.572   0.9447     H
H         0.13   0.9133   0.5427     H
O       0.1368  0.30586  0.16267     O
H       0.1612   0.4113   0.9433     H
F       0.1836  0.65869  0.73151     F
H        0.184   0.0835   0.5637     H
H       0.1863   0.4957   0.1331     H
O       0.1883  0.76776  0.95155     O
P       0.2191  0.80127  0.41934     P
C       0.2262      0.0   0.4215     C
P      0.22787  0.69818  0.05716     P
C       0.2298   0.5832   0.9921     C
C       0.2298   0.9107   0.4979     C
F       0.2412  0.32794   0.7613     F
O       0.2434  0.22222  0.98604     O
O       0.2566  0.72222  0.51396     O
F       0.2588  0.82794   0.7387     F
C       0.2702   0.0832   0.5079     C
C       0.2702   0.4107   0.0021     C
P      0.27213  0.19818  0.44284     P
C       0.2738      0.5   0.0785     C
P       0.2809  0.30127  0.08066     P
O       0.3117  0.26776  0.54845     O
H       0.3137   0.9957   0.3669     H
H        0.316   0.5835   0.9363     H
F       0.3164  0.15869  0.76849     F
H       0.3388   0.9113   0.5567     H
O       0.3632  0.80586  0.33733     O
H         0.37   0.4133   0.9573     H
H       0.3871    0.072   0.5553     H
H       0.3913   0.5084   0.1265     H
V      0.41195  0.70291   0.6775     V
O       0.4144  0.71888  0.12617     O
O        0.417  0.20276  0.36252     O
V      0.44666  0.26846  0.71424     V
O       0.4689  0.28834  0.15213     O
O       0.5311  0.71166  0.84787     O
V      0.55334  0.73154  0.28576     V
O        0.583  0.79724  0.63748     O
O       0.5856  0.28112  0.87383     O
V      0.58805  0.29709   0.3225     V
H       0.6087   0.4916   0.8735     H
H       0.6129    0.928   0.4447     H
H         0.63   0.5867   0.0427     H
O       0.6368  0.19414  0.66267     O
H       0.6612   0.0887   0.4433     H
F       0.6836  0.84131  0.23151     F
H        0.684   0.4165   0.0637     H
H       0.6863   0.0043   0.6331     H
O       0.6883  0.73224  0.45155     O
P       0.7191  0.69873  0.91934     P
C       0.7262      0.5   0.9215     C
P      0.72787  0.80182  0.55716     P
C       0.7298   0.5893   0.9979     C
C       0.7298   0.9168   0.4921     C
F       0.7412  0.17206   0.2613     F
O       0.7434  0.27778  0.48604     O
O       0.7566  0.77778  0.01396     O
F       0.7588  0.67206   0.2387     F
C       0.7702   0.0893   0.5021     C
C       0.7702   0.4168   0.0079     C
P      0.77213  0.30182  0.94284     P
C       0.7738      0.0   0.5785     C
P       0.7809  0.19873  0.58066     P
O       0.8117  0.23224  0.04845     O
H       0.8137   0.5043   0.8669     H
H        0.816   0.9165   0.4363     H
F       0.8164  0.34131  0.26849     F
H       0.8388   0.5887   0.0567     H
O       0.8632  0.69414  0.83733     O
H         0.87   0.0867   0.4573     H
H       0.8871    0.428   0.0553     H
H       0.8913   0.9916   0.6265     H
V      0.91195  0.79709   0.1775     V
O       0.9144  0.78112  0.62617     O
O        0.917  0.29724  0.86252     O
V      0.94666  0.23154  0.21424     V
O       0.9689  0.21166  0.65213     O
