data_I
_chemical_name_common  '/home/zhangsd/repos/MofS-CGCNN/ML/data/SSD/clean_cifs/PENZIS_clean'
_cell_length_a 10.10340
_cell_length_b 25.15500
_cell_length_c  9.10400
_cell_angle_alpha 90.00000
_cell_angle_beta  90.00000
_cell_angle_gamma 90.00000
_space_group_name_H-M_alt      'P 1'


loop_
_space_group_symop_operation_xyz
  'x, y, z' 

loop_
_atom_site_label
_atom_site_fract_x
_atom_site_fract_y
_atom_site_fract_z
_atom_site_type_symbol
H       0.0005   0.6879   0.0365     H
H       0.0005   0.8121   0.5365     H
H       0.0015    0.071   0.7097     H
H       0.0015    0.429   0.2097     H
O       0.0289  0.51748   0.2492     O
O       0.0289  0.98252   0.7492     O
P      0.06848  0.52763  0.78455     P
P      0.06848  0.97237  0.28455     P
P      0.10956   0.6807  0.09736     P
P      0.10956   0.8193  0.59736     P
O       0.1096  0.72294   0.2167     O
O       0.1096  0.77706   0.7167     O
O       0.1214   0.6259   0.1591     O
O       0.1214   0.8741   0.6591     O
O       0.1379  0.52068   0.9297     O
O       0.1379  0.97932   0.4297     O
Zn     0.15762  0.55301  0.12094    Zn
Zn     0.15762  0.94699  0.62094    Zn
O       0.1613  0.53275   0.6555     O
O       0.1613  0.96725   0.1555     O
O       0.1982  0.69087   0.9677     O
O       0.1982  0.80913   0.4677     O
Zn        0.25     0.75  0.34437    Zn
Zn        0.25     0.75  0.84437    Zn
O       0.3018  0.69087   0.4677     O
O       0.3018  0.80913   0.9677     O
O       0.3387  0.53275   0.1555     O
O       0.3387  0.96725   0.6555     O
Zn     0.34238  0.55301  0.62094    Zn
Zn     0.34238  0.94699  0.12094    Zn
O       0.3621  0.52068   0.4297     O
O       0.3621  0.97932   0.9297     O
O       0.3786   0.6259   0.6591     O
O       0.3786   0.8741   0.1591     O
O       0.3904  0.72294   0.7167     O
O       0.3904  0.77706   0.2167     O
P      0.39044   0.6807  0.59736     P
P      0.39044   0.8193  0.09736     P
P      0.43152  0.52763  0.28455     P
P      0.43152  0.97237  0.78455     P
O       0.4711  0.51748   0.7492     O
O       0.4711  0.98252   0.2492     O
H       0.4985    0.071   0.2097     H
H       0.4985    0.429   0.7097     H
H       0.4995   0.6879   0.5365     H
H       0.4995   0.8121   0.0365     H
H       0.5005   0.1879   0.9635     H
H       0.5005   0.3121   0.4635     H
H       0.5015    0.571   0.2903     H
H       0.5015    0.929   0.7903     H
O       0.5289  0.01748   0.7508     O
O       0.5289  0.48252   0.2508     O
P      0.56848  0.02763  0.21545     P
P      0.56848  0.47237  0.71545     P
P      0.60956   0.1807  0.90264     P
P      0.60956   0.3193  0.40264     P
O       0.6096  0.22294   0.7833     O
O       0.6096  0.27706   0.2833     O
O       0.6214   0.1259   0.8409     O
O       0.6214   0.3741   0.3409     O
O       0.6379  0.02068   0.0703     O
O       0.6379  0.47932   0.5703     O
Zn     0.65762  0.05301  0.87906    Zn
Zn     0.65762  0.44699  0.37906    Zn
O       0.6613  0.03275   0.3445     O
O       0.6613  0.46725   0.8445     O
O       0.6982  0.19087   0.0323     O
O       0.6982  0.30913   0.5323     O
Zn        0.75     0.25  0.15563    Zn
Zn        0.75     0.25  0.65563    Zn
O       0.8018  0.19087   0.5323     O
O       0.8018  0.30913   0.0323     O
O       0.8387  0.03275   0.8445     O
O       0.8387  0.46725   0.3445     O
Zn     0.84238  0.05301  0.37906    Zn
Zn     0.84238  0.44699  0.87906    Zn
O       0.8621  0.02068   0.5703     O
O       0.8621  0.47932   0.0703     O
O       0.8786   0.1259   0.3409     O
O       0.8786   0.3741   0.8409     O
O       0.8904  0.22294   0.2833     O
O       0.8904  0.27706   0.7833     O
P      0.89044   0.1807  0.40264     P
P      0.89044   0.3193  0.90264     P
P      0.93152  0.02763  0.71545     P
P      0.93152  0.47237  0.21545     P
O       0.9711  0.01748   0.2508     O
O       0.9711  0.48252   0.7508     O
H       0.9985    0.571   0.7903     H
H       0.9985    0.929   0.2903     H
H       0.9995   0.1879   0.4635     H
H       0.9995   0.3121   0.9635     H
