data_I
_chemical_name_common  '/home/zhangsd/repos/MofS-CGCNN/ML/data/SSD/clean_cifs/PEPLAY_clean'
_cell_length_a  6.80940
_cell_length_b 12.42200
_cell_length_c 17.17330
_cell_angle_alpha 90.00000
_cell_angle_beta  90.00000
_cell_angle_gamma 90.00000
_space_group_name_H-M_alt      'P 1'


loop_
_space_group_symop_operation_xyz
  'x, y, z' 

loop_
_atom_site_label
_atom_site_fract_x
_atom_site_fract_y
_atom_site_fract_z
_atom_site_type_symbol
H       0.0344   0.5421   0.3199     H
H       0.0346   0.5758      0.7     H
H       0.0506   0.4764   0.8138     H
H       0.0546   0.4443   0.2058     H
V      0.06055  0.26567  0.00084     V
O       0.0606   0.8446  0.41071     O
O       0.0606   0.8672  0.57524     O
C       0.0673   0.9597   0.2725     C
C       0.0709   0.9926   0.7079     C
C       0.0797   0.0185   0.2045     C
C       0.0801   0.0522   0.7761     C
O       0.1119   0.1483  0.07571     O
O       0.1122   0.1711  0.91063     O
O       0.2217  0.68315  0.50492     O
C       0.2265   0.8614  0.38222     C
C       0.2293    0.887  0.60193     C
C       0.2383   0.9236  0.30846     C
C       0.2388   0.9574  0.67237     C
C       0.2612   0.0426  0.17237     C
C       0.2617   0.0764  0.80846     C
C       0.2707    0.113  0.10193     C
C       0.2735   0.1386  0.88222     C
O       0.2783  0.31685  0.00492     O
O       0.3878   0.8289  0.41063     O
O       0.3881   0.8517  0.57571     O
C       0.4199   0.9478   0.2761     C
C       0.4203   0.9815   0.7045     C
C       0.4291   0.0074   0.2079     C
C       0.4327   0.0403   0.7725     C
O       0.4394   0.1328  0.07524     O
O       0.4394   0.1554  0.91071     O
V      0.43945  0.73433  0.50084     V
H       0.4454   0.5557   0.7058     H
H       0.4494   0.5236   0.3138     H
H       0.4654   0.4242      0.2     H
H       0.4656   0.4579   0.8199     H
H       0.5344   0.9579   0.6801     H
H       0.5346   0.9242      0.3     H
H       0.5506   0.0236   0.1862     H
H       0.5546   0.0557   0.7942     H
V      0.56055  0.23433  0.99916     V
O       0.5606   0.6328  0.42476     O
O       0.5606   0.6554  0.58929     O
C       0.5673   0.5403   0.7275     C
C       0.5709   0.5074   0.2921     C
C       0.5797   0.4815   0.7955     C
C       0.5801   0.4478   0.2239     C
O       0.6119   0.3517  0.92429     O
O       0.6122   0.3289  0.08937     O
O       0.7217  0.81685  0.49508     O
C       0.7265   0.6386  0.61778     C
C       0.7293    0.613  0.39807     C
C       0.7383   0.5764  0.69154     C
C       0.7388   0.5426  0.32763     C
C       0.7612   0.4574  0.82763     C
C       0.7617   0.4236  0.19154     C
C       0.7707    0.387  0.89807     C
C       0.7735   0.3614  0.11778     C
O       0.7783  0.18315  0.99508     O
O       0.8878   0.6711  0.58937     O
O       0.8881   0.6483  0.42429     O
C       0.9199   0.5522   0.7239     C
C       0.9203   0.5185   0.2955     C
C       0.9291   0.4926   0.7921     C
C       0.9327   0.4597   0.2275     C
O       0.9394   0.3446  0.08929     O
O       0.9394   0.3672  0.92476     O
V      0.93945  0.76567  0.49916     V
H       0.9454   0.9443   0.2942     H
H       0.9494   0.9764   0.6862     H
H       0.9654   0.0758      0.8     H
H       0.9656   0.0421   0.1801     H
