data_I
_chemical_name_common  '/home/zhangsd/repos/MofS-CGCNN/ML/data/SSD/clean_cifs/PIHWAG_clean'
_cell_length_a  8.20600
_cell_length_b 14.18330
_cell_length_c 14.18330
_cell_angle_alpha 110.03100
_cell_angle_beta  91.26500
_cell_angle_gamma 88.73500
_space_group_name_H-M_alt      'P 1'


loop_
_space_group_symop_operation_xyz
  'x, y, z' 

loop_
_atom_site_label
_atom_site_fract_x
_atom_site_fract_y
_atom_site_fract_z
_atom_site_type_symbol
La     0.00345  0.74878    0.218    La
H       0.0267   0.2249   0.3397     H
H       0.0509   0.0395   0.5707     H
O       0.0532   0.8711   0.3985     O
C       0.0683   0.5853   0.5511     C
S       0.0999  0.57633  0.42823     S
O       0.1095   0.6123   0.0593     O
C       0.1238   0.0714   0.5404     C
H       0.1267   0.6857   0.6865     H
H       0.1317   0.2146   0.6478     H
C       0.1365    0.667   0.6158     C
C       0.1583   0.9228   0.3786     C
C       0.1696   0.1719   0.5845     C
C        0.194   0.0242   0.4502     C
C       0.2167   0.6833   0.4657     C
C       0.2259   0.7239   0.5687     C
C        0.229   0.6595   0.0463     C
S       0.2359  0.52682  0.85064     S
O       0.2363   0.8912   0.2958     O
O       0.2475   0.6846   0.3004     O
C       0.2749   0.2026   0.5268     C
H       0.2771   0.3574   0.6948     H
H       0.2846   0.7828   0.6044     H
O       0.2903   0.7323   0.1167     O
C       0.2948   0.7203   0.3923     C
C          0.3   0.6324   0.9454     C
S       0.3213  0.10408  0.41864     S
C       0.3271   0.3751   0.6435     C
C       0.3425   0.3034   0.5478     C
C       0.3672   0.5478   0.7674     C
C       0.3851   0.4739   0.6655     C
O       0.4061   0.7818   0.4208     O
C       0.4147   0.6824   0.9122     C
C       0.4186   0.3302   0.4736     C
H       0.4287   0.2818   0.4082     H
C       0.4517   0.6349   0.8103     C
C       0.4594    0.497   0.5888     C
H       0.4639   0.7429   0.9537     H
C       0.4802    0.426   0.4928     C
H       0.4973   0.5632   0.6022     H
La     0.50345    0.782  0.25122    La
H       0.5267   0.6603   0.7751     H
H       0.5509   0.4293   0.9605     H
O       0.5532   0.6015   0.1289     O
C       0.5683   0.4489   0.4147     C
S       0.5999  0.57177  0.42367     S
O       0.6095   0.9407   0.3877     O
C       0.6238   0.4596   0.9286     C
H       0.6267   0.3135   0.3143     H
H       0.6317   0.3522   0.7854     H
C       0.6365   0.3842    0.333     C
C       0.6583   0.6214   0.0772     C
C       0.6696   0.4155   0.8281     C
C        0.694   0.5498   0.9758     C
C       0.7167   0.5343   0.3167     C
C       0.7259   0.4313   0.2761     C
C        0.729   0.9537   0.3405     C
S       0.7359  0.14936  0.47318     S
O       0.7363   0.7042   0.1088     O
O       0.7475   0.6996   0.3154     O
C       0.7749   0.4732   0.7974     C
H       0.7771   0.3052   0.6426     H
H       0.7846   0.3956   0.2172     H
O       0.7903   0.8833   0.2677     O
C       0.7948   0.6077   0.2797     C
C          0.8   0.0546   0.3676     C
S       0.8213  0.58136  0.89592     S
C       0.8271   0.3565   0.6249     C
C       0.8425   0.4522   0.6966     C
C       0.8672   0.2326   0.4522     C
C       0.8851   0.3345   0.5261     C
O       0.9061   0.5792   0.2182     O
C       0.9147   0.0878   0.3176     C
C       0.9186   0.5264   0.6698     C
H       0.9287   0.5918   0.7182     H
C       0.9517   0.1897   0.3651     C
C       0.9594   0.4112    0.503     C
H       0.9639   0.0463   0.2571     H
C       0.9802   0.5072    0.574     C
H       0.9973   0.3978   0.4368     H
