data_I
_chemical_name_common  '/home/zhangsd/repos/MofS-CGCNN/ML/data/SSD/clean_cifs/PIYZED01_clean'
_cell_length_a 12.68300
_cell_length_b 12.68300
_cell_length_c 12.68300
_cell_angle_alpha 90.00000
_cell_angle_beta  90.00000
_cell_angle_gamma 90.00000
_space_group_name_H-M_alt      'P 1'


loop_
_space_group_symop_operation_xyz
  'x, y, z' 

loop_
_atom_site_label
_atom_site_fract_x
_atom_site_fract_y
_atom_site_fract_z
_atom_site_type_symbol
C      0.02612  0.02612  0.52612     C
C      0.02612  0.22388  0.72388     C
C      0.02612  0.52612  0.02612     C
C      0.02612  0.72388  0.22388     C
Cd       0.125    0.125    0.625    Cd
Cd       0.125    0.625    0.125    Cd
C      0.22388  0.02612  0.72388     C
C      0.22388  0.22388  0.52612     C
C      0.22388  0.52612  0.22388     C
C      0.22388  0.72388  0.02612     C
C      0.27612  0.27612  0.47388     C
C      0.27612  0.47388  0.27612     C
C      0.27612  0.77612  0.97388     C
C      0.27612  0.97388  0.77612     C
Cd       0.375    0.375    0.375    Cd
Cd       0.375    0.875    0.875    Cd
C      0.47388  0.27612  0.27612     C
C      0.47388  0.47388  0.47388     C
C      0.47388  0.77612  0.77612     C
C      0.47388  0.97388  0.97388     C
C      0.52612  0.02612  0.02612     C
C      0.52612  0.22388  0.22388     C
C      0.52612  0.52612  0.52612     C
C      0.52612  0.72388  0.72388     C
Cd       0.625    0.125    0.125    Cd
Cd       0.625    0.625    0.625    Cd
C      0.72388  0.02612  0.22388     C
C      0.72388  0.22388  0.02612     C
C      0.72388  0.52612  0.72388     C
C      0.72388  0.72388  0.52612     C
C      0.77612  0.27612  0.97388     C
C      0.77612  0.47388  0.77612     C
C      0.77612  0.77612  0.47388     C
C      0.77612  0.97388  0.27612     C
Cd       0.875    0.375    0.875    Cd
Cd       0.875    0.875    0.375    Cd
C      0.97388  0.27612  0.77612     C
C      0.97388  0.47388  0.97388     C
C      0.97388  0.77612  0.27612     C
C      0.97388  0.97388  0.47388     C
