data_I
_chemical_name_common  '/home/zhangsd/repos/MofS-CGCNN/ML/data/SSD/clean_cifs/PIYZED_clean'
_cell_length_a 12.73430
_cell_length_b 12.73430
_cell_length_c 12.73430
_cell_angle_alpha 90.00000
_cell_angle_beta  90.00000
_cell_angle_gamma 90.00000
_space_group_name_H-M_alt      'P 1'


loop_
_space_group_symop_operation_xyz
  'x, y, z' 

loop_
_atom_site_label
_atom_site_fract_x
_atom_site_fract_y
_atom_site_fract_z
_atom_site_type_symbol
C       0.0262   0.0262   0.5262     C
C       0.0262   0.2238   0.7238     C
C       0.0262   0.5262   0.0262     C
C       0.0262   0.7238   0.2238     C
Cd       0.125    0.125    0.625    Cd
Cd       0.125    0.625    0.125    Cd
C       0.2238   0.0262   0.7238     C
C       0.2238   0.2238   0.5262     C
C       0.2238   0.5262   0.2238     C
C       0.2238   0.7238   0.0262     C
C       0.2762   0.2762   0.4738     C
C       0.2762   0.4738   0.2762     C
C       0.2762   0.7762   0.9738     C
C       0.2762   0.9738   0.7762     C
Cd       0.375    0.375    0.375    Cd
Cd       0.375    0.875    0.875    Cd
C       0.4738   0.2762   0.2762     C
C       0.4738   0.4738   0.4738     C
C       0.4738   0.7762   0.7762     C
C       0.4738   0.9738   0.9738     C
C       0.5262   0.0262   0.0262     C
C       0.5262   0.2238   0.2238     C
C       0.5262   0.5262   0.5262     C
C       0.5262   0.7238   0.7238     C
Cd       0.625    0.125    0.125    Cd
Cd       0.625    0.625    0.625    Cd
C       0.7238   0.0262   0.2238     C
C       0.7238   0.2238   0.0262     C
C       0.7238   0.5262   0.7238     C
C       0.7238   0.7238   0.5262     C
C       0.7762   0.2762   0.9738     C
C       0.7762   0.4738   0.7762     C
C       0.7762   0.7762   0.4738     C
C       0.7762   0.9738   0.2762     C
Cd       0.875    0.375    0.875    Cd
Cd       0.875    0.875    0.375    Cd
C       0.9738   0.2762   0.7762     C
C       0.9738   0.4738   0.9738     C
C       0.9738   0.7762   0.2762     C
C       0.9738   0.9738   0.4738     C
