data_I
_chemical_name_common  '/home/zhangsd/repos/MofS-CGCNN/ML/data/SSD/clean_cifs/POFSIN01_clean'
_cell_length_a 12.70010
_cell_length_b 12.70010
_cell_length_c 12.70010
_cell_angle_alpha 90.00000
_cell_angle_beta  90.00000
_cell_angle_gamma 90.00000
_space_group_name_H-M_alt      'P 1'


loop_
_space_group_symop_operation_xyz
  'x, y, z' 

loop_
_atom_site_label
_atom_site_fract_x
_atom_site_fract_y
_atom_site_fract_z
_atom_site_type_symbol
C       0.0254   0.0254   0.5254     C
C       0.0254   0.2246   0.7246     C
C       0.0254   0.5254   0.0254     C
C       0.0254   0.7246   0.2246     C
Cd       0.125    0.125    0.625    Cd
Cd       0.125    0.625    0.125    Cd
C       0.2246   0.0254   0.7246     C
C       0.2246   0.2246   0.5254     C
C       0.2246   0.5254   0.2246     C
C       0.2246   0.7246   0.0254     C
C       0.2754   0.2754   0.4746     C
C       0.2754   0.4746   0.2754     C
C       0.2754   0.7754   0.9746     C
C       0.2754   0.9746   0.7754     C
Cd       0.375    0.375    0.375    Cd
Cd       0.375    0.875    0.875    Cd
C       0.4746   0.2754   0.2754     C
C       0.4746   0.4746   0.4746     C
C       0.4746   0.7754   0.7754     C
C       0.4746   0.9746   0.9746     C
C       0.5254   0.0254   0.0254     C
C       0.5254   0.2246   0.2246     C
C       0.5254   0.5254   0.5254     C
C       0.5254   0.7246   0.7246     C
Cd       0.625    0.125    0.125    Cd
Cd       0.625    0.625    0.625    Cd
C       0.7246   0.0254   0.2246     C
C       0.7246   0.2246   0.0254     C
C       0.7246   0.5254   0.7246     C
C       0.7246   0.7246   0.5254     C
C       0.7754   0.2754   0.9746     C
C       0.7754   0.4746   0.7754     C
C       0.7754   0.7754   0.4746     C
C       0.7754   0.9746   0.2754     C
Cd       0.875    0.375    0.875    Cd
Cd       0.875    0.875    0.375    Cd
C       0.9746   0.2754   0.7754     C
C       0.9746   0.4746   0.9746     C
C       0.9746   0.7754   0.2754     C
C       0.9746   0.9746   0.4746     C
