data_I
_chemical_name_common  '/home/zhangsd/repos/MofS-CGCNN/ML/data/SSD/clean_cifs/POLYEW_clean'
_cell_length_a 13.17230
_cell_length_b 13.17230
_cell_length_c 15.86700
_cell_angle_alpha 92.68370
_cell_angle_beta  92.68370
_cell_angle_gamma 109.09300
_space_group_name_H-M_alt      'P 1'


loop_
_space_group_symop_operation_xyz
  'x, y, z' 

loop_
_atom_site_label
_atom_site_fract_x
_atom_site_fract_y
_atom_site_fract_z
_atom_site_type_symbol
H       0.0048   0.2426   0.4376     H
H       0.0058   0.8114   0.1354     H
C       0.0113   0.8989   0.5064     C
H       0.0142   0.2574   0.5376     H
H       0.0147   0.6173   0.1659     H
C       0.0242    0.789   0.5111     C
C       0.0302   0.9292   0.0509     C
C       0.0337   0.4899   0.3852     C
H       0.0337   0.5543   0.5993     H
C       0.0381   0.5587   0.3206     C
H       0.0508   0.0914   0.2793     H
C       0.0535   0.4111   0.8125     C
C       0.0585   0.0703   0.4434     C
C       0.0602   0.4442   0.7301     C
C       0.0657   0.8533   0.1047     C
C       0.0703   0.0585   0.9434     C
C       0.0708   0.9698   0.4491     C
H       0.0895   0.8053   0.0686     H
H       0.0914   0.0508   0.7793     H
H          0.1   0.7964   0.5113     H
C       0.1011   0.9887   0.9936     C
H       0.1054   0.8754   0.3556     H
C       0.1102    0.147   0.3051     C
H       0.1177   0.1393   0.6437     H
H       0.1205   0.4387   0.4712     H
C       0.1235   0.1483   0.3852     C
H       0.1246   0.8946   0.1444     H
C       0.1261   0.4849   0.4271     C
H       0.1358   0.3962   0.9182     H
H       0.1393   0.1177   0.1437     H
C         0.14   0.6278   0.3045     C
C       0.1432   0.4188   0.8628     C
H       0.1458     0.68   0.2649     H
C       0.1467   0.9343   0.3953     C
C        0.147   0.1102   0.8051     C
C       0.1483   0.1235   0.8852     C
C        0.163    0.481   0.7001     C
H       0.1703   0.4999   0.6438     H
C       0.1775   0.2227   0.2483     C
H       0.1815   0.2055   0.4109     H
C       0.1832    0.187   0.1646     C
C        0.187   0.1832   0.6646     C
H       0.1886   0.9942   0.3646     H
H       0.1947   0.9105   0.4314     H
H       0.2036      0.9   0.9887     H
H       0.2055   0.1815   0.9109     H
C        0.211   0.9758   0.9889     C
C       0.2227   0.1775   0.7483     C
C       0.2256   0.5462   0.4053     C
H       0.2284   0.2574   0.5572     H
C       0.2315   0.6211    0.345     C
H       0.2426   0.0048   0.9376     H
C        0.245   0.4596    0.833     C
C       0.2484   0.3208   0.2751     C
H       0.2524   0.3462   0.3319     H
C       0.2535   0.2539   0.1128     C
C       0.2536   0.4904   0.7505     C
C       0.2539   0.2535   0.6128     C
H       0.2574   0.0142   0.0376     H
H       0.2574   0.2284   0.0572     H
H       0.2991   0.6677    0.332     H
C       0.3142   0.3826   0.2192     C
O      0.31574  0.46926   0.5028     O
N        0.316   0.3532   0.1392     N
H         0.32   0.8542   0.2351     H
C       0.3208   0.2484   0.7751     C
H       0.3219   0.5179   0.7289     H
O      0.32553  0.42647  0.95872     O
C       0.3258    0.531   0.4434     C
H       0.3323   0.7009    0.168     H
C       0.3419   0.4705   0.8904     C
H       0.3462   0.2524   0.8319     H
N       0.3532    0.316   0.6392     N
H       0.3613   0.4507   0.2395     H
C       0.3722     0.86   0.1955     C
C       0.3789   0.7685    0.155     C
C       0.3826   0.3142   0.7192     C
H       0.3827   0.9853   0.3341     H
H       0.3962   0.1358   0.4182     H
C       0.4111   0.0535   0.3125     C
O      0.41285  0.57975   0.4116     O
C       0.4188   0.1432   0.3628     C
O      0.42025  0.58715   0.0884     O
O      0.42647  0.32553  0.45872     O
Zn     0.42758   0.4372  0.06078    Zn
O       0.4331   0.5223   0.8662     O
Zn      0.4372  0.42758  0.56078    Zn
H       0.4387   0.1205   0.9712     H
C       0.4413   0.9619   0.1794     C
C       0.4442   0.0602   0.2301     C
H       0.4457   0.9663   0.9007     H
H       0.4507   0.3613   0.7395     H
C       0.4538   0.7744   0.0947     C
C       0.4596    0.245    0.333     C
C        0.469   0.6742   0.0566     C
O      0.46926  0.31574   0.0028     O
C       0.4705   0.3419   0.3904     C
O       0.4777   0.5669   0.6338     O
C        0.481    0.163   0.2001     C
H       0.4821   0.6781   0.7711     H
C       0.4849   0.1261   0.9271     C
C       0.4899   0.0337   0.8852     C
C       0.4904   0.2536   0.2505     C
H       0.4999   0.1703   0.1438     H
H       0.5001   0.8297   0.8562     H
C       0.5096   0.7464   0.7495     C
C       0.5101   0.9663   0.1148     C
C       0.5151   0.8739   0.0729     C
H       0.5179   0.3219   0.2289     H
C        0.519    0.837   0.7999     C
O       0.5223   0.4331   0.3662     O
C       0.5295   0.6581   0.6096     C
O      0.53074  0.68426   0.9972     O
C        0.531   0.3258   0.9434     C
C       0.5404    0.755    0.667     C
C       0.5462   0.2256   0.9053     C
H       0.5493   0.6387   0.2605     H
H       0.5543   0.0337   0.0993     H
C       0.5558   0.9398   0.7699     C
C       0.5587   0.0381   0.8206     C
H       0.5613   0.8795   0.0288     H
Zn      0.5628  0.57242  0.43922    Zn
O       0.5669   0.4777   0.1338     O
Zn     0.57242   0.5628  0.93922    Zn
O      0.57353  0.67447  0.54128     O
O      0.57975  0.41285   0.9116     O
C       0.5812   0.8568   0.6372     C
O      0.58715  0.42025   0.5884     O
C       0.5889   0.9465   0.6875     C
H       0.6038   0.8642   0.5818     H
H       0.6173   0.0147   0.6659     H
C       0.6174   0.6858   0.2808     C
C       0.6211   0.2315    0.845     C
C       0.6278     0.14   0.8045     C
H       0.6387   0.5493   0.7605     H
N       0.6468    0.684   0.3608     N
H       0.6538   0.7476   0.1681     H
C       0.6581   0.5295   0.1096     C
H       0.6677   0.2991    0.832     H
C       0.6742    0.469   0.5566     C
O      0.67447  0.57353  0.04128     O
H       0.6781   0.4821   0.2711     H
C       0.6792   0.7516   0.2249     C
H         0.68   0.1458   0.7649     H
N        0.684   0.6468   0.8608     N
O      0.68426  0.53074   0.4972     O
C       0.6858   0.6174   0.7808     C
H       0.7009   0.3323    0.668     H
H       0.7426   0.7716   0.9428     H
H       0.7426   0.9858   0.9624     H
C       0.7461   0.7465   0.3872     C
C       0.7464   0.5096   0.2495     C
C       0.7465   0.7461   0.8872     C
H       0.7476   0.6538   0.6681     H
C       0.7516   0.6792   0.7249     C
C        0.755   0.5404    0.167     C
H       0.7574   0.9952   0.0624     H
C       0.7685   0.3789    0.655     C
H       0.7716   0.7426   0.4428     H
C       0.7744   0.4538   0.5947     C
C       0.7773   0.8225   0.2517     C
C        0.789   0.0242   0.0111     C
H       0.7945   0.8185   0.0891     H
H       0.7964      0.1   0.0113     H
H       0.8053   0.0895   0.5686     H
H       0.8114   0.0058   0.6354     H
C        0.813   0.8168   0.3354     C
C       0.8168    0.813   0.8354     C
H       0.8185   0.7945   0.5891     H
C       0.8225   0.7773   0.7517     C
H       0.8297   0.5001   0.3562     H
C        0.837    0.519   0.2999     C
C       0.8517   0.8765   0.1148     C
C        0.853   0.8898   0.1949     C
C       0.8533   0.0657   0.6047     C
H       0.8542     0.32   0.7351     H
C       0.8568   0.5812   0.1372     C
C         0.86   0.3722   0.6955     C
H       0.8607   0.8823   0.8563     H
H       0.8642   0.6038   0.0818     H
C       0.8739   0.5151   0.5729     C
H       0.8754   0.1054   0.8556     H
C       0.8765   0.8517   0.6148     C
H       0.8795   0.5613   0.5288     H
H       0.8823   0.8607   0.3563     H
C       0.8898    0.853   0.6949     C
H       0.8946   0.1246   0.6444     H
C       0.8989   0.0113   0.0064     C
H          0.9   0.2036   0.4887     H
H       0.9086   0.9492   0.2207     H
H       0.9105   0.1947   0.9314     H
C       0.9292   0.0302   0.5509     C
C       0.9297   0.9415   0.0566     C
C       0.9343   0.1467   0.8953     C
C       0.9398   0.5558   0.2699     C
C       0.9415   0.9297   0.5566     C
C       0.9465   0.5889   0.1875     C
H       0.9492   0.9086   0.7207     H
C       0.9619   0.4413   0.6794     C
H       0.9663   0.4457   0.4007     H
C       0.9663   0.5101   0.6148     C
C       0.9698   0.0708   0.9491     C
C       0.9758    0.211   0.4889     C
H       0.9853   0.3827   0.8341     H
H       0.9858   0.7426   0.4624     H
C       0.9887   0.1011   0.4936     C
H       0.9942   0.1886   0.8646     H
H       0.9952   0.7574   0.5624     H
