data_I
_chemical_name_common  '/home/zhangsd/repos/MofS-CGCNN/ML/data/SSD/clean_cifs/PORVID_clean'
_cell_length_a 10.57500
_cell_length_b 11.66000
_cell_length_c 15.76700
_cell_angle_alpha 106.08000
_cell_angle_beta  90.73000
_cell_angle_gamma 94.05000
_space_group_name_H-M_alt      'P 1'


loop_
_space_group_symop_operation_xyz
  'x, y, z' 

loop_
_atom_site_label
_atom_site_fract_x
_atom_site_fract_y
_atom_site_fract_z
_atom_site_type_symbol
O       0.0023   0.7863   0.2807     O
C       0.0025    0.221   0.1406     C
O       0.0032   0.5064   0.5836     O
O       0.0033   0.5063   0.0827     O
C       0.0047   0.8942   0.9326     C
Cu     0.00736  0.64248  0.18503    Cu
C       0.0078   0.8936   0.4321     C
C        0.009   0.9985   0.0873     C
H       0.0101   0.5235    0.871     H
C       0.0117   0.1111   0.4803     C
H       0.0131   0.5322    0.375     H
Cu     0.01317  0.64399  0.68569    Cu
C       0.0142   0.8912   0.0211     C
H       0.0149   0.9982   0.1462     H
C       0.0178    0.004   0.4146     C
C       0.0222   0.7812   0.3607     C
O       0.0285   0.7891   0.7826     O
H       0.0289   0.0065   0.3567     H
C       0.0294    0.226   0.4538     C
C        0.035   0.7804   0.0488     C
O       0.0396   0.3152    0.126     O
O       0.0495   0.2511   0.9032     O
O        0.053   0.6923   0.3798     O
O       0.0586   0.7558   0.5958     O
O        0.128   0.2926   0.4763     O
O       0.1355   0.7309    0.031     O
Cu     0.13781  0.49601  0.49972    Cu
Cu     0.13876   0.5252  0.00175    Cu
O       0.1732    0.386   0.2928     O
O       0.1817   0.3967   0.7889     O
O        0.184   0.6024   0.2159     O
O       0.1896   0.6073   0.7188     O
C       0.2587   0.4578   0.3348     C
O       0.2645   0.5142   0.4163     O
C       0.2663   0.4686    0.833     C
C       0.2669   0.5476   0.1677     C
O        0.268   0.5231   0.9146     O
O       0.2698   0.5194    0.085     O
C       0.2741   0.5586   0.6701     C
O       0.2758   0.5339   0.5871     O
C       0.3789    0.478   0.2882     C
C       0.3822   0.5161   0.2117     C
C       0.3882   0.4918   0.7894     C
C       0.3913   0.5302   0.7128     C
H       0.4901   0.4321   0.3767     H
C       0.4923   0.4562   0.3253     C
C       0.4987   0.5285   0.1735     C
H       0.4993   0.4488   0.8786     H
H       0.5007   0.5512   0.1214     H
C       0.5013   0.4715   0.8265     C
C       0.5077   0.5438   0.6747     C
H       0.5099   0.5679   0.6233     H
C       0.6087   0.4698   0.2872     C
C       0.6118   0.5082   0.2106     C
C       0.6178   0.4839   0.7883     C
C       0.6211    0.522   0.7118     C
O       0.7242   0.4661   0.4129     O
C       0.7259   0.4414   0.3299     C
O       0.7302   0.4806    0.915     O
O        0.732   0.4769   0.0854     O
C       0.7331   0.4524   0.8323     C
C       0.7337   0.5314    0.167     C
O       0.7355   0.4858   0.5837     O
C       0.7413   0.5422   0.6652     C
O       0.8104   0.3927   0.2812     O
O        0.816   0.3976   0.7841     O
O       0.8183   0.6033   0.2111     O
O       0.8268    0.614   0.7072     O
Cu     0.86124   0.4748  0.99825    Cu
Cu     0.86219  0.50399  0.50028    Cu
O       0.8645   0.2691    0.969     O
O        0.872   0.7074   0.5237     O
O       0.9414   0.2442   0.4042     O
O        0.947   0.3077   0.6202     O
O       0.9505   0.7489   0.0968     O
O       0.9604   0.6848    0.874     O
C        0.965   0.2196   0.9512     C
C       0.9706    0.774   0.5462     C
H       0.9711   0.9935   0.6433     H
O       0.9715   0.2109   0.2174     O
C       0.9778   0.2188   0.6393     C
C       0.9822    0.996   0.5854     C
H       0.9851   0.0018   0.8538     H
C       0.9858   0.1088   0.9789     C
Cu     0.98683  0.35601  0.31431    Cu
H       0.9869   0.4678    0.625     H
C       0.9883   0.8889   0.5197     C
H       0.9899   0.4765    0.129     H
C        0.991   0.0015   0.9127     C
C       0.9922   0.1064   0.5679     C
Cu     0.99264  0.35752  0.81497    Cu
C       0.9953   0.1058   0.0674     C
O       0.9967   0.4937   0.9173     O
O       0.9968   0.4936   0.4164     O
C       0.9975    0.779   0.8594     C
O       0.9977   0.2137   0.7193     O
