data_I
_chemical_name_common  '/home/zhangsd/repos/MofS-CGCNN/ML/data/SSD/clean_cifs/PUDSUD_clean'
_cell_length_a 15.01620
_cell_length_b 19.21410
_cell_length_c 30.38120
_cell_angle_alpha 98.39490
_cell_angle_beta  90.00000
_cell_angle_gamma 113.00200
_space_group_name_H-M_alt      'P 1'


loop_
_space_group_symop_operation_xyz
  'x, y, z' 

loop_
_atom_site_label
_atom_site_fract_x
_atom_site_fract_y
_atom_site_fract_z
_atom_site_type_symbol
C       0.0089   0.6888   0.2832     C
H       0.0208   0.5824    0.642     H
H       0.0255   0.3802   0.8521     H
H       0.0259   0.6952   0.2542     H
C      0.03053  0.33306   0.8494     C
C      0.03054  0.63388   0.6455     C
C      0.03573  0.26786   0.3474     C
C      0.03817  0.72834   0.3614     C
C       0.0427   0.8034    0.157     C
C      0.04442  0.33244   0.6304     C
C      0.04597  0.34314   0.3514     C
C       0.0492   0.1928   0.8429     C
C      0.05024  0.73448   0.1534     C
H        0.054   0.1456   0.8408     H
C      0.05725   0.7877   0.6533     C
H       0.0622   0.3384   0.6014     H
C      0.06441  0.73962   0.3185     C
H       0.0671    0.839   0.6556     H
C      0.07275   0.3723   0.7089     C
O      0.07344  0.84508  0.42617     O
H       0.0916   0.1456   0.3408     H
H       0.0984    0.848   0.1594     H
C      0.09886  0.38332   0.6661     C
H       0.1111   0.4068   0.7329     H
C       0.1196   0.3272    0.848     C
S       0.1202  0.80156  0.40169     S
C      0.12248  0.69116   0.6476     C
C      0.12745   0.2587   0.3457     C
C      0.13125   0.2587   0.8457     C
C      0.13517  0.76654   0.6506     C
C       0.1436   0.1928   0.3429     C
C      0.14895   0.7317   0.1516     C
O      0.15091  0.66782  0.13801     O
C      0.15347  0.81214   0.3182     C
S      0.16939  0.40404  0.34975     S
O      0.17457  0.77174  0.42639     O
H       0.1748    0.816   0.2533     H
O       0.1851   0.4352   0.3086     O
C      0.18973  0.85106   0.3603     C
H         0.19   0.5878   0.3501     H
C      0.19102  0.44944   0.6584     C
H       0.1974    0.804   0.6507     H
C      0.19843  0.84206   0.2819     C
O      0.19874  0.60408  0.64303     O
H       0.2035   0.6046    0.277     H
O      0.20458  0.45576   0.3907     O
C       0.2076   0.3272    0.348     C
C      0.20975   0.6705   0.6463     C
H       0.2101    0.582   0.4312     H
O      0.21729  0.45298  0.61934     O
O      0.21986  0.79452  0.16237     O
H       0.2281    0.161   0.8444     H
O      0.22836  0.15492  0.07383     O
Nd      0.2312   0.5817  0.14105    Nd
C      0.23213  0.26786   0.8474     C
S      0.23465  0.40404  0.84975     S
O      0.23569  0.45298  0.11934     O
C      0.23763  0.63146   0.3422     C
O      0.23826  0.49712  0.69157     O
C       0.2393   0.1966    0.343     C
C      0.24397  0.64314   0.2989     C
H       0.2493   0.5936   0.5058     H
O       0.2501   0.4352   0.8086     O
H       0.2504    0.152   0.3406     H
O      0.25118  0.45576   0.8907     O
C      0.25842  0.44944   0.1584     C
O      0.25886  0.49712  0.19157     O
C      0.26125   0.6251   0.4455     C
C       0.2687   0.9198    0.368     C
O      0.26887  0.66174  0.21079     O
C      0.26955   0.2123   0.8467     C
O      0.27125   0.8155  0.90237     O
H       0.2762   0.3384   0.1014     H
C      0.27851  0.91062   0.2877     C
C      0.28446  0.38332   0.1661     C
C      0.28477  0.63254   0.4902     C
C      0.28802  0.33244   0.1304     C
O      0.28901  0.63782  0.07577     O
H       0.2916   0.9456   0.3967     H
O      0.29168  0.72356    0.649     O
H       0.2957   0.4068   0.2329     H
C      0.29717  0.34314   0.8514     C
C      0.29955   0.3723   0.2089     C
C      0.30253  0.33306   0.3494     C
C      0.30458  0.68676   0.3746     C
H        0.309    0.931   0.2631     H
C      0.30912  0.71084   0.2863     C
C      0.30983  0.27166   0.1386     C
C      0.31285   0.9487   0.3303     C
C      0.31298  0.72036   0.2381     C
C      0.31528  0.68316   0.4222     C
C      0.31576  0.26552   0.3466     C
C      0.31657  0.69994   0.0613     C
S      0.31864  0.19844  0.09831     S
C       0.3201   0.3112   0.2168     C
C      0.32479  0.26038   0.1815     C
O      0.32796  0.76392   0.0828     O
H       0.3307   0.3048   0.2458     H
C      0.33676  0.69632  0.01231     C
C      0.33867  0.14894   0.1397     C
H       0.3387   0.7996   0.0043     H
C      0.34133  0.18786   0.1818     C
C      0.34403  0.75546   0.9897     C
H       0.3443   0.5936   0.0058     H
H        0.346   0.0544   0.1033     H
C      0.34777  0.63254   0.9902     C
O      0.34881  0.63782  0.57577     O
C       0.3489   0.0802    0.132     C
Nd      0.3505   0.5817  0.64105    Nd
H       0.3547   0.3802   0.3521     H
C      0.35637  0.15794   0.2181     C
O      0.35808  0.78576  0.22907     O
H       0.3588    0.184   0.2467     H
C      0.35921  0.74762   0.9455     C
C      0.35956  0.69632  0.51231     C
S      0.36359  0.81208  0.90815     S
C      0.36385   0.6251   0.9455     C
O      0.36388  0.93716  0.12484     O
C      0.36415   0.0513   0.1697     C
C      0.36788  0.68316   0.9222     C
C      0.36789  0.08938   0.2123     C
C      0.36863  0.23346   0.8494     C
C      0.36948  0.75256    0.362     C
H       0.3719    0.582   0.9312     H
C      0.37256  0.76632   0.3185     C
C      0.37578  0.97516   0.1631     C
H        0.378    0.069   0.2369     H
C      0.38218  0.68676   0.8746     C
C      0.38308  0.75256    0.862     C
C      0.38337  0.69994   0.5613     C
C      0.38841  0.74762   0.4455     C
Nd     0.39006  0.83026  0.15679    Nd
O      0.39287  0.66174  0.71079     O
H       0.3934    0.196   0.8493     H
C      0.39376  0.76632   0.8185     C
C      0.39383  0.63146   0.8422     C
H       0.3954    0.812    0.811     H
O      0.39652  0.95304  0.19657     O
C      0.39666  0.36612   0.8545     C
H       0.3978   0.5878   0.8501     H
C      0.39917  0.64314   0.7989     C
C      0.40062  0.02484   0.3369     C
H       0.4011   0.6046    0.777     H
C      0.40172  0.71084   0.7863     C
O      0.40283  0.22826  0.07361     O
O      0.40534  0.60408  0.14303     O
C      0.40738  0.72036   0.7381     C
C      0.41143  0.75546   0.4897     C
H       0.4166    0.812    0.311     H
C      0.41725   0.2683   0.3484     C
O      0.42534  0.20548  0.33763     O
O      0.42672  0.06284  0.37516     O
O      0.42768  0.78576  0.72907     O
C      0.43132  0.30884   0.8524     C
O      0.43188  0.72356    0.149     O
O      0.43596  0.76392   0.5828     O
H       0.4384   0.4176    0.858     H
O      0.43873  0.88386  0.41912     O
Nd      0.4402  0.83026  0.65679    Nd
O      0.44348  0.04696  0.30343     O
O      0.44513  0.88386  0.91912     O
S      0.44849  0.81208  0.40815     S
O      0.45575   0.1845  0.59763     O
C      0.46075   0.6705   0.1463     C
H       0.4609   0.7996   0.5043     H
O      0.48309  0.33218  0.36199     O
O      0.51691  0.66782  0.63801     O
H       0.5391   0.2004   0.4957     H
C      0.53925   0.3295   0.8537     C
O      0.54425   0.8155  0.40237     O
S      0.55151  0.18792  0.59185     S
O      0.55487  0.11614  0.08088     O
O      0.55652  0.95304  0.69657     O
Nd      0.5598  0.16974  0.34321    Nd
O      0.56127  0.11614  0.58088     O
H       0.5616   0.5824    0.142     H
O      0.56404  0.23608   0.4172     O
O      0.56812  0.27644    0.851     O
C      0.56868  0.69116   0.1476     C
O      0.57232  0.21424  0.27093     O
O      0.57328  0.93716  0.62484     O
O      0.57466  0.79452  0.66237     O
C      0.58275   0.7317   0.6516     C
H       0.5834    0.188    0.689     H
C      0.58857  0.24454   0.5103     C
C      0.59262  0.27964   0.2619     C
O      0.59466  0.39592  0.85697     O
O      0.59717  0.77174  0.92639     O
C      0.59828  0.28916   0.2137     C
H       0.5989   0.3954    0.223     H
C      0.59938  0.97516   0.6631     C
C      0.60083  0.35686   0.2011     C
H       0.6022   0.4122   0.1499     H
C      0.60334  0.63388   0.1455     C
O      0.60348  0.04696  0.80343     O
H       0.6046    0.188    0.189     H
C      0.60617  0.36854   0.1578     C
C      0.60624  0.23368   0.1815     C
H       0.6066    0.804   0.1507     H
O      0.60713  0.33826  0.28921     O
Nd     0.60994  0.16974  0.84321    Nd
C      0.61159  0.25238   0.5545     C
C      0.61663  0.30006   0.4387     C
C      0.61692  0.24744    0.138     C
C      0.61782  0.31324   0.1254     C
H        0.622    0.931   0.7631     H
C      0.62422  0.02484   0.8369     C
C      0.62744  0.23368   0.6815     C
H       0.6281    0.418   0.0688     H
C      0.63052  0.24744    0.638     C
C      0.63137  0.76654   0.1506     C
C      0.63211  0.91062   0.7877     C
C      0.63212  0.31684   0.0778     C
C      0.63585   0.9487   0.8303     C
O      0.63612  0.06284  0.87516     O
C      0.63615   0.3749   0.0545     C
S      0.63641  0.18792  0.09185     S
C      0.64044  0.30368  0.48769     C
C      0.64079  0.25238   0.0545     C
H       0.6412    0.816   0.7533     H
O      0.64192  0.21424  0.77093     O
C      0.64363  0.84206   0.7819     C
H       0.6453   0.6198   0.6479     H
Nd      0.6495   0.4183  0.35895    Nd
C       0.6511   0.9198    0.868     C
O      0.65119  0.36218  0.42423     O
C      0.65223  0.36746   0.0098     C
H        0.654   0.9456   0.8967     H
H       0.6557   0.4064   0.9942     H
C      0.65597  0.24454   0.0103     C
C      0.65867  0.81214   0.8182     C
H       0.6613   0.2004   0.9957     H
C      0.66133  0.85106   0.8603     C
C      0.66324  0.30368  0.98769     C
H       0.6693   0.6952   0.7542     H
O      0.67204  0.23608   0.9172     O
C      0.67521  0.73962   0.8185     C
C       0.6799   0.6888   0.7832     C
S      0.68136  0.80156  0.90169     S
C      0.68343  0.30006   0.9387     C
C      0.68424  0.73448   0.6534     C
C      0.68472  0.31684   0.5778     C
C      0.68702  0.27964   0.7619     C
C      0.68715   0.0513   0.6697     C
C      0.69017  0.72834   0.8614     C
C      0.69088  0.28916   0.7137     C
H        0.691    0.069   0.7369     H
C      0.69542  0.31324   0.6254     C
C      0.69747  0.66694   0.6506     C
C      0.70045   0.6277   0.7911     C
C      0.70283  0.65686   0.1486     C
H       0.7043   0.5932   0.7671     H
O      0.70832  0.27644    0.351     O
H       0.7084   0.0544   0.6033     H
O      0.71099  0.36218  0.92423     O
C      0.71198  0.66756   0.8696     C
C      0.71523  0.36746   0.5098     C
C      0.71554  0.61668   0.8339     C
C      0.72149  0.08938   0.7123     C
H       0.7238   0.6616   0.8986     H
O      0.72875   0.1845  0.09763     O
C      0.73045   0.7877   0.1533     C
O      0.73113  0.33826  0.78921     O
C       0.7313   0.0802    0.632     C
C      0.73875   0.3749   0.5545     C
O      0.74114  0.50288  0.80843     O
C      0.74158  0.55056   0.8416     C
O      0.74882  0.54424   0.1093     O
H       0.7496    0.848   0.6594     H
O       0.7499   0.5648   0.1914     O
H       0.7507   0.4064   0.4942     H
C      0.75603  0.35686   0.7011     C
C       0.7607   0.8034    0.657     C
O      0.76174  0.50288  0.30843     O
C      0.76237  0.36854   0.6578     C
O      0.76431  0.54702  0.88066     O
S      0.76535  0.59596  0.15025     S
C      0.76787  0.73214   0.1526     C
Nd      0.7688   0.4183  0.85895    Nd
O      0.77164  0.84508  0.92617     O
H       0.7719    0.839   0.1556     H
O      0.78014  0.20548  0.83763     O
O      0.78271  0.54702  0.38066     O
H       0.7899    0.418   0.5688     H
C      0.79025   0.3295   0.3537     C
C       0.7924   0.6728    0.652     C
O      0.79542  0.54424   0.6093     O
H       0.7965   0.3954    0.723     H
O      0.80126  0.39592  0.35697     O
C      0.80157  0.15794   0.7181     C
H       0.8026    0.196   0.3493     H
C      0.80898  0.55056   0.3416     C
H         0.81   0.4122   0.6499     H
C      0.81027  0.14894   0.6397     C
O       0.8149   0.5648   0.6914     O
H       0.8252    0.184   0.7467     H
O      0.82543  0.22826  0.57361     O
S      0.83061  0.59596  0.65025     S
C      0.84653  0.18786   0.6818     C
O      0.84909  0.33218  0.86199     O
C      0.85105   0.2683   0.8484     C
C       0.8564   0.8072   0.6571     C
C      0.86483  0.23346   0.3494     C
C      0.86875   0.7413   0.1543     C
C      0.87255   0.7413   0.6543     C
C      0.87752  0.30884   0.3524     C
S       0.8798  0.19844  0.59831     S
C       0.8804   0.6728    0.152     C
H       0.8889   0.5932   0.2671     H
C      0.90114  0.61668   0.3339     C
H       0.9016    0.152   0.8406     H
H       0.9084   0.8544   0.6592     H
O      0.92656  0.15492  0.57383     O
C      0.92725   0.6277   0.2911     C
H       0.9329    0.161   0.3444     H
C      0.93559  0.26038   0.6815     C
H       0.9378   0.6616   0.3986     H
C      0.94275   0.2123   0.3467     C
H        0.946   0.8544   0.1592     H
C      0.94976  0.26552   0.8466     C
C       0.9508   0.8072   0.1571     C
C      0.95403  0.65686   0.6486     C
C      0.95558  0.66756   0.3696     C
C       0.9573   0.1966    0.843     C
C      0.96183  0.27166   0.6386     C
C      0.96427  0.73214   0.6526     C
C      0.96946  0.36612   0.3545     C
C      0.96947  0.66694   0.1506     C
H       0.9741   0.3048   0.7458     H
H       0.9745   0.6198   0.1479     H
H       0.9792   0.4176    0.358     H
C       0.9911   0.3112   0.7168     C
