data_I
_chemical_name_common  '/home/zhangsd/repos/MofS-CGCNN/ML/data/SSD/clean_cifs/PUFXIZ_clean'
_cell_length_a 10.25150
_cell_length_b 12.38450
_cell_length_c 16.60380
_cell_angle_alpha 90.00000
_cell_angle_beta  94.92200
_cell_angle_gamma 90.00000
_space_group_name_H-M_alt      'P 1'


loop_
_space_group_symop_operation_xyz
  'x, y, z' 

loop_
_atom_site_label
_atom_site_fract_x
_atom_site_fract_y
_atom_site_fract_z
_atom_site_type_symbol
C        0.006   0.5285   0.6489     C
C       0.0068   0.3706   0.3055     C
C       0.0072   0.4542   0.1675     C
C       0.0105   0.3687   0.9326     C
N       0.0133    0.274   0.3364     N
Cd     0.01501  0.20055  0.46605    Cd
H       0.0161   0.3066   0.9653     H
N       0.0163   0.3654   0.2243     N
N       0.0212   0.3463   0.5516     N
N        0.028   0.2011    0.274     N
C       0.0297   0.2577   0.2076     C
C       0.0378   0.2135   0.1251     C
H       0.0446   0.7742   0.9069     H
H       0.0553   0.1366   0.1284     H
C       0.0777   0.6399   0.4022     C
C       0.0893   0.5516   0.3527     C
H       0.1079   0.2493   0.0998     H
C       0.1105   0.5847   0.0892     C
C       0.1113   0.5135   0.6029     C
C       0.1151    0.503   0.8554     C
C       0.1156   0.4216   0.5559     C
C       0.1198   0.4948   0.1395     C
C       0.1233   0.4137   0.9063     C
H        0.143   0.6933   0.4034     H
O       0.1457   0.9126   0.5903     O
H       0.1602   0.5456   0.3207     H
O       0.1657   0.0764   0.4332     O
H       0.1787   0.5651   0.6036     H
H        0.188   0.4114   0.5256     H
H       0.1909   0.5337    0.837     H
H       0.2013   0.4624    0.154     H
O       0.2316   0.7267   0.0341     O
C       0.2334   0.6345   0.0605     C
O       0.2375   0.7803   0.5288     O
C       0.2446   0.8645   0.5685     C
C       0.2554   0.3645   0.9315     C
O       0.2625   0.2803   0.9712     O
C       0.2666   0.1345   0.4395     C
O       0.2684   0.2267   0.4659     O
H       0.2987   0.9624    0.346     H
H       0.3091   0.0337    0.663     H
H        0.312   0.9114   0.9744     H
H       0.3213   0.0651   0.8964     H
O       0.3343   0.5764   0.0668     O
H       0.3398   0.0456   0.1793     H
O       0.3543   0.4126   0.9097     O
H        0.357   0.1933   0.0966     H
C       0.3767   0.9137   0.5937     C
C       0.3802   0.9948   0.3605     C
C       0.3844   0.9216   0.9441     C
C       0.3849    0.003   0.6446     C
C       0.3887   0.0135   0.8971     C
C       0.3895   0.0847   0.4108     C
H       0.3921   0.7493   0.4002     H
C       0.4107   0.0516   0.1473     C
C       0.4223   0.1399   0.0978     C
H       0.4447   0.6366   0.3716     H
H       0.4554   0.2742   0.5931     H
C       0.4622   0.7135   0.3749     C
C       0.4703   0.7577   0.2924     C
N        0.472   0.7011    0.226     N
N       0.4788   0.8463   0.9484     N
N       0.4837   0.8654   0.2757     N
H       0.4839   0.8066   0.5347     H
Cd     0.48499  0.70055  0.03395    Cd
N       0.4867    0.774   0.1636     N
C       0.4895   0.8687   0.5674     C
C       0.4928   0.9542   0.3325     C
C       0.4932   0.8706   0.1945     C
C        0.494   0.0285   0.8511     C
C        0.506   0.9715   0.1489     C
C       0.5068   0.1294   0.8055     C
C       0.5072   0.0458   0.6675     C
C       0.5105   0.1313   0.4326     C
N       0.5133    0.226   0.8364     N
Cd     0.51501  0.29945  0.96605    Cd
H       0.5161   0.1934   0.4653     H
N       0.5163   0.1346   0.7243     N
N       0.5212   0.1537   0.0516     N
N        0.528   0.2989    0.774     N
C       0.5297   0.2423   0.7076     C
C       0.5378   0.2865   0.6251     C
H       0.5446   0.7258   0.4069     H
H       0.5553   0.3634   0.6284     H
C       0.5777   0.8601   0.9022     C
C       0.5893   0.9484   0.8527     C
H       0.6079   0.2507   0.5998     H
C       0.6105   0.9153   0.5892     C
C       0.6113   0.9865   0.1029     C
C       0.6151    0.997   0.3554     C
C       0.6156   0.0784   0.0559     C
C       0.6198   0.0052   0.6395     C
C       0.6233   0.0863   0.4063     C
H        0.643   0.8067   0.9034     H
O       0.6457   0.5874   0.0903     O
H       0.6602   0.9544   0.8207     H
O       0.6657   0.4236   0.9332     O
H       0.6787   0.9349   0.1036     H
H        0.688   0.0886   0.0256     H
H       0.6909   0.9663    0.337     H
H       0.7013   0.0376    0.654     H
O       0.7316   0.7733   0.5341     O
C       0.7334   0.8655   0.5605     C
O       0.7375   0.7197   0.0288     O
C       0.7446   0.6355   0.0685     C
C       0.7554   0.1355   0.4315     C
O       0.7625   0.2197   0.4712     O
C       0.7666   0.3655   0.9395     C
O       0.7684   0.2733   0.9659     O
H       0.7987   0.5376    0.846     H
H       0.8091   0.4663    0.163     H
H        0.812   0.5886   0.4744     H
H       0.8213   0.4349   0.3964     H
O       0.8343   0.9236   0.5668     O
H       0.8398   0.4544   0.6793     H
O       0.8543   0.0874   0.4097     O
H        0.857   0.3067   0.5966     H
C       0.8767   0.5863   0.0937     C
C       0.8802   0.5052   0.8605     C
C       0.8844   0.5784   0.4441     C
C       0.8849    0.497   0.1446     C
C       0.8887   0.4865   0.3971     C
C       0.8895   0.4153   0.9108     C
H       0.8921   0.7507   0.9002     H
C       0.9107   0.4484   0.6473     C
C       0.9223   0.3601   0.5978     C
H       0.9447   0.8634   0.8716     H
H       0.9554   0.2258   0.0931     H
C       0.9622   0.7865   0.8749     C
C       0.9703   0.7423   0.7924     C
N        0.972   0.7989    0.726     N
N       0.9788   0.6537   0.4484     N
N       0.9837   0.6346   0.7757     N
H       0.9839   0.6934   0.0347     H
Cd     0.98499  0.79945  0.53395    Cd
N       0.9867    0.726   0.6636     N
C       0.9895   0.6313   0.0674     C
C       0.9928   0.5458   0.8325     C
C       0.9932   0.6294   0.6945     C
C        0.994   0.4715   0.3511     C
