data_I
_chemical_name_common  '/home/zhangsd/repos/MofS-CGCNN/ML/data/SSD/clean_cifs/PURJES_clean'
_cell_length_a  6.93140
_cell_length_b 12.38200
_cell_length_c 27.73800
_cell_angle_alpha 96.64100
_cell_angle_beta  91.23100
_cell_angle_gamma 104.22100
_space_group_name_H-M_alt      'P 1'


loop_
_space_group_symop_operation_xyz
  'x, y, z' 

loop_
_atom_site_label
_atom_site_fract_x
_atom_site_fract_y
_atom_site_fract_z
_atom_site_type_symbol
C       0.0086   0.9377   0.7237     C
Zn      0.0111  0.63517  0.99101    Zn
C       0.0119   0.9527    0.246     C
C       0.0133   0.8623    0.278     C
H       0.0136    0.212    0.742     H
H       0.0201   0.1246   0.2561     H
H       0.0369   0.2393   0.3355     H
H       0.0401   0.2757   0.6588     H
O       0.0457   0.7168   0.9179     O
H       0.0461   0.6157   0.3976     H
H       0.0498   0.6291   0.6086     H
O       0.0806   0.5667   0.0493     O
H       0.0895   0.0819   0.3044     H
H       0.0914   0.1399   0.6982     H
C        0.095   0.7365   0.3523     C
C       0.0975   0.7709   0.6558     C
H       0.1249   0.3552   0.8773     H
O       0.1338   0.1808   0.8232     O
C       0.1467   0.6725   0.3862     C
C       0.1491    0.693   0.6227     C
H       0.1508   0.1946   0.1272     H
O       0.1677   0.0569   0.1846     O
C        0.176   0.0916   0.7901     C
H       0.1975   0.8385   0.8531     H
H       0.1985   0.0308    0.808     H
C       0.1992    0.982   0.2185     C
O       0.2043   0.9517   0.7068     O
O       0.2062   0.8873   0.3028     O
C       0.2222   0.7185   0.9258     C
H       0.2257   0.9133   0.2009     H
C       0.2395   0.8636   0.6763     C
C         0.24   0.8171   0.3353     C
C        0.245   0.5373   0.0527     C
C       0.2522   0.3398   0.8797     C
H       0.2572   0.7286   0.1069     H
O       0.2674   0.5432   0.4519     O
O       0.2683    0.447   0.0326     O
O        0.272    0.546   0.5525     O
O       0.2783   0.6772   0.9621     O
C       0.2824   0.1853     0.13     C
C       0.2904   0.2465   0.8528     C
H       0.2963   0.1203   0.7722     H
Zn     0.29653  0.42769  0.49637    Zn
H       0.3147   0.0192   0.2412     H
C       0.3289   0.1156    0.162     C
C       0.3311   0.8339   0.8581     C
C       0.3431   0.6901   0.4034     C
C       0.3476   0.7067   0.6093     C
C       0.3764     0.77   0.8925     C
H       0.3772   0.1917   0.3772     H
H       0.3776   0.2139   0.6033     H
C       0.3823    0.711   0.1105     C
H       0.3824   0.4766   0.9275     H
H       0.3952   0.2858   0.0796     H
C       0.3982   0.6216   0.4394     C
C       0.4022   0.6259   0.5704     C
C       0.4045   0.4102   0.9103     C
C        0.416   0.6134   0.0839     C
O       0.4193     0.35   0.4418     O
O       0.4261   0.3537   0.5444     O
C       0.4276   0.2404   0.1023     C
C       0.4379   0.8762   0.6647     C
C       0.4383   0.8349   0.3519     C
H        0.447   0.9355   0.8075     H
H       0.4608   0.1095   0.6602     H
H       0.4619   0.0617     0.32     H
C       0.4683   0.2186   0.8582     C
C        0.479   0.8915   0.8309     C
C       0.4873   0.7728   0.3854     C
C       0.4878   0.7983   0.6311     C
H       0.4893   0.1521   0.8408     H
H       0.5107   0.8479   0.1592     H
C       0.5122   0.2017   0.3689     C
C       0.5127   0.2272   0.6146     C
C        0.521   0.1085   0.1691     C
C       0.5317   0.7814   0.1418     C
H       0.5381   0.9383     0.68     H
H       0.5392   0.8905   0.3398     H
H        0.553   0.0645   0.1925     H
C       0.5617   0.1651   0.6481     C
C       0.5621   0.1238   0.3353     C
C       0.5724   0.7596   0.8977     C
O       0.5739   0.6463   0.4556     O
O       0.5807     0.65   0.5582     O
C        0.584   0.3866   0.9161     C
C       0.5955   0.5898   0.0897     C
C       0.5978   0.3741   0.4296     C
C       0.6018   0.3784   0.5606     C
H       0.6048   0.7142   0.9204     H
H       0.6176   0.5234   0.0725     H
C       0.6177    0.289   0.8895     C
H       0.6224   0.7861   0.3967     H
H       0.6228   0.8083   0.6228     H
C       0.6236     0.23   0.1075     C
C       0.6524   0.2933   0.3907     C
C       0.6569   0.3099   0.5966     C
C       0.6689   0.1661   0.1419     C
C       0.6711   0.8844    0.838     C
H       0.6853   0.9808   0.7588     H
Zn     0.70347  0.57231  0.50363    Zn
H       0.7037   0.8797   0.2278     H
C       0.7096   0.7535   0.1472     C
C       0.7176   0.8147     0.87     C
O       0.7217   0.3228   0.0379     O
O        0.728    0.454   0.4475     O
O       0.7317    0.553   0.9674     O
O       0.7326   0.4568   0.5481     O
H       0.7428   0.2714   0.8931     H
C       0.7478   0.6602   0.1203     C
C        0.755   0.4627   0.9473     C
C         0.76   0.1829   0.6647     C
C       0.7605   0.1364   0.3237     C
H       0.7743   0.0867   0.7991     H
C       0.7778   0.2815   0.0742     C
O       0.7938   0.1127   0.6972     O
O       0.7957   0.0483   0.2932     O
C       0.8008    0.018   0.7815     C
H       0.8015   0.9692    0.192     H
H       0.8025   0.1615   0.1469     H
C        0.824   0.9084   0.2099     C
O       0.8323   0.9431   0.8154     O
H       0.8492   0.8054   0.8728     H
C       0.8509    0.307   0.3773     C
C       0.8533   0.3275   0.6138     C
O       0.8662   0.8192   0.1768     O
H       0.8751   0.6448   0.1227     H
C       0.9025   0.2291   0.3442     C
C        0.905   0.2635   0.6477     C
H       0.9086   0.8601   0.3018     H
H       0.9105   0.9181   0.6956     H
O       0.9194   0.4333   0.9507     O
H       0.9502   0.3709   0.3914     H
H       0.9539   0.3843   0.6024     H
O       0.9543   0.2832   0.0821     O
H       0.9599   0.7243   0.3412     H
H       0.9631   0.7607   0.6645     H
H       0.9799   0.8754   0.7439     H
H       0.9864    0.788    0.258     H
C       0.9867   0.1377    0.722     C
C       0.9881   0.0473    0.754     C
Zn      0.9889  0.36483  0.00899    Zn
C       0.9914   0.0623   0.2763     C
