data_I
_chemical_name_common  '/home/zhangsd/repos/MofS-CGCNN/ML/data/SSD/clean_cifs/PURNEX_clean'
_cell_length_a 24.68030
_cell_length_b 10.59660
_cell_length_c 19.98250
_cell_angle_alpha 90.00000
_cell_angle_beta  99.51500
_cell_angle_gamma 90.00000
_space_group_name_H-M_alt      'P 1'


loop_
_space_group_symop_operation_xyz
  'x, y, z' 

loop_
_atom_site_label
_atom_site_fract_x
_atom_site_fract_y
_atom_site_fract_z
_atom_site_type_symbol
Cu         0.0      0.0      0.0    Cu
Cu         0.0      0.0      0.5    Cu
Si         0.0      0.5     0.25    Si
Si         0.0      0.5     0.75    Si
W       0.0147  0.25889  0.13224     W
W       0.0147  0.74111  0.63224     W
O       0.0197   0.1454    0.576     O
O       0.0197   0.8546    0.076     O
O         0.02   0.3917   0.9086     O
O         0.02   0.6083   0.4086     O
W      0.02435  0.25997  0.63669     W
W      0.02435  0.74003  0.13669     W
O       0.0298    0.413   0.3103     O
O       0.0298    0.587   0.8103     O
O       0.0317   0.3581   0.4369     O
O       0.0317   0.6419   0.9369     O
O       0.0358   0.1449   0.0795     O
O       0.0358   0.8551   0.5795     O
O       0.0368   0.2218   0.8214     O
O       0.0368   0.7782   0.3214     O
O       0.0442   0.4077   0.7218     O
O       0.0442   0.5923   0.2218     O
O        0.049   0.1853   0.3474     O
O        0.049   0.8147   0.8474     O
O       0.0557   0.2217   0.2177     O
O       0.0557   0.7783   0.7177     O
O       0.0682   0.3916   0.1278     O
O       0.0682   0.6084   0.6278     O
O       0.0729   0.1814   0.7064     O
O       0.0729   0.8186   0.2064     O
N        0.073   0.0244   0.4803     N
N        0.073   0.9756   0.9803     N
W      0.07688  0.48813  0.41479     W
W      0.07688  0.51187  0.91479     W
O        0.087   0.3537   0.6159     O
O        0.087   0.6463   0.1159     O
H       0.0884   0.1415   0.9319     H
H       0.0884   0.8585   0.4319     H
H       0.0979   0.2005   0.5186     H
H       0.0979   0.7995   0.0186     H
C       0.1015   0.0632   0.9483     C
C       0.1015   0.9368   0.4483     C
W      0.10168  0.27055  0.30142     W
W      0.10168  0.72945  0.80142     W
W      0.10335  0.27149  0.78968     W
W      0.10335  0.72851  0.28968     W
C       0.1068   0.1277   0.4968     C
C       0.1068   0.8723   0.9968     C
O        0.109   0.3958   0.8546     O
O        0.109   0.6042   0.3546     O
W      0.11849  0.48954  0.67189     W
W      0.11849  0.51046  0.17189     W
O       0.1243   0.3611   0.3828     O
O       0.1243   0.6389   0.8828     O
O       0.1273   0.3977   0.2493     O
O       0.1273   0.6023   0.7493     O
O       0.1487   0.3581   0.7387     O
O       0.1487   0.6419   0.2387     O
C       0.1529   0.0141   0.9451     C
C       0.1529   0.9859   0.4451     C
N       0.1562   0.1039   0.4751     N
N       0.1562   0.8961   0.9751     N
H       0.1804   0.0535   0.9262     H
H       0.1804   0.9465   0.4262     H
H       0.1827   0.2783   0.5662     H
H       0.1827   0.7217   0.0662     H
C       0.2028   0.1795   0.4878     C
C       0.2028   0.8205   0.9878     C
C       0.2099   0.2672   0.5396     C
C       0.2099   0.7328   0.0396     C
H        0.238   0.1023   0.4133     H
H        0.238   0.8977   0.9133     H
C       0.2429    0.162    0.448     C
C       0.2429    0.838    0.948     C
C       0.2571    0.338    0.552     C
C       0.2571    0.662    0.052     C
H        0.262   0.3977   0.5867     H
H        0.262   0.6023   0.0867     H
C       0.2901   0.2328   0.4604     C
C       0.2901   0.7672   0.9604     C
C       0.2972   0.3205   0.5122     C
C       0.2972   0.6795   0.0122     C
H       0.3173   0.2217   0.4338     H
H       0.3173   0.7783   0.9338     H
H       0.3196   0.4465   0.0738     H
H       0.3196   0.5535   0.5738     H
N       0.3438   0.3961   0.5249     N
N       0.3438   0.6039   0.0249     N
C       0.3471   0.4859   0.0549     C
C       0.3471   0.5141   0.5549     C
O       0.3513   0.1419   0.2613     O
O       0.3513   0.8581   0.7613     O
O       0.3727   0.1023   0.7507     O
O       0.3727   0.8977   0.2507     O
O       0.3757   0.1389   0.6172     O
O       0.3757   0.8611   0.1172     O
W      0.38151  0.01046  0.32811     W
W      0.38151  0.98954  0.82811     W
O        0.391   0.1042   0.1454     O
O        0.391   0.8958   0.6454     O
C       0.3932   0.3723   0.5032     C
C       0.3932   0.6277   0.0032     C
W      0.39665  0.22851  0.21032     W
W      0.39665  0.77149  0.71032     W
W      0.39832  0.22945  0.69858     W
W      0.39832  0.77055  0.19858     W
C       0.3985   0.4368   0.0517     C
C       0.3985   0.5632   0.5517     C
H       0.4021   0.2995   0.4814     H
H       0.4021   0.7005   0.9814     H
H       0.4116   0.3585   0.0681     H
H       0.4116   0.6415   0.5681     H
O        0.413   0.1463   0.3841     O
O        0.413   0.8537   0.8841     O
W      0.42312  0.01187  0.58521     W
W      0.42312  0.98813  0.08521     W
N        0.427   0.4756   0.5197     N
N        0.427   0.5244   0.0197     N
O       0.4271   0.3186   0.2936     O
O       0.4271   0.6814   0.7936     O
O       0.4318   0.1084   0.8722     O
O       0.4318   0.8916   0.3722     O
O       0.4443   0.2783   0.7823     O
O       0.4443   0.7217   0.2823     O
O        0.451   0.3147   0.6526     O
O        0.451   0.6853   0.1526     O
O       0.4558   0.0923   0.2782     O
O       0.4558   0.9077   0.7782     O
O       0.4632   0.2782   0.1786     O
O       0.4632   0.7218   0.6786     O
O       0.4642   0.3551   0.9205     O
O       0.4642   0.6449   0.4205     O
O       0.4683   0.1419   0.5631     O
O       0.4683   0.8581   0.0631     O
O       0.4702    0.087   0.6897     O
O       0.4702    0.913   0.1897     O
W      0.47565  0.24003  0.36331     W
W      0.47565  0.75997  0.86331     W
O         0.48   0.1083   0.0914     O
O         0.48   0.8917   0.5914     O
O       0.4803   0.3546    0.424     O
O       0.4803   0.6454    0.924     O
W       0.4853  0.24111  0.86776     W
W       0.4853  0.75889  0.36776     W
Si         0.5      0.0     0.25    Si
Si         0.5      0.0     0.75    Si
Cu         0.5      0.5      0.0    Cu
Cu         0.5      0.5      0.5    Cu
W       0.5147  0.24111  0.63224     W
W       0.5147  0.75889  0.13224     W
O       0.5197   0.3546    0.076     O
O       0.5197   0.6454    0.576     O
O         0.52   0.1083   0.4086     O
O         0.52   0.8917   0.9086     O
W      0.52435  0.24003  0.13669     W
W      0.52435  0.75997  0.63669     W
O       0.5298    0.087   0.8103     O
O       0.5298    0.913   0.3103     O
O       0.5317   0.1419   0.9369     O
O       0.5317   0.8581   0.4369     O
O       0.5358   0.3551   0.5795     O
O       0.5358   0.6449   0.0795     O
O       0.5368   0.2782   0.3214     O
O       0.5368   0.7218   0.8214     O
O       0.5442   0.0923   0.2218     O
O       0.5442   0.9077   0.7218     O
O        0.549   0.3147   0.8474     O
O        0.549   0.6853   0.3474     O
O       0.5557   0.2783   0.7177     O
O       0.5557   0.7217   0.2177     O
O       0.5682   0.1084   0.6278     O
O       0.5682   0.8916   0.1278     O
O       0.5729   0.3186   0.2064     O
O       0.5729   0.6814   0.7064     O
N        0.573   0.4756   0.9803     N
N        0.573   0.5244   0.4803     N
W      0.57688  0.01187  0.91479     W
W      0.57688  0.98813  0.41479     W
O        0.587   0.1463   0.1159     O
O        0.587   0.8537   0.6159     O
H       0.5884   0.3585   0.4319     H
H       0.5884   0.6415   0.9319     H
H       0.5979   0.2995   0.0186     H
H       0.5979   0.7005   0.5186     H
C       0.6015   0.4368   0.4483     C
C       0.6015   0.5632   0.9483     C
W      0.60168  0.22945  0.80142     W
W      0.60168  0.77055  0.30142     W
W      0.60335  0.22851  0.28968     W
W      0.60335  0.77149  0.78968     W
C       0.6068   0.3723   0.9968     C
C       0.6068   0.6277   0.4968     C
O        0.609   0.1042   0.3546     O
O        0.609   0.8958   0.8546     O
W      0.61849  0.01046  0.17189     W
W      0.61849  0.98954  0.67189     W
O       0.6243   0.1389   0.8828     O
O       0.6243   0.8611   0.3828     O
O       0.6273   0.1023   0.7493     O
O       0.6273   0.8977   0.2493     O
O       0.6487   0.1419   0.2387     O
O       0.6487   0.8581   0.7387     O
C       0.6529   0.4859   0.4451     C
C       0.6529   0.5141   0.9451     C
N       0.6562   0.3961   0.9751     N
N       0.6562   0.6039   0.4751     N
H       0.6804   0.4465   0.4262     H
H       0.6804   0.5535   0.9262     H
H       0.6827   0.2217   0.0662     H
H       0.6827   0.7783   0.5662     H
C       0.7028   0.3205   0.9878     C
C       0.7028   0.6795   0.4878     C
C       0.7099   0.2328   0.0396     C
C       0.7099   0.7672   0.5396     C
H        0.738   0.3977   0.9133     H
H        0.738   0.6023   0.4133     H
C       0.7429    0.338    0.948     C
C       0.7429    0.662    0.448     C
C       0.7571    0.162    0.052     C
C       0.7571    0.838    0.552     C
H        0.762   0.1023   0.0867     H
H        0.762   0.8977   0.5867     H
C       0.7901   0.2672   0.9604     C
C       0.7901   0.7328   0.4604     C
C       0.7972   0.1795   0.0122     C
C       0.7972   0.8205   0.5122     C
H       0.8173   0.2783   0.9338     H
H       0.8173   0.7217   0.4338     H
H       0.8196   0.0535   0.5738     H
H       0.8196   0.9465   0.0738     H
N       0.8438   0.1039   0.0249     N
N       0.8438   0.8961   0.5249     N
C       0.8471   0.0141   0.5549     C
C       0.8471   0.9859   0.0549     C
O       0.8513   0.3581   0.7613     O
O       0.8513   0.6419   0.2613     O
O       0.8727   0.3977   0.2507     O
O       0.8727   0.6023   0.7507     O
O       0.8757   0.3611   0.1172     O
O       0.8757   0.6389   0.6172     O
W      0.88151  0.48954  0.82811     W
W      0.88151  0.51046  0.32811     W
O        0.891   0.3958   0.6454     O
O        0.891   0.6042   0.1454     O
C       0.8932   0.1277   0.0032     C
C       0.8932   0.8723   0.5032     C
W      0.89665  0.27149  0.71032     W
W      0.89665  0.72851  0.21032     W
W      0.89832  0.27055  0.19858     W
W      0.89832  0.72945  0.69858     W
C       0.8985   0.0632   0.5517     C
C       0.8985   0.9368   0.0517     C
H       0.9021   0.2005   0.9814     H
H       0.9021   0.7995   0.4814     H
H       0.9116   0.1415   0.5681     H
H       0.9116   0.8585   0.0681     H
O        0.913   0.3537   0.8841     O
O        0.913   0.6463   0.3841     O
W      0.92312  0.48813  0.08521     W
W      0.92312  0.51187  0.58521     W
N        0.927   0.0244   0.0197     N
N        0.927   0.9756   0.5197     N
O       0.9271   0.1814   0.7936     O
O       0.9271   0.8186   0.2936     O
O       0.9318   0.3916   0.3722     O
O       0.9318   0.6084   0.8722     O
O       0.9443   0.2217   0.2823     O
O       0.9443   0.7783   0.7823     O
O        0.951   0.1853   0.1526     O
O        0.951   0.8147   0.6526     O
O       0.9558   0.4077   0.7782     O
O       0.9558   0.5923   0.2782     O
O       0.9632   0.2218   0.6786     O
O       0.9632   0.7782   0.1786     O
O       0.9642   0.1449   0.4205     O
O       0.9642   0.8551   0.9205     O
O       0.9683   0.3581   0.0631     O
O       0.9683   0.6419   0.5631     O
O       0.9702    0.413   0.1897     O
O       0.9702    0.587   0.6897     O
W      0.97565  0.25997  0.86331     W
W      0.97565  0.74003  0.36331     W
O         0.98   0.3917   0.5914     O
O         0.98   0.6083   0.0914     O
O       0.9803   0.1454    0.924     O
O       0.9803   0.8546    0.424     O
W       0.9853  0.25889  0.36776     W
W       0.9853  0.74111  0.86776     W
