data_I
_chemical_name_common  '/home/zhangsd/repos/MofS-CGCNN/ML/data/SSD/clean_cifs/PUZJOL_clean'
_cell_length_a  9.66150
_cell_length_b 10.49000
_cell_length_c 11.94040
_cell_angle_alpha 110.29500
_cell_angle_beta  91.87500
_cell_angle_gamma 114.86000
_space_group_name_H-M_alt      'P 1'


loop_
_space_group_symop_operation_xyz
  'x, y, z' 

loop_
_atom_site_label
_atom_site_fract_x
_atom_site_fract_y
_atom_site_fract_z
_atom_site_type_symbol
S      0.02389  0.05301  0.24333     S
H       0.0467   0.2257   0.0429     H
C       0.0512   0.1561   0.9711     C
C       0.0709   0.9384   0.1266     C
C       0.1619   0.0257   0.8391     C
C       0.1854   0.1362   0.9507     C
C       0.2348   0.9593   0.1417     C
O       0.2383   0.8928  0.66974     O
C       0.2725   0.9735   0.7828     C
H       0.2796   0.1923   0.0074     H
O       0.2848   0.9208  0.04735     O
O       0.3068   0.0156  0.25045     O
O      0.40257   0.0144   0.8459     O
O        0.408    0.715  0.69682     O
H       0.4336   0.5233    0.929     H
C       0.4364   0.6934   0.7899     C
O       0.4405   0.7941  0.49545     O
C       0.4516   0.4873   0.8509     C
O       0.4536   0.7781  0.89878     O
C        0.454   0.5526   0.7693     C
O       0.4554   0.8841  0.35015     O
C       0.4627   0.7943   0.3924     C
Mg     0.47138  0.91564  0.67339    Mg
C       0.4797   0.3589   0.8031     C
H       0.4815   0.3005   0.8461     H
S      0.49028  0.45815  0.63431     S
C       0.4963   0.6697   0.3128     C
Mg         0.5      0.0      0.0    Mg
C       0.5037   0.3303   0.6872     C
S      0.50972  0.54185  0.36569     S
H       0.5185   0.6995   0.1539     H
C       0.5203   0.6411   0.1969     C
Mg     0.52862  0.08436  0.32661    Mg
C       0.5373   0.2057   0.6076     C
O       0.5446   0.1159  0.64985     O
C        0.546   0.4474   0.2307     C
O       0.5464   0.2219  0.10122     O
C       0.5484   0.5127   0.1491     C
O       0.5595   0.2059  0.50455     O
C       0.5636   0.3066   0.2101     C
H       0.5664   0.4767    0.071     H
O        0.592    0.285  0.30318     O
O      0.59743   0.9856   0.1541     O
O       0.6932   0.9844  0.74955     O
O       0.7152   0.0792  0.95265     O
H       0.7204   0.8077   0.9926     H
C       0.7275   0.0265   0.2172     C
O       0.7617   0.1072  0.33026     O
C       0.7652   0.0407   0.8583     C
C       0.8146   0.8638   0.0493     C
C       0.8381   0.9743   0.1609     C
C       0.9291   0.0616   0.8734     C
C       0.9488   0.8439   0.0289     C
H       0.9533   0.7743   0.9571     H
S      0.97611  0.94699  0.75667     S
