data_I
_chemical_name_common  '/home/zhangsd/repos/MofS-CGCNN/ML/data/SSD/clean_cifs/PUZLAZ_clean'
_cell_length_a 13.56420
_cell_length_b 13.56420
_cell_length_c 15.64250
_cell_angle_alpha 90.00000
_cell_angle_beta  90.00000
_cell_angle_gamma 90.00000
_space_group_name_H-M_alt      'P 1'


loop_
_space_group_symop_operation_xyz
  'x, y, z' 

loop_
_atom_site_label
_atom_site_fract_x
_atom_site_fract_y
_atom_site_fract_z
_atom_site_type_symbol
O        0.003   0.4728   0.8714     O
O        0.003   0.5272   0.6286     O
O       0.0487    0.379   0.7645     O
O       0.0487    0.621   0.7355     O
C       0.0579   0.4062     0.84     C
C       0.0579   0.5938     0.66     C
In      0.0766      0.5     0.25    In
H       0.1155   0.4291   0.0102     H
H       0.1155   0.5709   0.4898     H
C       0.1352   0.3632   0.8957     C
C       0.1352   0.6368   0.6043     C
O       0.1477   0.3857   0.3422     O
O       0.1477   0.6143   0.1578     O
C       0.1529   0.3845   0.9787     C
C       0.1529   0.6155   0.5213     C
O       0.1926   0.3934   0.2085     O
O       0.1926   0.6066   0.2915     O
C       0.2011   0.3555   0.2824     C
C       0.2011   0.6445   0.2176     C
S       0.2153   0.2764   0.8579     S
S       0.2153   0.7236   0.6421     S
C       0.2342   0.3322   0.0128     C
C       0.2342   0.6678   0.4872     C
H       0.2579   0.3402   0.0682     H
H       0.2579   0.6598   0.4318     H
C       0.2691    0.273   0.2949     C
C       0.2691    0.727   0.2051     C
C        0.273   0.2691   0.9551     C
C        0.273   0.7309   0.5449     C
S       0.2764   0.2153   0.3921     S
S       0.2764   0.7847   0.1079     S
C       0.3322   0.2342   0.2372     C
C       0.3322   0.7658   0.2628     C
H       0.3402   0.2579   0.1818     H
H       0.3402   0.7421   0.3182     H
C       0.3555   0.2011   0.9676     C
C       0.3555   0.7989   0.5324     C
C       0.3632   0.1352   0.3543     C
C       0.3632   0.8648   0.1457     C
O        0.379   0.0487   0.4855     O
O        0.379   0.9513   0.0145     O
C       0.3845   0.1529   0.2713     C
C       0.3845   0.8471   0.2287     C
O       0.3857   0.1477   0.9078     O
O       0.3857   0.8523   0.5922     O
O       0.3934   0.1926   0.0415     O
O       0.3934   0.8074   0.4585     O
C       0.4062   0.0579     0.41     C
C       0.4062   0.9421     0.09     C
H       0.4291   0.1155   0.2398     H
H       0.4291   0.8845   0.2602     H
O       0.4728    0.003   0.3786     O
O       0.4728    0.997   0.1214     O
In         0.5   0.0766      0.0    In
In         0.5   0.9234      0.5    In
O       0.5272    0.003   0.6214     O
O       0.5272    0.997   0.8786     O
H       0.5709   0.1155   0.7602     H
H       0.5709   0.8845   0.7398     H
C       0.5938   0.0579     0.59     C
C       0.5938   0.9421     0.91     C
O       0.6066   0.1926   0.9585     O
O       0.6066   0.8074   0.5415     O
O       0.6143   0.1477   0.0922     O
O       0.6143   0.8523   0.4078     O
C       0.6155   0.1529   0.7287     C
C       0.6155   0.8471   0.7713     C
O        0.621   0.0487   0.5145     O
O        0.621   0.9513   0.9855     O
C       0.6368   0.1352   0.6457     C
C       0.6368   0.8648   0.8543     C
C       0.6445   0.2011   0.0324     C
C       0.6445   0.7989   0.4676     C
H       0.6598   0.2579   0.8182     H
H       0.6598   0.7421   0.6818     H
C       0.6678   0.2342   0.7628     C
C       0.6678   0.7658   0.7372     C
S       0.7236   0.2153   0.6079     S
S       0.7236   0.7847   0.8921     S
C        0.727   0.2691   0.0449     C
C        0.727   0.7309   0.4551     C
C       0.7309    0.273   0.7051     C
C       0.7309    0.727   0.7949     C
H       0.7421   0.3402   0.9318     H
H       0.7421   0.6598   0.5682     H
C       0.7658   0.3322   0.9872     C
C       0.7658   0.6678   0.5128     C
S       0.7847   0.2764   0.1421     S
S       0.7847   0.7236   0.3579     S
C       0.7989   0.3555   0.7176     C
C       0.7989   0.6445   0.7824     C
O       0.8074   0.3934   0.7915     O
O       0.8074   0.6066   0.7085     O
C       0.8471   0.3845   0.0213     C
C       0.8471   0.6155   0.4787     C
O       0.8523   0.3857   0.6578     O
O       0.8523   0.6143   0.8422     O
C       0.8648   0.3632   0.1043     C
C       0.8648   0.6368   0.3957     C
H       0.8845   0.4291   0.9898     H
H       0.8845   0.5709   0.5102     H
In      0.9234      0.5     0.75    In
C       0.9421   0.4062     0.16     C
C       0.9421   0.5938     0.34     C
O       0.9513    0.379   0.2355     O
O       0.9513    0.621   0.2645     O
O        0.997   0.4728   0.1286     O
O        0.997   0.5272   0.3714     O
