data_I
_chemical_name_common  '/home/zhangsd/repos/MofS-CGCNN/ML/data/SSD/clean_cifs/QAQSAD_clean'
_cell_length_a 10.32700
_cell_length_b 11.06700
_cell_length_c 11.69200
_cell_angle_alpha 112.33000
_cell_angle_beta  97.31000
_cell_angle_gamma 106.79000
_space_group_name_H-M_alt      'P 1'


loop_
_space_group_symop_operation_xyz
  'x, y, z' 

loop_
_atom_site_label
_atom_site_fract_x
_atom_site_fract_y
_atom_site_fract_z
_atom_site_type_symbol
Zn         0.0      0.0      0.0    Zn
O       0.0065  0.80845  0.89271     O
O       0.0271   0.2532   0.8654     O
C       0.0317   0.3753   0.3563     C
C       0.0503   0.4676    0.486     C
C       0.0782   0.6496   0.7396     C
O       0.0863  0.07771  0.87559     O
C       0.0895   0.7447   0.8753     C
H       0.0952   0.3309    0.336     H
C       0.1174   0.2005   0.8852     C
C       0.1626   0.4957   0.5864     C
Zn     0.16664  0.83289  0.13998    Zn
C       0.1766   0.5842   0.7108     C
O        0.181   0.7506  0.96378     O
O       0.2087  0.07819  0.11192     O
H       0.2281   0.4537    0.568     H
H       0.2332   0.4691   0.9401     H
H       0.2507   0.6011   0.7762     H
C       0.2685   0.2946    0.922     C
C       0.2792   0.1121   0.2217     C
O       0.2864  0.02213  0.26416     O
C        0.304   0.4346     0.95     C
H       0.3225   0.3398     0.18     H
H       0.3525    0.146   0.9142     H
C       0.3608   0.2642   0.3111     C
C       0.3666   0.3673   0.2651     C
C       0.3762   0.2407   0.9343     C
H        0.416   0.7094   0.0169     H
H       0.4249   0.2364   0.4651     H
C       0.4267   0.3045   0.4365     C
C       0.4369   0.5063   0.3458     C
H       0.4419   0.5727   0.3145     H
C       0.4463   0.5273   0.9936     C
C       0.4854   0.6727   0.0247     C
C       0.4976   0.4489   0.5233     C
C       0.5024   0.5511   0.4767     C
C       0.5146   0.3273   0.9753     C
C       0.5537   0.4727   0.0064     C
H       0.5581   0.4273   0.6855     H
C       0.5631   0.4937   0.6542     C
C       0.5733   0.6955   0.5635     C
H       0.5751   0.7636   0.5349     H
H        0.584   0.2906   0.9831     H
C       0.6238   0.7593   0.0657     C
C       0.6334   0.6327   0.7349     C
C       0.6392   0.7358   0.6889     C
H       0.6475    0.854   0.0858     H
H       0.6775   0.6602     0.82     H
C        0.696   0.5654     0.05     C
O       0.7136  0.97787  0.73584     O
C       0.7208   0.8879   0.7783     C
C       0.7315   0.7054    0.078     C
H       0.7493   0.3989   0.2238     H
H       0.7668   0.5309   0.0599     H
H       0.7719   0.5463    0.432     H
O       0.7913  0.92181  0.88808     O
O        0.819   0.2494  0.03622     O
C       0.8234   0.4158   0.2892     C
Zn     0.83336  0.16711  0.86002    Zn
C       0.8374   0.5043   0.4136     C
C       0.8826   0.7995   0.1148     C
H       0.9048   0.6691    0.664     H
C       0.9105   0.2553   0.1247     C
O       0.9137  0.92229  0.12441     O
C       0.9218   0.3504   0.2604     C
C       0.9497   0.5324    0.514     C
C       0.9683   0.6247   0.6437     C
O       0.9729   0.7468   0.1346     O
O       0.9935  0.19155  0.10729     O
