data_I
_chemical_name_common  '/home/zhangsd/repos/MofS-CGCNN/ML/data/SSD/clean_cifs/QEBGAH_clean'
_cell_length_a  9.85800
_cell_length_b 12.56500
_cell_length_c 29.61800
_cell_angle_alpha 90.00000
_cell_angle_beta  90.00000
_cell_angle_gamma 105.69500
_space_group_name_H-M_alt      'P 1'


loop_
_space_group_symop_operation_xyz
  'x, y, z' 

loop_
_atom_site_label
_atom_site_fract_x
_atom_site_fract_y
_atom_site_fract_z
_atom_site_type_symbol
C          0.0   0.0437   0.1583     C
C          0.0   0.9563   0.8417     C
C        0.001   0.0575   0.8168     C
C       0.0031   0.9384   0.2304     C
C       0.0037   0.7602   0.3929     C
N       0.0053   0.8577  0.15709     N
C       0.0058   0.9632   0.7419     C
C       0.0093   0.2813   0.5598     C
C       0.0124   0.4267   0.9219     C
N       0.0154   0.2285  0.10325     N
C       0.0156    0.842   0.2512     C
C       0.0168   0.8234   0.3008     C
C       0.0214   0.7664   0.1772     C
C       0.0218   0.3375   0.8959     C
C       0.0262   0.7558   0.2234     C
C       0.0293   0.3561   0.4698     C
C       0.0351   0.6759   0.1465     C
H       0.0358   0.3802   0.4393     H
H       0.0369   0.6893   0.2363     H
Co     0.03802  0.35709  0.05754    Co
N       0.0527   0.5005  0.09171     N
H       0.0549   0.4357   0.9509     H
H       0.0675   0.2857   0.9075     H
C       0.0816   0.1528   0.6703     C
C       0.0878   0.1837    0.625     C
C       0.0937   0.6543   0.5059     C
C       0.0959   0.8592   0.8978     C
H       0.0972   0.1271   0.3001     H
C       0.1039   0.6924   0.4616     C
C       0.1071   0.7414   0.3643     C
C        0.109   0.9537   0.8721     C
C       0.1099   0.1362   0.1615     C
C       0.1132   0.7727   0.3188     C
C        0.114    0.603   0.1595     C
O       0.1147   0.0897   0.2784     O
O       0.1176   0.9395  0.73904     O
C       0.1186   0.2254   0.1335     C
C       0.1205    0.519   0.1311     C
O       0.1219    0.664  0.98373     O
C       0.1318   0.2957   0.5353     C
C       0.1402   0.3315   0.4901     C
H       0.1458   0.1148   0.6816     H
H       0.1561   0.1661   0.6059     H
H       0.1621   0.6122   0.1877     H
O       0.1696   0.3482   0.0072     O
H       0.1712   0.8571   0.9175     H
H       0.1744   0.7068   0.3758     H
H       0.1761   0.4713   0.1398     H
H       0.1815   0.1393   0.1833     H
H       0.1846   0.7589      0.3     H
H       0.1896   0.0151   0.8748     H
H       0.1896   0.7007   0.4456     H
H       0.1994    0.287   0.1353     H
H       0.2119   0.2813   0.5491     H
O       0.2143   0.6069  0.56925     O
C       0.2193   0.6346   0.5288     C
C       0.2301   0.6643   0.9626     C
O       0.2376   0.6599  0.92046     O
O       0.2624   0.3401  0.42046     O
C       0.2699   0.3357   0.4626     C
C       0.2807   0.3654   0.0288     C
O       0.2857   0.3931  0.06925     O
H       0.2881   0.7187   0.0491     H
H       0.3006    0.713   0.6353     H
H       0.3104   0.2993   0.9456     H
H       0.3104   0.9849   0.3748     H
H       0.3154   0.2411      0.8     H
H       0.3185   0.8607   0.6833     H
H       0.3239   0.5287   0.6398     H
H       0.3256   0.2932   0.8758     H
H       0.3288   0.1429   0.4175     H
O       0.3304   0.6518   0.5072     O
H       0.3379   0.3878   0.6877     H
H       0.3439   0.8339   0.1059     H
H       0.3542   0.8852   0.1816     H
C       0.3598   0.6685   0.9901     C
C       0.3682   0.7043   0.0353     C
O       0.3781    0.336  0.48373     O
C       0.3795    0.481   0.6311     C
C       0.3814   0.7746   0.6335     C
O       0.3824   0.0605  0.23904     O
O       0.3853   0.9103   0.7784     O
C        0.386    0.397   0.6595     C
C       0.3868   0.2273   0.8188     C
C       0.3901   0.8638   0.6615     C
C        0.391   0.0463   0.3721     C
C       0.3929   0.2586   0.8643     C
C       0.3961   0.3076   0.9616     C
H       0.4028   0.8729   0.8001     H
C       0.4041   0.1408   0.3978     C
C       0.4063   0.3457   0.0059     C
C       0.4122   0.8163    0.125     C
C       0.4184   0.8472   0.1703     C
H       0.4325   0.7143   0.4075     H
H       0.4451   0.5643   0.4509     H
N       0.4473   0.4995  0.59171     N
Co     0.46198  0.64291  0.55754    Co
H       0.4631   0.3107   0.7363     H
H       0.4642   0.6198   0.9393     H
C       0.4649   0.3241   0.6465     C
C       0.4707   0.6439   0.9698     C
C       0.4738   0.2442   0.7234     C
C       0.4782   0.6625   0.3959     C
C       0.4786   0.2336   0.6772     C
C       0.4832   0.1766   0.8008     C
C       0.4844    0.158   0.7512     C
N       0.4846   0.7715  0.60325     N
C       0.4876   0.5733   0.4219     C
C       0.4907   0.7187   0.0598     C
C       0.4942   0.0368   0.2419     C
N       0.4947   0.1423  0.65709     N
C       0.4963   0.2398   0.8929     C
C       0.4969   0.0616   0.7304     C
C        0.499   0.9425   0.3168     C
C          0.5   0.0437   0.3417     C
C          0.5   0.9563   0.6583     C
C        0.501   0.0575   0.6832     C
C       0.5031   0.9384   0.2696     C
C       0.5037   0.7602   0.1071     C
N       0.5053   0.8577  0.34291     N
C       0.5058   0.9632   0.7581     C
C       0.5093   0.2813   0.9402     C
C       0.5124   0.4267   0.5781     C
N       0.5154   0.2285  0.39675     N
C       0.5156    0.842   0.2488     C
C       0.5168   0.8234   0.1992     C
C       0.5214   0.7664   0.3228     C
C       0.5218   0.3375   0.6041     C
C       0.5262   0.7558   0.2766     C
C       0.5293   0.3561   0.0302     C
C       0.5351   0.6759   0.3535     C
H       0.5358   0.3802   0.0607     H
H       0.5369   0.6893   0.2637     H
Co     0.53802  0.35709  0.44246    Co
N       0.5527   0.5005  0.40829     N
H       0.5549   0.4357   0.5491     H
H       0.5675   0.2857   0.5925     H
C       0.5816   0.1528   0.8297     C
C       0.5878   0.1837    0.875     C
C       0.5937   0.6543   0.9941     C
C       0.5959   0.8592   0.6022     C
H       0.5972   0.1271   0.1999     H
C       0.6039   0.6924   0.0384     C
C       0.6071   0.7414   0.1357     C
C        0.609   0.9537   0.6279     C
C       0.6099   0.1362   0.3385     C
C       0.6132   0.7727   0.1812     C
C        0.614    0.603   0.3405     C
O       0.6147   0.0897   0.2216     O
O       0.6176   0.9395  0.76096     O
C       0.6186   0.2254   0.3665     C
C       0.6205    0.519   0.3689     C
O       0.6219    0.664  0.51627     O
C       0.6318   0.2957   0.9647     C
C       0.6402   0.3315   0.0099     C
H       0.6458   0.1148   0.8184     H
H       0.6561   0.1661   0.8941     H
H       0.6621   0.6122   0.3123     H
O       0.6696   0.3482   0.4928     O
H       0.6712   0.8571   0.5825     H
H       0.6744   0.7068   0.1242     H
H       0.6761   0.4713   0.3602     H
H       0.6815   0.1393   0.3167     H
H       0.6846   0.7589      0.2     H
H       0.6896   0.0151   0.6252     H
H       0.6896   0.7007   0.0544     H
H       0.6994    0.287   0.3647     H
H       0.7119   0.2813   0.9509     H
O       0.7143   0.6069  0.93075     O
C       0.7193   0.6346   0.9712     C
C       0.7301   0.6643   0.5374     C
O       0.7376   0.6599  0.57954     O
O       0.7624   0.3401  0.07954     O
C       0.7699   0.3357   0.0374     C
C       0.7807   0.3654   0.4712     C
O       0.7857   0.3931  0.43075     O
H       0.7881   0.7187   0.4509     H
H       0.8006    0.713   0.8647     H
H       0.8104   0.2993   0.5544     H
H       0.8104   0.9849   0.1252     H
H       0.8154   0.2411      0.7     H
H       0.8185   0.8607   0.8167     H
H       0.8239   0.5287   0.8602     H
H       0.8256   0.2932   0.6242     H
H       0.8288   0.1429   0.0825     H
O       0.8304   0.6518   0.9928     O
H       0.8379   0.3878   0.8123     H
H       0.8439   0.8339   0.3941     H
H       0.8542   0.8852   0.3184     H
C       0.8598   0.6685   0.5099     C
C       0.8682   0.7043   0.4647     C
O       0.8781    0.336  0.01627     O
C       0.8795    0.481   0.8689     C
C       0.8814   0.7746   0.8665     C
O       0.8824   0.0605  0.26096     O
O       0.8853   0.9103   0.7216     O
C        0.886    0.397   0.8405     C
C       0.8868   0.2273   0.6812     C
C       0.8901   0.8638   0.8385     C
C        0.891   0.0463   0.1279     C
C       0.8929   0.2586   0.6357     C
C       0.8961   0.3076   0.5384     C
H       0.9028   0.8729   0.6999     H
C       0.9041   0.1408   0.1022     C
C       0.9063   0.3457   0.4941     C
C       0.9122   0.8163    0.375     C
C       0.9184   0.8472   0.3297     C
H       0.9325   0.7143   0.0925     H
H       0.9451   0.5643   0.0491     H
N       0.9473   0.4995  0.90829     N
Co     0.96198  0.64291  0.94246    Co
H       0.9631   0.3107   0.7637     H
H       0.9642   0.6198   0.5607     H
C       0.9649   0.3241   0.8535     C
C       0.9707   0.6439   0.5302     C
C       0.9738   0.2442   0.7766     C
C       0.9782   0.6625   0.1041     C
C       0.9786   0.2336   0.8228     C
C       0.9832   0.1766   0.6992     C
C       0.9844    0.158   0.7488     C
N       0.9846   0.7715  0.89675     N
C       0.9876   0.5733   0.0781     C
C       0.9907   0.7187   0.4402     C
C       0.9942   0.0368   0.2581     C
N       0.9947   0.1423  0.84291     N
C       0.9963   0.2398   0.6071     C
C       0.9969   0.0616   0.7696     C
C        0.999   0.9425   0.1832     C
