data_I
_chemical_name_common  '/home/zhangsd/repos/MofS-CGCNN/ML/data/SSD/clean_cifs/QEZYUR_clean'
_cell_length_a 14.35510
_cell_length_b 14.35510
_cell_length_c 10.11320
_cell_angle_alpha 90.00000
_cell_angle_beta  90.00000
_cell_angle_gamma 120.00000
_space_group_name_H-M_alt      'P 1'


loop_
_space_group_symop_operation_xyz
  'x, y, z' 

loop_
_atom_site_label
_atom_site_fract_x
_atom_site_fract_y
_atom_site_fract_z
_atom_site_type_symbol
S      0.00549  0.52472  0.65421     S
O       0.0284   0.6169   0.2364     O
O       0.0308   0.5483   0.0151     O
O       0.0474   0.4638   0.2163     O
O       0.0911   0.4021   0.4595     O
O       0.0956   0.2473   0.5386     O
O      0.12322  0.57382   0.6498     O
O       0.1256   0.2942   0.3076     O
S      0.14319  0.33654   0.4415     S
Sm     0.14338  0.58362  0.40361    Sm
O        0.146   0.7415   0.4717     O
O       0.1517   0.9044   0.5386     O
O       0.1686   0.8744   0.3076     O
S      0.19335  0.85681   0.4415     S
O       0.2473   0.0956   0.0386     O
O       0.2585   0.4045   0.4717     O
O       0.2777   0.7218   0.2497     O
O       0.2782   0.5559   0.2497     O
O       0.2942   0.1256   0.8076     O
O        0.311   0.9089   0.4595     O
O      0.33333  0.66667   0.0498     O
S      0.33333  0.66667  0.19164     S
O      0.33333  0.66667   0.4902     O
S      0.33654  0.14319   0.9415     S
O       0.3831   0.4115   0.2364     O
O       0.4021   0.0911   0.9595     O
O       0.4045   0.2585   0.9717     O
O       0.4115   0.3831   0.7364     O
Sm     0.41638  0.55977  0.40361    Sm
O       0.4164   0.9526   0.2163     O
O      0.42618   0.5494   0.6498     O
Sm     0.44023  0.85662  0.40361    Sm
O       0.4441   0.7223   0.2497     O
O       0.4506  0.87678   0.6498     O
O       0.4517   0.4825   0.0151     O
O       0.4638   0.0474   0.7163     O
S      0.47528  0.48077  0.65421     S
S      0.48077  0.47528  0.15421     S
O       0.4825   0.4517   0.5151     O
O       0.5175   0.9692   0.0151     O
S      0.51923  0.99451  0.65421     S
S      0.52472  0.00549  0.15421     S
O       0.5362   0.5836   0.2163     O
O       0.5483   0.0308   0.5151     O
O       0.5494  0.42618   0.1498     O
O       0.5559   0.2782   0.7497     O
Sm     0.55977  0.41638  0.90361    Sm
O      0.57382  0.12322   0.1498     O
O       0.5836   0.5362   0.7163     O
Sm     0.58362  0.14338  0.90361    Sm
O       0.5885   0.9716   0.2364     O
O       0.5955    0.854   0.4717     O
O       0.5979    0.689   0.4595     O
O       0.6169   0.0284   0.7364     O
S      0.66346  0.80665   0.4415     S
O      0.66667  0.33333   0.5498     O
S      0.66667  0.33333  0.69164     S
O      0.66667  0.33333   0.9902     O
O        0.689   0.5979   0.9595     O
O       0.7058   0.8314   0.3076     O
O       0.7218   0.2777   0.7497     O
O       0.7223   0.4441   0.7497     O
O       0.7415    0.146   0.9717     O
O       0.7527   0.8483   0.5386     O
S      0.80665  0.66346   0.9415     S
O       0.8314   0.7058   0.8076     O
O       0.8483   0.7527   0.0386     O
O        0.854   0.5955   0.9717     O
Sm     0.85662  0.44023  0.90361    Sm
S      0.85681  0.19335   0.9415     S
O       0.8744   0.1686   0.8076     O
O      0.87678   0.4506   0.1498     O
O       0.9044   0.1517   0.0386     O
O       0.9089    0.311   0.9595     O
O       0.9526   0.4164   0.7163     O
O       0.9692   0.5175   0.5151     O
O       0.9716   0.5885   0.7364     O
S      0.99451  0.51923  0.15421     S
