data_I
_chemical_name_common  '/home/zhangsd/repos/MofS-CGCNN/ML/data/SSD/clean_cifs/QEZZEC_clean'
_cell_length_a 14.26980
_cell_length_b 14.26980
_cell_length_c 10.06600
_cell_angle_alpha 90.00000
_cell_angle_beta  90.00000
_cell_angle_gamma 120.00000
_space_group_name_H-M_alt      'P 1'


loop_
_space_group_symop_operation_xyz
  'x, y, z' 

loop_
_atom_site_label
_atom_site_fract_x
_atom_site_fract_y
_atom_site_fract_z
_atom_site_type_symbol
S      0.00466   0.5246  0.46868     S
O       0.0296   0.6187   0.0507     O
O       0.0303   0.5468   0.8298     O
O       0.0478    0.465   0.0332     O
O        0.094   0.2474   0.3508     O
O       0.0951   0.4067   0.2761     O
O       0.1235   0.5753   0.4657     O
O       0.1253   0.2961    0.121     O
O       0.1428   0.7393   0.2858     O
Tb     0.14341  0.58444  0.21953    Tb
S      0.14426  0.33803  0.25639     S
O       0.1534    0.906   0.3508     O
O       0.1708   0.8747    0.121     O
S      0.19377  0.85574  0.25639     S
O       0.2474    0.094   0.8508     O
O       0.2607   0.4035   0.2858     O
O        0.276    0.721   0.0683     O
O        0.279    0.555   0.0683     O
O       0.2961   0.1253    0.621     O
O       0.3116   0.9049   0.2761     O
S      0.33333  0.66667  0.00955     S
O      0.33333  0.66667   0.3047     O
O      0.33333  0.66667   0.8693     O
S      0.33803  0.14426  0.75639     S
O       0.3813   0.4109   0.0507     O
O       0.4035   0.2607   0.7858     O
O       0.4067   0.0951   0.7761     O
O       0.4109   0.3813   0.5507     O
Tb     0.41556  0.55897  0.21953    Tb
O       0.4172   0.9522   0.0332     O
O       0.4247   0.5482   0.4657     O
Tb     0.44103  0.85659  0.21953    Tb
O        0.445    0.724   0.0683     O
O       0.4518   0.8765   0.4657     O
O       0.4532   0.4835   0.8298     O
O        0.465   0.0478   0.5332     O
S       0.4754  0.48006  0.46868     S
S      0.48006   0.4754  0.96868     S
O       0.4835   0.4532   0.3298     O
O       0.5165   0.9697   0.8298     O
S      0.51994  0.99534  0.46868     S
S       0.5246  0.00466  0.96868     S
O        0.535   0.5828   0.0332     O
O       0.5468   0.0303   0.3298     O
O       0.5482   0.4247   0.9657     O
O        0.555    0.279   0.5683     O
Tb     0.55897  0.41556  0.71953    Tb
O       0.5753   0.1235   0.9657     O
O       0.5828    0.535   0.5332     O
Tb     0.58444  0.14341  0.71953    Tb
O       0.5891   0.9704   0.0507     O
O       0.5933   0.6884   0.2761     O
O       0.5965   0.8572   0.2858     O
O       0.6187   0.0296   0.5507     O
S      0.66197  0.80623  0.25639     S
O      0.66667  0.33333   0.3693     O
S      0.66667  0.33333  0.50955     S
O      0.66667  0.33333   0.8047     O
O       0.6884   0.5933   0.7761     O
O       0.7039   0.8292    0.121     O
O        0.721    0.276   0.5683     O
O        0.724    0.445   0.5683     O
O       0.7393   0.1428   0.7858     O
O       0.7526   0.8466   0.3508     O
S      0.80623  0.66197  0.75639     S
O       0.8292   0.7039    0.621     O
O       0.8466   0.7526   0.8508     O
S      0.85574  0.19377  0.75639     S
Tb     0.85659  0.44103  0.71953    Tb
O       0.8572   0.5965   0.7858     O
O       0.8747   0.1708    0.621     O
O       0.8765   0.4518   0.9657     O
O       0.9049   0.3116   0.7761     O
O        0.906   0.1534   0.8508     O
O       0.9522   0.4172   0.5332     O
O       0.9697   0.5165   0.3298     O
O       0.9704   0.5891   0.5507     O
S      0.99534  0.51994  0.96868     S
