data_I
_chemical_name_common  '/home/zhangsd/repos/MofS-CGCNN/ML/data/SSD/clean_cifs/QISVAQ_clean'
_cell_length_a 18.83270
_cell_length_b 18.83270
_cell_length_c 18.83270
_cell_angle_alpha 72.80770
_cell_angle_beta  72.80770
_cell_angle_gamma 72.80770
_space_group_name_H-M_alt      'P 1'


loop_
_space_group_symop_operation_xyz
  'x, y, z' 

loop_
_atom_site_label
_atom_site_fract_x
_atom_site_fract_y
_atom_site_fract_z
_atom_site_type_symbol
C      0.00146  0.00706  0.18586     C
H       0.0041   0.8154   0.5861     H
C      0.00592  0.76322  0.60742     C
C      0.00706  0.18586  0.00146     C
C      0.00937  0.21417  0.11637     C
O      0.01161  0.61521  0.87091     O
C      0.01491  0.61261  0.67251     C
C       0.0152    0.046   0.7458     C
Cl     0.01573  0.86636  0.38891    Cl
H       0.0182   0.5604    0.695     H
C       0.0332   0.1613    0.069     C
Cl     0.03359  0.12773  0.93766    Cl
C       0.0345    0.932   0.3036     C
O      0.03654  0.69361  0.14651     O
C      0.04034  0.34804  0.36994     C
Cl     0.04035   0.1917  0.20005    Cl
C      0.04077  0.71507  0.89957     C
C      0.04431  0.27151  0.40431     C
C        0.046   0.7458   0.0152     C
C      0.05826  0.72036  0.65056     C
C      0.05842  0.65632  0.85292     C
H       0.0604   0.5182    0.195     H
Cl     0.06234  0.96641  0.87227    Cl
N      0.06259  0.64629  0.68229     N
C        0.068   0.6964   0.9655     C
C        0.069   0.0332   0.1613     C
H       0.0741   0.3732   0.3751     H
C      0.07789  0.72309  0.08609     C
O      0.07932  0.14182  0.73352     O
C      0.08609  0.07789  0.72309     C
H       0.0861   0.3154   0.5041     H
C      0.08653  0.08653  0.08653     C
Cu     0.08718  0.64964  0.23173    Cu
H        0.092   0.7441    0.658     H
C      0.09569  0.22849  0.45569     C
C      0.10043  0.95923  0.28493     C
C      0.10742  0.26322  0.50592     C
Cl     0.11109  0.63364  0.48427    Cl
C      0.11261  0.51491  0.17251     C
O      0.11521  0.51161  0.37091     O
O      0.11563  0.65253  0.80403     O
C      0.11637  0.00937  0.21417     C
H       0.1249   0.1268   0.4259     H
H       0.1268   0.4259   0.1249     H
Cl     0.12773  0.93766  0.03359    Cl
O      0.12909  0.98839  0.38479     O
C      0.13006  0.15196  0.45966     C
Cl     0.13364  0.61109  0.98427    Cl
O      0.14182  0.73352  0.07932     O
N      0.14629  0.56259  0.18229     N
O      0.14651  0.03654  0.69361     O
C      0.14708  0.94158  0.34368     C
Cu     0.14964  0.58718  0.73173    Cu
C      0.15056  0.22036  0.55826     C
C      0.15196  0.45966  0.13006     C
O      0.15253  0.61563  0.30403     O
C      0.15632  0.55842  0.35292     C
H        0.158   0.2441    0.592     H
C       0.1613    0.069   0.0332     C
C      0.17251  0.11261  0.51491     C
N      0.18229  0.14629  0.56259     N
H       0.1846   0.4139   0.9959     H
C      0.18586  0.00146  0.00706     C
Cl      0.1917  0.20005  0.04035    Cl
O      0.19361  0.53654  0.64651     O
H        0.195   0.0604   0.5182     H
O      0.19597  0.88437  0.34747     O
C       0.1964    0.568   0.4655     C
Cl     0.20005  0.04035   0.1917    Cl
C      0.21417  0.11637  0.00937     C
C      0.21507  0.54077  0.39957     C
C      0.22036  0.55826  0.15056     C
C      0.22309  0.57789  0.58609     C
C      0.22849  0.45569  0.09569     C
Cu     0.23173  0.08719  0.64964    Cu
O      0.23352  0.64182  0.57932     O
C      0.23678  0.39258  0.99408     C
H       0.2441    0.592    0.158     H
C       0.2458    0.546   0.5152     C
C       0.2542   0.9848    0.954     C
H       0.2559    0.342    0.908     H
C      0.26322  0.50592  0.10742     C
O      0.26648  0.92068  0.85818     O
Cu     0.26827  0.85036  0.41282    Cu
C      0.27151  0.40431  0.04431     C
C      0.27691  0.91391  0.92211     C
C      0.27964  0.34944  0.94174     C
C      0.28493  0.10043  0.95923     C
C      0.28583  0.49063  0.38363     C
Cl     0.29995   0.3083  0.45965    Cl
C       0.3036   0.0345    0.932     C
O      0.30403  0.15253  0.61563     O
H        0.305   0.9818   0.4396     H
O      0.30639  0.85349  0.96346     O
Cl      0.3083  0.45965  0.29995    Cl
C      0.31414  0.49294  0.49854     C
H       0.3154   0.5041   0.0861     H
N      0.31771  0.93741  0.35371     N
C      0.32749  0.98509  0.38739     C
C       0.3387   0.4668    0.431     C
H        0.342    0.908   0.2559     H
C      0.34368  0.14708  0.94158     C
O      0.34747  0.19597  0.88437     O
C      0.34804  0.36994  0.04034     C
C      0.34944  0.94174  0.27964     C
Cu     0.35036  0.76827  0.91282    Cu
C      0.35292  0.15632  0.55842     C
O      0.35349  0.80639  0.46346     O
N      0.35371  0.31771  0.93741     N
O      0.35818  0.42068  0.76648     O
Cl     0.36636  0.51573  0.88891    Cl
C      0.36994  0.04034  0.34804     C
O      0.37091  0.11521  0.51161     O
Cl     0.37227  0.46641  0.56234    Cl
H       0.3732   0.3751   0.0741     H
H       0.3751   0.0741   0.3732     H
C      0.38363  0.28583  0.49063     C
O      0.38437  0.69597  0.84747     O
O      0.38479  0.12909  0.98839     O
C      0.38739  0.32749  0.98509     C
Cl     0.38891  0.01573  0.86636    Cl
C      0.39258  0.99408  0.23678     C
C      0.39957  0.21507  0.54077     C
C      0.40431  0.04431  0.27151     C
H        0.408    0.842   0.7559     H
Cu     0.41282  0.26827  0.85036    Cu
C      0.41347  0.41347  0.41347     C
H       0.4139   0.9959   0.1846     H
C      0.41391  0.77691  0.42211     C
O      0.42068  0.76648  0.35818     O
C      0.42211  0.41391  0.77691     C
H       0.4259   0.1249   0.1268     H
C        0.431   0.3387   0.4668     C
C        0.432   0.5345   0.8036     C
N      0.43741  0.81771  0.85371     N
Cl     0.43766  0.62773  0.53359    Cl
H       0.4396    0.305   0.9818     H
C      0.44158  0.64708  0.84368     C
C      0.44174  0.84944  0.77964     C
C        0.454   0.4848   0.7542     C
C      0.45569  0.09569  0.22849     C
C      0.45923  0.60043  0.78493     C
Cl     0.45965  0.29995   0.3083    Cl
C      0.45966  0.13006  0.15196     C
O      0.46346  0.35349  0.80639     O
C       0.4655   0.1964    0.568     C
Cl     0.46641  0.56234  0.37227    Cl
C       0.4668    0.431   0.3387     C
H       0.4818    0.805   0.9396     H
Cl     0.48427  0.11109  0.63364    Cl
C       0.4848   0.7542    0.454     C
C      0.48509  0.82749  0.88739     C
O      0.48839  0.62909  0.88479     O
C      0.49063  0.38363  0.28583     C
C      0.49294  0.49854  0.31414     C
C      0.49408  0.89258  0.73678     C
H       0.4959   0.9139   0.6846     H
C      0.49854  0.31414  0.49294     C
C      0.50146  0.68586  0.50706     C
H       0.5041   0.0861   0.3154     H
C      0.50592  0.10742  0.26322     C
C      0.50706  0.50146  0.68586     C
C      0.50937  0.61637  0.71417     C
O      0.51161  0.37091  0.11521     O
C      0.51491  0.17251  0.11261     C
C       0.5152   0.2458    0.546     C
Cl     0.51573  0.88891  0.36636    Cl
H       0.5182    0.195   0.0604     H
C       0.5332    0.569   0.6613     C
Cl     0.53359  0.43766  0.62773    Cl
C       0.5345   0.8036    0.432     C
O      0.53654  0.64651  0.19361     O
C      0.54034  0.86994  0.84804     C
Cl     0.54035  0.70005   0.6917    Cl
C      0.54077  0.39957  0.21507     C
C      0.54431  0.90431  0.77151     C
C        0.546   0.5152   0.2458     C
C      0.55826  0.15056  0.22036     C
C      0.55842  0.35292  0.15632     C
H       0.5604    0.695   0.0182     H
Cl     0.56234  0.37227  0.46641    Cl
N      0.56259  0.18229  0.14629     N
C        0.568   0.4655   0.1964     C
C        0.569   0.6613   0.5332     C
H       0.5741   0.8751   0.8732     H
C      0.57789  0.58609  0.22309     C
O      0.57932  0.23352  0.64182     O
C      0.58609  0.22309  0.57789     C
H       0.5861   0.0041   0.8154     H
C      0.58653  0.58653  0.58653     C
Cu     0.58718  0.73173  0.14964    Cu
H        0.592    0.158   0.2441     H
C      0.59569  0.95569  0.72849     C
C      0.60043  0.78493  0.45923     C
C      0.60742  0.00592  0.76322     C
Cl     0.61109  0.98427  0.13364    Cl
C      0.61261  0.67251  0.01491     C
O      0.61521  0.87091  0.01161     O
O      0.61563  0.30403  0.15253     O
C      0.61637  0.71417  0.50937     C
H       0.6249   0.9259   0.6268     H
H       0.6268   0.6249   0.9259     H
Cl     0.62773  0.53359  0.43766    Cl
O      0.62909  0.88479  0.48839     O
C      0.63006  0.95966  0.65196     C
Cl     0.63364  0.48427  0.11109    Cl
O      0.64182  0.57932  0.23352     O
N      0.64629  0.68229  0.06259     N
O      0.64651  0.19361  0.53654     O
C      0.64708  0.84368  0.44158     C
Cu     0.64964  0.23173  0.08718    Cu
C      0.65056  0.05826  0.72036     C
C      0.65196  0.63006  0.95966     C
O      0.65253  0.80403  0.11563     O
C      0.65632  0.85292  0.05842     C
H        0.658    0.092   0.7441     H
C       0.6613   0.5332    0.569     C
C      0.67251  0.01491  0.61261     C
N      0.68229  0.06259  0.64629     N
H       0.6846   0.4959   0.9139     H
C      0.68586  0.50706  0.50146     C
Cl      0.6917  0.54035  0.70005    Cl
O      0.69361  0.14651  0.03654     O
H        0.695   0.0182   0.5604     H
O      0.69597  0.84747  0.38437     O
C       0.6964   0.9655    0.068     C
Cl     0.70005   0.6917  0.54035    Cl
C      0.71417  0.50937  0.61637     C
C      0.71507  0.89957  0.04077     C
C      0.72036  0.65056  0.05826     C
C      0.72309  0.08609  0.07789     C
C      0.72849  0.59569  0.95569     C
Cu     0.73173  0.14964  0.58718    Cu
O      0.73352  0.07932  0.14182     O
C      0.73678  0.49408  0.89258     C
H       0.7441    0.658    0.092     H
C       0.7458   0.0152    0.046     C
C       0.7542    0.454   0.4848     C
H       0.7559    0.408    0.842     H
C      0.76322  0.60742  0.00592     C
O      0.76648  0.35818  0.42068     O
Cu     0.76827  0.91282  0.35036    Cu
C      0.77151  0.54431  0.90431     C
C      0.77691  0.42211  0.41391     C
C      0.77964  0.44174  0.84944     C
C      0.78493  0.45923  0.60043     C
C      0.78583  0.88363  0.99063     C
Cl     0.79995  0.95965   0.8083    Cl
C       0.8036    0.432   0.5345     C
O      0.80403  0.11563  0.65253     O
H        0.805   0.9396   0.4818     H
O      0.80639  0.46346  0.35349     O
Cl      0.8083  0.79995  0.95965    Cl
C      0.81414  0.99854  0.99294     C
H       0.8154   0.5861   0.0041     H
N      0.81771  0.85371  0.43741     N
C      0.82749  0.88739  0.48509     C
C       0.8387    0.931   0.9668     C
H        0.842   0.7559    0.408     H
C      0.84368  0.44158  0.64708     C
O      0.84747  0.38437  0.69597     O
C      0.84804  0.54034  0.86994     C
C      0.84944  0.77964  0.44174     C
Cu     0.85036  0.41282  0.26827    Cu
C      0.85292  0.05842  0.65632     C
O      0.85349  0.96346  0.30639     O
N      0.85371  0.43741  0.81771     N
O      0.85818  0.26648  0.92068     O
Cl     0.86636  0.38891  0.01573    Cl
C      0.86994  0.84804  0.54034     C
O      0.87091  0.01161  0.61521     O
Cl     0.87227  0.06234  0.96641    Cl
H       0.8732   0.5741   0.8751     H
H       0.8751   0.8732   0.5741     H
C      0.88363  0.99063  0.78583     C
O      0.88437  0.34747  0.19597     O
O      0.88479  0.48839  0.62909     O
C      0.88739  0.48509  0.82749     C
Cl     0.88891  0.36636  0.51573    Cl
C      0.89258  0.73678  0.49408     C
C      0.89957  0.04077  0.71507     C
C      0.90431  0.77151  0.54431     C
H        0.908   0.2559    0.342     H
Cu     0.91282  0.35036  0.76827    Cu
C      0.91347  0.91347  0.91347     C
H       0.9139   0.6846   0.4959     H
C      0.91391  0.92211  0.27691     C
O      0.92068  0.85818  0.26648     O
C      0.92211  0.27691  0.91391     C
H       0.9259   0.6268   0.6249     H
C        0.931   0.9668   0.8387     C
C        0.932   0.3036   0.0345     C
N      0.93741  0.35371  0.31771     N
Cl     0.93766  0.03359  0.12773    Cl
H       0.9396   0.4818    0.805     H
C      0.94158  0.34368  0.14708     C
C      0.94174  0.27964  0.34944     C
C        0.954   0.2542   0.9848     C
C      0.95569  0.72849  0.59569     C
C      0.95923  0.28493  0.10043     C
Cl     0.95965   0.8083  0.79995    Cl
C      0.95966  0.65196  0.63006     C
O      0.96346  0.30639  0.85349     O
C       0.9655    0.068   0.6964     C
Cl     0.96641  0.87227  0.06234    Cl
C       0.9668   0.8387    0.931     C
H       0.9818   0.4396    0.305     H
Cl     0.98427  0.13364  0.61109    Cl
C       0.9848    0.954   0.2542     C
C      0.98509  0.38739  0.32749     C
O      0.98839  0.38479  0.12909     O
C      0.99063  0.78583  0.88363     C
C      0.99294  0.81414  0.99854     C
C      0.99408  0.23678  0.39258     C
H       0.9959   0.1846   0.4139     H
C      0.99854  0.99294  0.81414     C
