data_I
_chemical_name_common  '/home/zhangsd/repos/MofS-CGCNN/ML/data/SSD/clean_cifs/QISVEU_clean'
_cell_length_a 18.87640
_cell_length_b 18.87640
_cell_length_c 18.87640
_cell_angle_alpha 72.96870
_cell_angle_beta  72.96870
_cell_angle_gamma 72.96870
_space_group_name_H-M_alt      'P 1'


loop_
_space_group_symop_operation_xyz
  'x, y, z' 

loop_
_atom_site_label
_atom_site_fract_x
_atom_site_fract_y
_atom_site_fract_z
_atom_site_type_symbol
C      0.00016  0.00486  0.18726     C
C       0.0029   0.2366   0.3843     C
C      0.00486  0.18726  0.00016     C
H       0.0069    0.184   0.4032     H
O      0.00737  0.61737  0.87077     O
C       0.0095   0.2129    0.114     C
C      0.01149  0.61219  0.67479     C
Cl     0.01499   0.8697  0.39144    Cl
C      0.01599  0.04709  0.74329     C
H       0.0162   0.5598   0.6958     H
Cl     0.03169   0.1314  0.93451    Cl
C      0.03305  0.16205  0.06645     C
C       0.0334    0.933   0.3043     C
C      0.03773  0.71513  0.90243     C
O      0.03859   0.6926  0.14724     O
Cl     0.03989  0.18998  0.19782    Cl
C       0.0448   0.3493    0.365     C
C      0.04709  0.74329  0.01599     C
C      0.05076  0.27156  0.39706     C
C      0.05136  0.72056  0.65636     C
C      0.05339  0.65739  0.85469     C
H      0.05643  0.05643  0.05643     H
N      0.05924  0.64644  0.68444     N
H       0.0598   0.5162   0.1958     H
Cl     0.06549  0.96831   0.8686    Cl
C      0.06645  0.03305  0.16205     C
C        0.067   0.6957   0.9666     C
O      0.07769  0.14595  0.72727     O
H       0.0781   0.3748   0.3704     H
C      0.08043  0.08043  0.08043     C
C      0.08073  0.71983  0.08603     C
H       0.0841    0.745   0.6644     H
C      0.08603  0.08073  0.71983     C
Cu     0.08943  0.64809  0.23141    Cu
H       0.0968    0.316   0.4931     H
C      0.09757  0.96227  0.28487     C
C      0.10294  0.22844  0.44924     C
Cl     0.10856   0.6303  0.48501    Cl
C      0.11219  0.51149  0.17479     C
O      0.11321   0.6559  0.80326     O
C        0.114   0.0095   0.2129     C
C       0.1157   0.2634   0.4971     C
O      0.11737  0.50737  0.37077     O
H       0.1252   0.4219   0.1296     H
O      0.12923  0.99263  0.38263     O
H       0.1296   0.1252   0.4219     H
Cl      0.1303  0.60856  0.98501    Cl
Cl      0.1314  0.93451  0.03169    Cl
C        0.135   0.1507   0.4552     C
C      0.14531  0.94661  0.34261     C
O      0.14595  0.72727  0.07769     O
N      0.14644  0.55924  0.18444     N
O      0.14724  0.03859   0.6926     O
Cu     0.14809  0.58943  0.73141    Cu
C       0.1507   0.4552    0.135     C
O       0.1559  0.61321  0.30326     O
C      0.15636  0.22056  0.55136     C
C      0.15739  0.55339  0.35469     C
C      0.16205  0.06645  0.03305     C
H       0.1644    0.245   0.5841     H
C      0.17479  0.11219  0.51149     C
H        0.184   0.4032   0.0069     H
N      0.18444  0.14644  0.55924     N
C      0.18726  0.00016  0.00486     C
Cl     0.18998  0.19782  0.03989    Cl
O       0.1926  0.53859  0.64724     O
C       0.1957    0.567   0.4666     C
H       0.1958   0.0598   0.5162     H
O      0.19674  0.88679   0.3441     O
Cl     0.19782  0.03989  0.18998    Cl
C       0.2129    0.114   0.0095     C
C      0.21513  0.53773  0.40243     C
C      0.21983  0.58073  0.58603     C
C      0.22056  0.55136  0.15636     C
O      0.22727  0.64595  0.57769     O
C      0.22844  0.44924  0.10294     C
Cu     0.23141  0.08943  0.64809    Cu
C       0.2366   0.3843   0.0029     C
C      0.24329  0.54709  0.51599     C
H        0.245   0.5841   0.1644     H
H        0.255   0.3356   0.9159     H
C      0.25671  0.98401  0.95291     C
C       0.2634   0.4971   0.1157     C
Cu     0.26859  0.85191  0.41057    Cu
C      0.27156  0.39706  0.05076     C
O      0.27273  0.92231  0.85405     O
C      0.27944  0.34364  0.94864     C
C      0.28017  0.91397  0.91927     C
C      0.28487  0.09757  0.96227     C
C       0.2871   0.4905    0.386     C
Cl     0.30218  0.31002  0.46011    Cl
O      0.30326   0.1559  0.61321     O
H       0.3042   0.9838   0.4402     H
C       0.3043   0.0334    0.933     C
O       0.3074  0.85276  0.96141     O
Cl     0.31002  0.46011  0.30218    Cl
C      0.31274  0.49514  0.49984     C
N      0.31556  0.94076  0.35356     N
H        0.316   0.4931   0.0968     H
C      0.32521  0.98851  0.38781     C
H       0.3356   0.9159    0.255     H
C      0.33795  0.46695  0.43355     C
C      0.34261  0.14531  0.94661     C
C      0.34364  0.94864  0.27944     C
O       0.3441  0.19674  0.88679     O
C       0.3493    0.365   0.0448     C
Cu     0.35191  0.76859  0.91057    Cu
O      0.35276   0.8074  0.46141     O
N      0.35356  0.31556  0.94076     N
O      0.35405  0.42231  0.77273     O
C      0.35469  0.15739  0.55339     C
C        0.365   0.0448   0.3493     C
Cl      0.3686  0.46831  0.56549    Cl
Cl      0.3697  0.51499  0.89144    Cl
H       0.3704   0.0781   0.3748     H
O      0.37077  0.11737  0.50737     O
H       0.3748   0.3704   0.0781     H
O      0.38263  0.12923  0.99263     O
C       0.3843   0.0029   0.2366     C
C        0.386   0.2871   0.4905     C
O      0.38679  0.69674   0.8441     O
C      0.38781  0.32521  0.98851     C
Cl     0.39144  0.01499   0.8697    Cl
C      0.39706  0.05076  0.27156     C
C      0.40243  0.21513  0.53773     C
H       0.4032   0.0069    0.184     H
Cu     0.41057  0.26859  0.85191    Cu
C      0.41397  0.78017  0.41927     C
H       0.4159   0.8356    0.755     H
C      0.41927  0.41397  0.78017     C
C      0.41957  0.41957  0.41957     C
H       0.4219   0.1296   0.1252     H
O      0.42231  0.77273  0.35405     O
C        0.433   0.5334   0.8043     C
C      0.43355  0.33795  0.46695     C
Cl     0.43451   0.6314  0.53169    Cl
H       0.4402   0.3042   0.9838     H
N      0.44076  0.81556  0.85356     N
H      0.44357  0.44357  0.44357     H
C      0.44661  0.64531  0.84261     C
C      0.44864  0.84364  0.77944     C
C      0.44924  0.10294  0.22844     C
C      0.45291  0.48401  0.75671     C
C       0.4552    0.135   0.1507     C
Cl     0.46011  0.30218  0.31002    Cl
O      0.46141  0.35276   0.8074     O
C      0.46227  0.59757  0.78487     C
C       0.4666   0.1957    0.567     C
C      0.46695  0.43355  0.33795     C
Cl     0.46831  0.56549   0.3686    Cl
H       0.4838   0.8042   0.9402     H
C      0.48401  0.75671  0.45291     C
Cl     0.48501  0.10856   0.6303    Cl
C      0.48851  0.82521  0.88781     C
C       0.4905    0.386   0.2871     C
O      0.49263  0.62923  0.88263     O
H       0.4931   0.0968    0.316     H
C      0.49514  0.49984  0.31274     C
C       0.4971   0.1157   0.2634     C
C      0.49984  0.31274  0.49514     C
C      0.50016  0.68726  0.50486     C
C       0.5029   0.8843   0.7366     C
C      0.50486  0.50016  0.68726     C
H       0.5069   0.9032    0.684     H
O      0.50737  0.37077  0.11737     O
C       0.5095    0.614   0.7129     C
C      0.51149  0.17479  0.11219     C
Cl     0.51499  0.89144   0.3697    Cl
C      0.51599  0.24329  0.54709     C
H       0.5162   0.1958   0.0598     H
Cl     0.53169  0.43451   0.6314    Cl
C      0.53305  0.56645  0.66205     C
C       0.5334   0.8043    0.433     C
C      0.53773  0.40243  0.21513     C
O      0.53859  0.64724   0.1926     O
Cl     0.53989  0.69782  0.68998    Cl
C       0.5448    0.865   0.8493     C
C      0.54709  0.51599  0.24329     C
C      0.55076  0.89706  0.77156     C
C      0.55136  0.15636  0.22056     C
C      0.55339  0.35469  0.15739     C
H      0.55643  0.55643  0.55643     H
N      0.55924  0.18444  0.14644     N
H       0.5598   0.6958   0.0162     H
Cl     0.56549   0.3686  0.46831    Cl
C      0.56645  0.66205  0.53305     C
C        0.567   0.4666   0.1957     C
O      0.57769  0.22727  0.64595     O
H       0.5781   0.8704   0.8748     H
C      0.58043  0.58043  0.58043     C
C      0.58073  0.58603  0.21983     C
H       0.5841   0.1644    0.245     H
C      0.58603  0.21983  0.58073     C
Cu     0.58943  0.73141  0.14809    Cu
H       0.5968   0.9931    0.816     H
C      0.59757  0.78487  0.46227     C
C      0.60294  0.94924  0.72844     C
Cl     0.60856  0.98501   0.1303    Cl
C      0.61219  0.67479  0.01149     C
O      0.61321  0.30326   0.1559     O
C        0.614   0.7129   0.5095     C
C       0.6157   0.9971   0.7634     C
O      0.61737  0.87077  0.00737     O
H       0.6252   0.6296   0.9219     H
O      0.62923  0.88263  0.49263     O
H       0.6296   0.9219   0.6252     H
Cl      0.6303  0.48501  0.10856    Cl
Cl      0.6314  0.53169  0.43451    Cl
C        0.635   0.9552   0.6507     C
C      0.64531  0.84261  0.44661     C
O      0.64595  0.57769  0.22727     O
N      0.64644  0.68444  0.05924     N
O      0.64724   0.1926  0.53859     O
Cu     0.64809  0.23141  0.08943    Cu
C       0.6507    0.635   0.9552     C
O       0.6559  0.80326  0.11321     O
C      0.65636  0.05136  0.72056     C
C      0.65739  0.85469  0.05339     C
C      0.66205  0.53305  0.56645     C
H       0.6644   0.0841    0.745     H
C      0.67479  0.01149  0.61219     C
H        0.684   0.5069   0.9032     H
N      0.68444  0.05924  0.64644     N
C      0.68726  0.50486  0.50016     C
Cl     0.68998  0.53989  0.69782    Cl
O       0.6926  0.14724  0.03859     O
C       0.6957   0.9666    0.067     C
H       0.6958   0.0162   0.5598     H
O      0.69674   0.8441  0.38679     O
Cl     0.69782  0.68998  0.53989    Cl
C       0.7129   0.5095    0.614     C
C      0.71513  0.90243  0.03773     C
C      0.71983  0.08603  0.08073     C
C      0.72056  0.65636  0.05136     C
O      0.72727  0.07769  0.14595     O
C      0.72844  0.60294  0.94924     C
Cu     0.73141  0.14809  0.58943    Cu
C       0.7366   0.5029   0.8843     C
C      0.74329  0.01599  0.04709     C
H        0.745   0.6644   0.0841     H
H        0.755   0.4159   0.8356     H
C      0.75671  0.45291  0.48401     C
C       0.7634   0.6157   0.9971     C
Cu     0.76859  0.91057  0.35191    Cu
C      0.77156  0.55076  0.89706     C
O      0.77273  0.35405  0.42231     O
C      0.77944  0.44864  0.84364     C
C      0.78017  0.41927  0.41397     C
C      0.78487  0.46227  0.59757     C
C       0.7871    0.886   0.9905     C
Cl     0.80218  0.96011  0.81002    Cl
O      0.80326  0.11321   0.6559     O
H       0.8042   0.9402   0.4838     H
C       0.8043    0.433   0.5334     C
O       0.8074  0.46141  0.35276     O
Cl     0.81002  0.80218  0.96011    Cl
C      0.81274  0.99984  0.99514     C
N      0.81556  0.85356  0.44076     N
H        0.816   0.5968   0.9931     H
C      0.82521  0.88781  0.48851     C
H       0.8356    0.755   0.4159     H
C      0.83795  0.93355  0.96695     C
C      0.84261  0.44661  0.64531     C
C      0.84364  0.77944  0.44864     C
O       0.8441  0.38679  0.69674     O
C       0.8493   0.5448    0.865     C
Cu     0.85191  0.41057  0.26859    Cu
O      0.85276  0.96141   0.3074     O
N      0.85356  0.44076  0.81556     N
O      0.85405  0.27273  0.92231     O
C      0.85469  0.05339  0.65739     C
C        0.865   0.8493   0.5448     C
Cl      0.8686  0.06549  0.96831    Cl
Cl      0.8697  0.39144  0.01499    Cl
H       0.8704   0.8748   0.5781     H
O      0.87077  0.00737  0.61737     O
H       0.8748   0.5781   0.8704     H
O      0.88263  0.49263  0.62923     O
C       0.8843   0.7366   0.5029     C
C        0.886   0.9905   0.7871     C
O      0.88679   0.3441  0.19674     O
C      0.88781  0.48851  0.82521     C
Cl     0.89144   0.3697  0.51499    Cl
C      0.89706  0.77156  0.55076     C
C      0.90243  0.03773  0.71513     C
H       0.9032    0.684   0.5069     H
Cu     0.91057  0.35191  0.76859    Cu
C      0.91397  0.91927  0.28017     C
H       0.9159    0.255   0.3356     H
C      0.91927  0.28017  0.91397     C
C      0.91957  0.91957  0.91957     C
H       0.9219   0.6252   0.6296     H
O      0.92231  0.85405  0.27273     O
C        0.933   0.3043   0.0334     C
C      0.93355  0.96695  0.83795     C
Cl     0.93451  0.03169   0.1314    Cl
H       0.9402   0.4838   0.8042     H
N      0.94076  0.35356  0.31556     N
H      0.94357  0.94357  0.94357     H
C      0.94661  0.34261  0.14531     C
C      0.94864  0.27944  0.34364     C
C      0.94924  0.72844  0.60294     C
C      0.95291  0.25671  0.98401     C
C       0.9552   0.6507    0.635     C
Cl     0.96011  0.81002  0.80218    Cl
O      0.96141   0.3074  0.85276     O
C      0.96227  0.28487  0.09757     C
C       0.9666    0.067   0.6957     C
C      0.96695  0.83795  0.93355     C
Cl     0.96831   0.8686  0.06549    Cl
H       0.9838   0.4402   0.3042     H
C      0.98401  0.95291  0.25671     C
Cl     0.98501   0.1303  0.60856    Cl
C      0.98851  0.38781  0.32521     C
C       0.9905   0.7871    0.886     C
O      0.99263  0.38263  0.12923     O
H       0.9931    0.816   0.5968     H
C      0.99514  0.81274  0.99984     C
C       0.9971   0.7634   0.6157     C
C      0.99984  0.99514  0.81274     C
