data_I
_chemical_name_common  '/home/zhangsd/repos/MofS-CGCNN/ML/data/SSD/clean_cifs/QIWPET_clean'
_cell_length_a  7.37420
_cell_length_b 11.40110
_cell_length_c 11.67060
_cell_angle_alpha 89.66600
_cell_angle_beta  76.81300
_cell_angle_gamma 74.97100
_space_group_name_H-M_alt      'P 1'


loop_
_space_group_symop_operation_xyz
  'x, y, z' 

loop_
_atom_site_label
_atom_site_fract_x
_atom_site_fract_y
_atom_site_fract_z
_atom_site_type_symbol
Mg         0.0      0.0      0.5    Mg
O       0.0025  0.17899  0.51094     O
O      0.02202  0.97838  0.67812     O
C       0.0387  0.99074  0.11257     C
C       0.0421  0.61106  0.51471     C
C       0.0928  0.72899  0.52881     C
C       0.1006  0.97862   0.2277     C
C       0.1288  0.03399  0.90564     C
C       0.1395  0.39039  0.50154     C
C        0.164   0.0248  0.01798     C
C       0.1786  0.50135  0.51597     C
O        0.226  0.72651   0.5802     O
O       0.2742  0.92782  0.22082     O
H       0.2749   0.0419   0.0303     H
C       0.2784  0.07364  0.81431     C
C       0.2984  0.27715  0.50623     C
O      0.29893  0.94891  0.47619     O
H       0.2993   0.5023   0.5268     H
Mg     0.31249  0.86803  0.63601    Mg
O       0.3221  0.16767  0.83765     O
O       0.3264  0.25246  0.60626     O
H       0.3401   0.0237   0.4792     H
O      0.36635  0.00991  0.71957     O
O       0.3971   0.2206  0.41132     O
Mg     0.45878  0.85303  0.32564    Mg
Mg     0.54122  0.14697  0.67436    Mg
O       0.6029   0.7794  0.58868     O
O      0.63365  0.99009  0.28043     O
H       0.6599   0.9763   0.5208     H
O       0.6736  0.74754  0.39374     O
O       0.6779  0.83233  0.16235     O
Mg     0.68751  0.13197  0.36399    Mg
H       0.7007   0.4977   0.4732     H
O      0.70107  0.05109  0.52381     O
C       0.7016  0.72285  0.49377     C
C       0.7216  0.92636  0.18569     C
H       0.7251   0.9581   0.9697     H
O       0.7258  0.07218  0.77918     O
O        0.774  0.27349   0.4198     O
C       0.8214  0.49865  0.48403     C
C        0.836   0.9752  0.98202     C
C       0.8605  0.60961  0.49846     C
C       0.8712  0.96601  0.09436     C
C       0.8994  0.02138   0.7723     C
C       0.9072  0.27101  0.47119     C
C       0.9579  0.38894  0.48529     C
C       0.9613  0.00926  0.88743     C
O      0.97798  0.02162  0.32188     O
O       0.9975  0.82101  0.48906     O
