data_I
_chemical_name_common  '/home/zhangsd/repos/MofS-CGCNN/ML/data/SSD/clean_cifs/QOBWEJ_clean'
_cell_length_a 10.20000
_cell_length_b  9.99800
_cell_length_c 10.44710
_cell_angle_alpha 90.00000
_cell_angle_beta  92.24200
_cell_angle_gamma 90.00000
_space_group_name_H-M_alt      'P 1'


loop_
_space_group_symop_operation_xyz
  'x, y, z' 

loop_
_atom_site_label
_atom_site_fract_x
_atom_site_fract_y
_atom_site_fract_z
_atom_site_type_symbol
O       0.0327   0.3089   0.4967     O
O       0.0591   0.5973    0.917     O
O       0.0618   0.2867   0.9989     O
O       0.0706   0.5397   0.5766     O
P       0.0718   0.1713   0.0942     P
Zn       0.083   0.1501   0.3988    Zn
O        0.096   0.2297   0.2281     O
O       0.1009   0.3448   0.7242     O
P       0.1144   0.3968   0.5878     P
Zn      0.1372   0.4235   0.8927    Zn
O       0.1845   0.0742   0.0624     O
O       0.2367   0.0553   0.4566     O
O        0.261   0.3953   0.5527     O
O       0.3194   0.4568   0.9309     O
Zn      0.3724   0.0989   0.1211    Zn
P       0.3841   0.0637   0.4313     P
O       0.4084   0.1302   0.3022     O
Zn      0.4208   0.3143    0.625    Zn
O       0.4236   0.2694   0.8057     O
O       0.4297    0.262   0.0459     O
P       0.4327   0.3546   0.9293     P
O       0.4345     0.92   0.4345     O
O       0.4369   0.9294   0.0616     O
O       0.4548   0.1437   0.5372     O
O       0.5452   0.6437   0.4628     O
O       0.5631   0.4294   0.9384     O
O       0.5655     0.42   0.5655     O
P       0.5673   0.8546   0.0707     P
O       0.5703    0.762   0.9541     O
O       0.5764   0.7694   0.1943     O
Zn      0.5792   0.8143    0.375    Zn
O       0.5916   0.6302   0.6978     O
P       0.6159   0.5637   0.5687     P
Zn      0.6276   0.5989   0.8789    Zn
O       0.6806   0.9568   0.0691     O
O        0.739   0.8953   0.4473     O
O       0.7633   0.5553   0.5434     O
O       0.8155   0.5742   0.9376     O
Zn      0.8628   0.9235   0.1073    Zn
P       0.8856   0.8968   0.4122     P
O       0.8991   0.8448   0.2758     O
O        0.904   0.7297   0.7719     O
Zn       0.917   0.6501   0.6012    Zn
P       0.9282   0.6713   0.9058     P
O       0.9294   0.0397   0.4234     O
O       0.9382   0.7867   0.0011     O
O       0.9409   0.0973    0.083     O
O       0.9673   0.8089   0.5033     O
