data_I
_chemical_name_common  '/home/zhangsd/repos/MofS-CGCNN/ML/data/SSD/clean_cifs/QODHUO06_clean'
_cell_length_a 22.05010
_cell_length_b 16.50790
_cell_length_c 25.59600
_cell_angle_alpha 90.00000
_cell_angle_beta  115.29100
_cell_angle_gamma 90.00000
_space_group_name_H-M_alt      'P 1'


loop_
_space_group_symop_operation_xyz
  'x, y, z' 

loop_
_atom_site_label
_atom_site_fract_x
_atom_site_fract_y
_atom_site_fract_z
_atom_site_type_symbol
C        0.002   0.4273   0.4065     C
C        0.002   0.5727   0.9065     C
C       0.0036   0.3845   0.4958     C
C       0.0036   0.6155   0.9958     C
H       0.0198   0.4567   0.3854     H
H       0.0198   0.5433   0.8854     H
H       0.0232   0.3833    0.536     H
H       0.0232   0.6167    0.036     H
C       0.0258   0.1649    0.499     C
C       0.0258   0.8351    0.999     C
C       0.0267   0.1464   0.1164     C
C       0.0267   0.8536   0.6164     C
C       0.0328   0.1885   0.4102     C
C       0.0328   0.8115   0.9102     C
C       0.0331    0.125   0.0314     C
C       0.0331    0.875   0.5314     C
C       0.0335   0.4266   0.4661     C
C       0.0335   0.5734   0.9661     C
H       0.0431   0.1694    0.539     H
H       0.0431   0.8306    0.039     H
H        0.044   0.1387   0.1562     H
H        0.044   0.8613   0.6562     H
H       0.0543   0.2095   0.3888     H
H       0.0543   0.7905   0.8888     H
H       0.0553   0.1028    0.011     H
H       0.0553   0.8972    0.511     H
C        0.056   0.3442   0.0359     C
C        0.056   0.6558   0.5359     C
C       0.0561   0.3836   0.1211     C
C       0.0561   0.6164   0.6211     C
C       0.0597   0.1987   0.4692     C
C       0.0597   0.8013   0.9692     C
N       0.0608   0.1162   0.0886     N
N       0.0608   0.8838   0.5886     N
H       0.0756   0.3821   0.1612     H
H       0.0756   0.6179   0.6612     H
H       0.0761   0.3165   0.0158     H
H       0.0761   0.6835   0.5158     H
N       0.0864   0.3428   0.0933     N
N       0.0864   0.6572   0.5933     N
C        0.098   0.4707   0.5002     C
C        0.098   0.5293   0.0002     C
N       0.1229    0.463    0.558     N
N       0.1229    0.537    0.058     N
C       0.1238   0.2435   0.5014     C
C       0.1238   0.7565   0.0014     C
N       0.1261   0.4879  0.97254     N
N       0.1261   0.5121  0.47254     N
H       0.1325   0.1803   0.2338     H
H       0.1325   0.8197   0.7338     H
H       0.1326   0.0174   0.5062     H
H       0.1326   0.9826   0.0062     H
H       0.1352   0.4381   0.6605     H
H       0.1352   0.5619   0.1605     H
H       0.1445   0.4127   0.8952     H
H       0.1445   0.5873   0.3952     H
N       0.1478   0.2896   0.4718     N
N       0.1478   0.7104   0.9718     N
H       0.1487   0.0215   0.7372     H
H       0.1487   0.9785   0.2372     H
H       0.1508   0.2045   0.0003     H
H       0.1508   0.7955   0.5003     H
N       0.1529   0.2328   0.5588     N
N       0.1529   0.7672   0.0588     N
Ag     0.15577  0.04263  0.13245    Ag
Ag     0.15577  0.95737  0.63245    Ag
H        0.162   0.3677    0.393     H
H        0.162   0.6323    0.893     H
C       0.1717    0.208   0.2564     C
C       0.1717    0.792   0.7564     C
C       0.1747   0.0406   0.5266     C
C       0.1747   0.9594   0.0266     C
H       0.1757   0.1668   0.3322     H
H       0.1757   0.8332   0.8322     H
H       0.1767   0.1816   0.6554     H
H       0.1767   0.8184   0.1554     H
Ag     0.17734  0.25389    0.133    Ag
Ag     0.17734  0.74611    0.633    Ag
C       0.1792   0.4559   0.6806     C
C       0.1792   0.5441   0.1806     C
H         0.18   0.0882   0.4554     H
H         0.18   0.9118   0.9554     H
C       0.1802   0.4979   0.0874     C
C       0.1802   0.5021   0.5874     C
C       0.1824   0.4478   0.0061     C
C       0.1824   0.5522   0.5061     C
C       0.1863   0.3901   0.9175     C
C       0.1863   0.6099   0.4175     C
H       0.1895   0.4226   0.7595     H
H       0.1895   0.5774   0.2595     H
C       0.1922   0.1801   0.0212     C
C       0.1922   0.8199   0.5212     C
C       0.1929   0.0049   0.7581     C
C       0.1929   0.9951   0.2581     C
C       0.1977   0.1985   0.3156     C
C       0.1977   0.8015   0.8156     C
H       0.1979   0.0405   0.8353     H
H       0.1979   0.9595   0.3353     H
N       0.1992   0.2543   0.2296     N
N       0.1992   0.7457   0.7296     N
H       0.2006   0.3431   0.8516     H
H       0.2006   0.6569   0.3516     H
H       0.2014    0.135   0.9509     H
H       0.2014    0.865   0.4509     H
C       0.2022    0.084   0.4954     C
C       0.2022    0.916   0.9954     C
C        0.204   0.3903   0.4146     C
C        0.204   0.6097   0.9146     C
N       0.2044     0.03   0.5831     N
N       0.2044     0.97   0.0831     N
C       0.2054    0.328   0.5044     C
C       0.2054    0.672   0.0044     C
C       0.2097   0.2739    0.587     C
C       0.2097   0.7261    0.087     C
N       0.2115   0.4505   0.0641     N
N       0.2115   0.5495   0.5641     N
C       0.2122   0.4467   0.7402     C
C       0.2122   0.5533   0.2402     C
C       0.2125   0.4917   0.6513     C
C       0.2125   0.5083   0.1513     C
H       0.2134   0.4425   0.3483     H
H       0.2134   0.5575   0.8483     H
C       0.2151   0.2113   0.6773     C
C       0.2151   0.7887   0.1773     C
C       0.2153   0.3981   0.9769     C
C       0.2153   0.6019   0.4769     C
N         0.22   0.1867   0.0787     N
N         0.22   0.8133   0.5787     N
C       0.2203   0.3477   0.8917     C
C       0.2203   0.6523   0.3917     C
C       0.2219   0.0165   0.8171     C
C       0.2219   0.9835   0.3171     C
C       0.2222   0.1384    0.991     C
C       0.2222   0.8616    0.491     C
N       0.2246    0.029   0.2292     N
N       0.2246    0.971   0.7292     N
H       0.2263     0.17   0.7541     H
H       0.2263     0.83   0.2541     H
C       0.2352   0.4355   0.3882     C
C       0.2352   0.5645   0.8882     C
C       0.2357   0.3787    0.474     C
C       0.2357   0.6213    0.974     C
N        0.238   0.3226  0.56214     N
N        0.238   0.6774  0.06214     N
C        0.243   0.2632   0.6506     C
C        0.243   0.7368   0.1506     C
C       0.2453   0.2047   0.7366     C
C       0.2453   0.7953   0.2366     C
C       0.2547   0.2953   0.2634     C
C       0.2547   0.7047   0.7634     C
C        0.257   0.2368   0.3494     C
C        0.257   0.7632   0.8494     C
N        0.262   0.1774  0.43786     N
N        0.262   0.8226  0.93786     N
C       0.2643   0.1213    0.526     C
C       0.2643   0.8787    0.026     C
C       0.2648   0.0645   0.6118     C
C       0.2648   0.9355   0.1118     C
H       0.2737     0.33   0.2459     H
H       0.2737     0.67   0.7459     H
N       0.2754    0.471   0.7708     N
N       0.2754    0.529   0.2708     N
C       0.2778   0.3616    0.009     C
C       0.2778   0.6384    0.509     C
C       0.2781   0.4835   0.1829     C
C       0.2781   0.5165   0.6829     C
C       0.2797   0.1523   0.1083     C
C       0.2797   0.8477   0.6083     C
N         0.28   0.3133   0.9213     N
N         0.28   0.6867   0.4213     N
C       0.2847   0.1019   0.0231     C
C       0.2847   0.8981   0.5231     C
C       0.2849   0.2887   0.3227     C
C       0.2849   0.7113   0.8227     C
H       0.2866   0.0575   0.6517     H
H       0.2866   0.9425   0.1517     H
C       0.2875   0.0083   0.3487     C
C       0.2875   0.9917   0.8487     C
C       0.2878   0.0533   0.2598     C
C       0.2878   0.9467   0.7598     C
N       0.2885   0.0495   0.9359     N
N       0.2885   0.9505   0.4359     N
C       0.2903   0.2261    0.413     C
C       0.2903   0.7739    0.913     C
C       0.2946    0.172   0.4956     C
C       0.2946    0.828   0.9956     C
N       0.2956     0.47   0.4169     N
N       0.2956     0.53   0.9169     N
C        0.296   0.1097   0.5854     C
C        0.296   0.8903   0.0854     C
C       0.2978    0.416   0.5046     C
C       0.2978    0.584   0.0046     C
H       0.2986    0.365   0.0491     H
H       0.2986    0.635   0.5491     H
H       0.2994   0.1569   0.1484     H
H       0.2994   0.8431   0.6484     H
N       0.3008   0.2457   0.7704     N
N       0.3008   0.7543   0.2704     N
H       0.3021   0.4595   0.1647     H
H       0.3021   0.5405   0.6647     H
C       0.3023   0.3015   0.6844     C
C       0.3023   0.6985   0.1844     C
C       0.3071   0.4951   0.2419     C
C       0.3071   0.5049   0.7419     C
C       0.3078   0.3199   0.9788     C
C       0.3078   0.6801   0.4788     C
H       0.3105   0.0774   0.2405     H
H       0.3105   0.9226   0.7405     H
C       0.3137   0.1099   0.0825     C
C       0.3137   0.8901   0.5825     C
C       0.3176   0.0522   0.9939     C
C       0.3176   0.9478   0.4939     C
C       0.3198   0.0021   0.9126     C
C       0.3198   0.9979   0.4126     C
H         0.32   0.4118   0.5446     H
H         0.32   0.5882   0.0446     H
C       0.3208   0.0441   0.3194     C
C       0.3208   0.9559   0.8194     C
Ag     0.32266  0.24611    0.867    Ag
Ag     0.32266  0.75389    0.367    Ag
H       0.3233   0.3184   0.3446     H
H       0.3233   0.6816   0.8446     H
H       0.3243   0.3332   0.6678     H
H       0.3243   0.6668   0.1678     H
C       0.3253   0.4594   0.4734     C
C       0.3253   0.5406   0.9734     C
C       0.3283    0.292   0.7436     C
C       0.3283    0.708   0.2436     C
H        0.338   0.1323    0.607     H
H        0.338   0.8677    0.107     H
Ag     0.34423  0.45737  0.86755    Ag
Ag     0.34423  0.54263  0.36755    Ag
N       0.3471   0.2672   0.4412     N
N       0.3471   0.7328   0.9412     N
H       0.3492   0.2955   0.9997     H
H       0.3492   0.7045   0.4997     H
H       0.3513   0.4785   0.2628     H
H       0.3513   0.5215   0.7628     H
N       0.3522   0.2104   0.5282     N
N       0.3522   0.7896   0.0282     N
H       0.3555   0.0873   0.1048     H
H       0.3555   0.9127   0.6048     H
H       0.3648   0.0619   0.3395     H
H       0.3648   0.9381   0.8395     H
H       0.3674   0.4826   0.4938     H
H       0.3674   0.5174   0.9938     H
H       0.3675   0.3197   0.7662     H
H       0.3675   0.6803   0.2662     H
N       0.3739   0.0121  0.02746     N
N       0.3739   0.9879  0.52746     N
C       0.3762   0.2565   0.4986     C
C       0.3762   0.7435   0.9986     C
N       0.3771    0.037    0.442     N
N       0.3771    0.963    0.942     N
C        0.402   0.0293   0.4998     C
C        0.402   0.9707   0.9998     C
N       0.4136   0.1572   0.9067     N
N       0.4136   0.8428   0.4067     N
H       0.4239   0.1835   0.9842     H
H       0.4239   0.8165   0.4842     H
H       0.4244   0.1179   0.8388     H
H       0.4244   0.8821   0.3388     H
N       0.4392   0.3838   0.9114     N
N       0.4392   0.6162   0.4114     N
C       0.4403   0.3013   0.5308     C
C       0.4403   0.6987   0.0308     C
C       0.4439   0.1164   0.8789     C
C       0.4439   0.8836   0.3789     C
C        0.444   0.1558   0.9641     C
C        0.444   0.8442   0.4641     C
H       0.4447   0.3972    0.989     H
H       0.4447   0.6028    0.489     H
H       0.4457   0.2905   0.6112     H
H       0.4457   0.7095   0.1112     H
H        0.456   0.3613   0.8438     H
H        0.456   0.6387   0.3438     H
H       0.4569   0.3306    0.461     H
H       0.4569   0.6694    0.961     H
C       0.4665   0.0734   0.5339     C
C       0.4665   0.9266   0.0339     C
C       0.4669    0.375   0.9686     C
C       0.4669    0.625   0.4686     C
C       0.4672   0.3115   0.5898     C
C       0.4672   0.6885   0.0898     C
C       0.4733   0.3536   0.8836     C
C       0.4733   0.6464   0.3836     C
C       0.4742   0.3351    0.501     C
C       0.4742   0.6649    0.001     C
H       0.4768   0.1167    0.464     H
H       0.4768   0.8833    0.964     H
H       0.4802   0.0433   0.6146     H
H       0.4802   0.9567   0.1146     H
C       0.4964   0.1155   0.5042     C
C       0.4964   0.8845   0.0042     C
C        0.498   0.0727   0.5935     C
C        0.498   0.9273   0.0935     C
C        0.502   0.0727   0.9065     C
C        0.502   0.9273   0.4065     C
C       0.5036   0.1155   0.9958     C
C       0.5036   0.8845   0.4958     C
H       0.5198   0.0433   0.8854     H
H       0.5198   0.9567   0.3854     H
H       0.5232   0.1167    0.036     H
H       0.5232   0.8833    0.536     H
C       0.5258   0.3351    0.999     C
C       0.5258   0.6649    0.499     C
C       0.5267   0.3536   0.6164     C
C       0.5267   0.6464   0.1164     C
C       0.5328   0.3115   0.9102     C
C       0.5328   0.6885   0.4102     C
C       0.5331    0.375   0.5314     C
C       0.5331    0.625   0.0314     C
C       0.5335   0.0734   0.9661     C
C       0.5335   0.9266   0.4661     C
H       0.5431   0.3306    0.039     H
H       0.5431   0.6694    0.539     H
H        0.544   0.3613   0.6562     H
H        0.544   0.6387   0.1562     H
H       0.5543   0.2905   0.8888     H
H       0.5543   0.7095   0.3888     H
H       0.5553   0.3972    0.511     H
H       0.5553   0.6028    0.011     H
C        0.556   0.1558   0.5359     C
C        0.556   0.8442   0.0359     C
C       0.5561   0.1164   0.6211     C
C       0.5561   0.8836   0.1211     C
C       0.5597   0.3013   0.9692     C
C       0.5597   0.6987   0.4692     C
N       0.5608   0.3838   0.5886     N
N       0.5608   0.6162   0.0886     N
H       0.5756   0.1179   0.6612     H
H       0.5756   0.8821   0.1612     H
H       0.5761   0.1835   0.5158     H
H       0.5761   0.8165   0.0158     H
N       0.5864   0.1572   0.5933     N
N       0.5864   0.8428   0.0933     N
C        0.598   0.0293   0.0002     C
C        0.598   0.9707   0.5002     C
N       0.6229    0.037    0.058     N
N       0.6229    0.963    0.558     N
C       0.6238   0.2565   0.0014     C
C       0.6238   0.7435   0.5014     C
N       0.6261   0.0121  0.47254     N
N       0.6261   0.9879  0.97254     N
H       0.6325   0.3197   0.7338     H
H       0.6325   0.6803   0.2338     H
H       0.6326   0.4826   0.0062     H
H       0.6326   0.5174   0.5062     H
H       0.6352   0.0619   0.1605     H
H       0.6352   0.9381   0.6605     H
H       0.6445   0.0873   0.3952     H
H       0.6445   0.9127   0.8952     H
N       0.6478   0.2104   0.9718     N
N       0.6478   0.7896   0.4718     N
H       0.6487   0.4785   0.2372     H
H       0.6487   0.5215   0.7372     H
H       0.6508   0.2955   0.5003     H
H       0.6508   0.7045   0.0003     H
N       0.6529   0.2672   0.0588     N
N       0.6529   0.7328   0.5588     N
Ag     0.65577  0.45737  0.63245    Ag
Ag     0.65577  0.54263  0.13245    Ag
H        0.662   0.1323    0.893     H
H        0.662   0.8677    0.393     H
C       0.6717    0.292   0.7564     C
C       0.6717    0.708   0.2564     C
C       0.6747   0.4594   0.0266     C
C       0.6747   0.5406   0.5266     C
H       0.6757   0.3332   0.8322     H
H       0.6757   0.6668   0.3322     H
H       0.6767   0.3184   0.1554     H
H       0.6767   0.6816   0.6554     H
Ag     0.67734  0.24611    0.633    Ag
Ag     0.67734  0.75389    0.133    Ag
C       0.6792   0.0441   0.1806     C
C       0.6792   0.9559   0.6806     C
H         0.68   0.4118   0.9554     H
H         0.68   0.5882   0.4554     H
C       0.6802   0.0021   0.5874     C
C       0.6802   0.9979   0.0874     C
C       0.6824   0.0522   0.5061     C
C       0.6824   0.9478   0.0061     C
C       0.6863   0.1099   0.4175     C
C       0.6863   0.8901   0.9175     C
H       0.6895   0.0774   0.2595     H
H       0.6895   0.9226   0.7595     H
C       0.6922   0.3199   0.5212     C
C       0.6922   0.6801   0.0212     C
C       0.6929   0.4951   0.2581     C
C       0.6929   0.5049   0.7581     C
C       0.6977   0.3015   0.8156     C
C       0.6977   0.6985   0.3156     C
H       0.6979   0.4595   0.3353     H
H       0.6979   0.5405   0.8353     H
N       0.6992   0.2457   0.7296     N
N       0.6992   0.7543   0.2296     N
H       0.7006   0.1569   0.3516     H
H       0.7006   0.8431   0.8516     H
H       0.7014    0.365   0.4509     H
H       0.7014    0.635   0.9509     H
C       0.7022    0.416   0.9954     C
C       0.7022    0.584   0.4954     C
C        0.704   0.1097   0.9146     C
C        0.704   0.8903   0.4146     C
N       0.7044     0.47   0.0831     N
N       0.7044     0.53   0.5831     N
C       0.7054    0.172   0.0044     C
C       0.7054    0.828   0.5044     C
C       0.7097   0.2261    0.087     C
C       0.7097   0.7739    0.587     C
N       0.7115   0.0495   0.5641     N
N       0.7115   0.9505   0.0641     N
C       0.7122   0.0533   0.2402     C
C       0.7122   0.9467   0.7402     C
C       0.7125   0.0083   0.1513     C
C       0.7125   0.9917   0.6513     C
H       0.7134   0.0575   0.8483     H
H       0.7134   0.9425   0.3483     H
C       0.7151   0.2887   0.1773     C
C       0.7151   0.7113   0.6773     C
C       0.7153   0.1019   0.4769     C
C       0.7153   0.8981   0.9769     C
N         0.72   0.3133   0.5787     N
N         0.72   0.6867   0.0787     N
C       0.7203   0.1523   0.3917     C
C       0.7203   0.8477   0.8917     C
C       0.7219   0.4835   0.3171     C
C       0.7219   0.5165   0.8171     C
C       0.7222   0.3616    0.491     C
C       0.7222   0.6384    0.991     C
N       0.7246    0.471   0.7292     N
N       0.7246    0.529   0.2292     N
H       0.7263     0.33   0.2541     H
H       0.7263     0.67   0.7541     H
C       0.7352   0.0645   0.8882     C
C       0.7352   0.9355   0.3882     C
C       0.7357   0.1213    0.974     C
C       0.7357   0.8787    0.474     C
N        0.738   0.1774  0.06214     N
N        0.738   0.8226  0.56214     N
C        0.743   0.2368   0.1506     C
C        0.743   0.7632   0.6506     C
C       0.7453   0.2953   0.2366     C
C       0.7453   0.7047   0.7366     C
C       0.7547   0.2047   0.7634     C
C       0.7547   0.7953   0.2634     C
C        0.757   0.2632   0.8494     C
C        0.757   0.7368   0.3494     C
N        0.762   0.3226  0.93786     N
N        0.762   0.6774  0.43786     N
C       0.7643   0.3787    0.026     C
C       0.7643   0.6213    0.526     C
C       0.7648   0.4355   0.1118     C
C       0.7648   0.5645   0.6118     C
H       0.7737     0.17   0.7459     H
H       0.7737     0.83   0.2459     H
N       0.7754    0.029   0.2708     N
N       0.7754    0.971   0.7708     N
C       0.7778   0.1384    0.509     C
C       0.7778   0.8616    0.009     C
C       0.7781   0.0165   0.6829     C
C       0.7781   0.9835   0.1829     C
C       0.7797   0.3477   0.6083     C
C       0.7797   0.6523   0.1083     C
N         0.78   0.1867   0.4213     N
N         0.78   0.8133   0.9213     N
C       0.7847   0.3981   0.5231     C
C       0.7847   0.6019   0.0231     C
C       0.7849   0.2113   0.8227     C
C       0.7849   0.7887   0.3227     C
H       0.7866   0.4425   0.1517     H
H       0.7866   0.5575   0.6517     H
C       0.7875   0.4917   0.8487     C
C       0.7875   0.5083   0.3487     C
C       0.7878   0.4467   0.7598     C
C       0.7878   0.5533   0.2598     C
N       0.7885   0.4505   0.4359     N
N       0.7885   0.5495   0.9359     N
C       0.7903   0.2739    0.913     C
C       0.7903   0.7261    0.413     C
C       0.7946    0.328   0.9956     C
C       0.7946    0.672   0.4956     C
N       0.7956     0.03   0.9169     N
N       0.7956     0.97   0.4169     N
C        0.796   0.3903   0.0854     C
C        0.796   0.6097   0.5854     C
C       0.7978    0.084   0.0046     C
C       0.7978    0.916   0.5046     C
H       0.7986    0.135   0.5491     H
H       0.7986    0.865   0.0491     H
H       0.7994   0.3431   0.6484     H
H       0.7994   0.6569   0.1484     H
N       0.8008   0.2543   0.2704     N
N       0.8008   0.7457   0.7704     N
H       0.8021   0.0405   0.6647     H
H       0.8021   0.9595   0.1647     H
C       0.8023   0.1985   0.1844     C
C       0.8023   0.8015   0.6844     C
C       0.8071   0.0049   0.7419     C
C       0.8071   0.9951   0.2419     C
C       0.8078   0.1801   0.4788     C
C       0.8078   0.8199   0.9788     C
H       0.8105   0.4226   0.7405     H
H       0.8105   0.5774   0.2405     H
C       0.8137   0.3901   0.5825     C
C       0.8137   0.6099   0.0825     C
C       0.8176   0.4478   0.4939     C
C       0.8176   0.5522   0.9939     C
C       0.8198   0.4979   0.4126     C
C       0.8198   0.5021   0.9126     C
H         0.82   0.0882   0.0446     H
H         0.82   0.9118   0.5446     H
C       0.8208   0.4559   0.8194     C
C       0.8208   0.5441   0.3194     C
Ag     0.82266  0.25389    0.367    Ag
Ag     0.82266  0.74611    0.867    Ag
H       0.8233   0.1816   0.8446     H
H       0.8233   0.8184   0.3446     H
H       0.8243   0.1668   0.1678     H
H       0.8243   0.8332   0.6678     H
C       0.8253   0.0406   0.9734     C
C       0.8253   0.9594   0.4734     C
C       0.8283    0.208   0.2436     C
C       0.8283    0.792   0.7436     C
H        0.838   0.3677    0.107     H
H        0.838   0.6323    0.607     H
Ag     0.84423  0.04263  0.36755    Ag
Ag     0.84423  0.95737  0.86755    Ag
N       0.8471   0.2328   0.9412     N
N       0.8471   0.7672   0.4412     N
H       0.8492   0.2045   0.4997     H
H       0.8492   0.7955   0.9997     H
H       0.8513   0.0215   0.7628     H
H       0.8513   0.9785   0.2628     H
N       0.8522   0.2896   0.0282     N
N       0.8522   0.7104   0.5282     N
H       0.8555   0.4127   0.6048     H
H       0.8555   0.5873   0.1048     H
H       0.8648   0.4381   0.8395     H
H       0.8648   0.5619   0.3395     H
H       0.8674   0.0174   0.9938     H
H       0.8674   0.9826   0.4938     H
H       0.8675   0.1803   0.2662     H
H       0.8675   0.8197   0.7662     H
N       0.8739   0.4879  0.52746     N
N       0.8739   0.5121  0.02746     N
C       0.8762   0.2435   0.9986     C
C       0.8762   0.7565   0.4986     C
N       0.8771    0.463    0.942     N
N       0.8771    0.537    0.442     N
C        0.902   0.4707   0.9998     C
C        0.902   0.5293   0.4998     C
N       0.9136   0.3428   0.4067     N
N       0.9136   0.6572   0.9067     N
H       0.9239   0.3165   0.4842     H
H       0.9239   0.6835   0.9842     H
H       0.9244   0.3821   0.3388     H
H       0.9244   0.6179   0.8388     H
N       0.9392   0.1162   0.4114     N
N       0.9392   0.8838   0.9114     N
C       0.9403   0.1987   0.0308     C
C       0.9403   0.8013   0.5308     C
C       0.9439   0.3836   0.3789     C
C       0.9439   0.6164   0.8789     C
C        0.944   0.3442   0.4641     C
C        0.944   0.6558   0.9641     C
H       0.9447   0.1028    0.489     H
H       0.9447   0.8972    0.989     H
H       0.9457   0.2095   0.1112     H
H       0.9457   0.7905   0.6112     H
H        0.956   0.1387   0.3438     H
H        0.956   0.8613   0.8438     H
H       0.9569   0.1694    0.961     H
H       0.9569   0.8306    0.461     H
C       0.9665   0.4266   0.0339     C
C       0.9665   0.5734   0.5339     C
C       0.9669    0.125   0.4686     C
C       0.9669    0.875   0.9686     C
C       0.9672   0.1885   0.0898     C
C       0.9672   0.8115   0.5898     C
C       0.9733   0.1464   0.3836     C
C       0.9733   0.8536   0.8836     C
C       0.9742   0.1649    0.001     C
C       0.9742   0.8351    0.501     C
H       0.9768   0.3833    0.964     H
H       0.9768   0.6167    0.464     H
H       0.9802   0.4567   0.1146     H
H       0.9802   0.5433   0.6146     H
C       0.9964   0.3845   0.0042     C
C       0.9964   0.6155   0.5042     C
C        0.998   0.4273   0.0935     C
C        0.998   0.5727   0.5935     C
