data_I
_chemical_name_common  '/home/zhangsd/repos/MofS-CGCNN/ML/data/SSD/clean_cifs/QODHUO13_clean'
_cell_length_a 22.02900
_cell_length_b 16.48610
_cell_length_c 25.58870
_cell_angle_alpha 90.00000
_cell_angle_beta  115.23300
_cell_angle_gamma 90.00000
_space_group_name_H-M_alt      'P 1'


loop_
_space_group_symop_operation_xyz
  'x, y, z' 

loop_
_atom_site_label
_atom_site_fract_x
_atom_site_fract_y
_atom_site_fract_z
_atom_site_type_symbol
C        0.002   0.0725   0.9063     C
C        0.002   0.9275   0.4063     C
C       0.0036   0.1158   0.9958     C
C       0.0036   0.8842   0.4958     C
H       0.0195   0.0424   0.8853     H
H       0.0195   0.9576   0.3853     H
H       0.0232   0.1171    0.036     H
H       0.0232   0.8829    0.536     H
C       0.0261   0.3355   0.9991     C
C       0.0261   0.6645   0.4991     C
C       0.0266   0.3537   0.6164     C
C       0.0266   0.6463   0.1164     C
C       0.0329   0.3119   0.9103     C
C       0.0329   0.6881   0.4103     C
C        0.033   0.3753   0.5315     C
C        0.033   0.6247   0.0315     C
C       0.0334   0.0736   0.9661     C
C       0.0334   0.9264   0.4661     C
H       0.0435   0.3312   0.0391     H
H       0.0435   0.6688   0.5391     H
H       0.0439   0.3615   0.6561     H
H       0.0439   0.6385   0.1561     H
H       0.0544   0.2909   0.8889     H
H       0.0544   0.7091   0.3889     H
H       0.0552   0.3978   0.5111     H
H       0.0552   0.6022   0.0111     H
C       0.0558   0.1169   0.6211     C
C       0.0558   0.8831   0.1211     C
C       0.0561   0.1563   0.5358     C
C       0.0561   0.8437   0.0358     C
C       0.0598   0.3017   0.9691     C
C       0.0598   0.6983   0.4691     C
N       0.0606   0.3836   0.5887     N
N       0.0606   0.6164   0.0887     N
H       0.0747   0.1193   0.6612     H
H       0.0747   0.8807   0.1612     H
H       0.0761   0.1843   0.5158     H
H       0.0761   0.8157   0.0158     H
N       0.0865   0.1571   0.5936     N
N       0.0865   0.8429   0.0936     N
C       0.0977   0.0293   0.0003     C
C       0.0977   0.9707   0.5003     C
N       0.1227   0.0373    0.058     N
N       0.1227   0.9627    0.558     N
C       0.1237   0.2568   0.0015     C
C       0.1237   0.7432   0.5015     C
N       0.1261   0.0123   0.4726     N
N       0.1261   0.9877   0.9726     N
H       0.1321   0.3193   0.7334     H
H       0.1321   0.6807   0.2334     H
H       0.1324   0.4821   0.0061     H
H       0.1324   0.5179   0.5061     H
H       0.1354    0.062   0.1607     H
H       0.1354    0.938   0.6607     H
H       0.1442   0.0879   0.3958     H
H       0.1442   0.9121   0.8958     H
N       0.1479   0.2103   0.9719     N
N       0.1479   0.7897   0.4719     N
H       0.1488   0.4778   0.2374     H
H       0.1488   0.5222   0.7374     H
H       0.1506   0.2955   0.5005     H
H       0.1506   0.7045   0.0005     H
N       0.1529   0.2673   0.0585     N
N       0.1529   0.7327   0.5585     N
Ag     0.15573  0.45743  0.63237    Ag
Ag     0.15573  0.54257  0.13237    Ag
H       0.1618   0.1325    0.893     H
H       0.1618   0.8675    0.393     H
C       0.1715   0.2919    0.756     C
C       0.1715   0.7081    0.256     C
C       0.1745   0.4592   0.0263     C
C       0.1745   0.5408   0.5263     C
H        0.176   0.3334   0.8322     H
H        0.176   0.6666   0.3322     H
H       0.1765    0.318   0.1553     H
H       0.1765    0.682   0.6553     H
Ag     0.17734  0.24623  0.63295    Ag
Ag     0.17734  0.75377  0.13295    Ag
C       0.1793   0.0439   0.1807     C
C       0.1793   0.9561   0.6807     C
H         0.18   0.4121   0.9553     H
H         0.18   0.5879   0.4553     H
C       0.1802   0.0023   0.5874     C
C       0.1802   0.9977   0.0874     C
C       0.1823   0.0518   0.5063     C
C       0.1823   0.9482   0.0063     C
C       0.1861   0.1103    0.418     C
C       0.1861   0.8897    0.918     C
H        0.189   0.0776   0.2587     H
H        0.189   0.9224   0.7587     H
C       0.1921   0.3198   0.5214     C
C       0.1921   0.6802   0.0214     C
C        0.193   0.4947   0.2583     C
C        0.193   0.5053   0.7583     C
H       0.1976   0.4596   0.3354     H
H       0.1976   0.5404   0.8354     H
C       0.1979   0.3015   0.8156     C
C       0.1979   0.6985   0.3156     C
N       0.1992    0.246   0.7296     N
N       0.1992    0.754   0.2296     N
H       0.1999   0.1575   0.3517     H
H       0.1999   0.8425   0.8517     H
H       0.2017   0.3654   0.4512     H
H       0.2017   0.6346   0.9512     H
C       0.2022   0.4161   0.9953     C
C       0.2022   0.5839   0.4953     C
C       0.2038   0.1098   0.9146     C
C       0.2038   0.8902   0.4146     C
N       0.2046   0.4698   0.0834     N
N       0.2046   0.5302   0.5834     N
C       0.2054   0.1722   0.0046     C
C       0.2054   0.8278   0.5046     C
C       0.2098   0.2267   0.0868     C
C       0.2098   0.7733   0.5868     C
N       0.2114   0.0499   0.5641     N
N       0.2114   0.9501   0.0641     N
C       0.2119   0.0533   0.2396     C
C       0.2119   0.9467   0.7396     C
C       0.2123   0.0075   0.1514     C
C       0.2123   0.9925   0.6514     C
H       0.2137   0.0573   0.8484     H
H       0.2137   0.9427   0.3484     H
C        0.215   0.2886   0.1772     C
C        0.215   0.7114   0.6772     C
C       0.2151   0.1015    0.477     C
C       0.2151   0.8985    0.977     C
C       0.2199   0.1527   0.3917     C
C       0.2199   0.8473   0.8917     C
N       0.2203    0.313   0.5788     N
N       0.2203    0.687   0.0788     N
C       0.2218   0.4832   0.3172     C
C       0.2218   0.5168   0.8172     C
C       0.2225   0.3619   0.4913     C
C       0.2225   0.6381   0.9913     C
N       0.2244   0.4712    0.729     N
N       0.2244   0.5288    0.229     N
H       0.2265   0.3299   0.2543     H
H       0.2265   0.6701   0.7543     H
C       0.2355   0.0644   0.8882     C
C       0.2355   0.9356   0.3882     C
C       0.2357   0.1211   0.9741     C
C       0.2357   0.8789   0.4741     C
N       0.2378   0.1776   0.0621     N
N       0.2378   0.8224   0.5621     N
C       0.2435   0.2367   0.1509     C
C       0.2435   0.7633   0.6509     C
C       0.2455   0.2951   0.2367     C
C       0.2455   0.7049   0.7367     C
C       0.2545   0.2049   0.7633     C
C       0.2545   0.7951   0.2633     C
C       0.2565   0.2633   0.8491     C
C       0.2565   0.7367   0.3491     C
N       0.2622   0.3224   0.9379     N
N       0.2622   0.6776   0.4379     N
C       0.2643   0.3789   0.0259     C
C       0.2643   0.6211   0.5259     C
C       0.2645   0.4356   0.1118     C
C       0.2645   0.5644   0.6118     C
H       0.2735   0.1701   0.7457     H
H       0.2735   0.8299   0.2457     H
N       0.2756   0.0288    0.271     N
N       0.2756   0.9712    0.771     N
C       0.2775   0.1381   0.5087     C
C       0.2775   0.8619   0.0087     C
C       0.2782   0.0168   0.6828     C
C       0.2782   0.9832   0.1828     C
N       0.2797    0.187   0.4212     N
N       0.2797    0.813   0.9212     N
C       0.2801   0.3473   0.6083     C
C       0.2801   0.6527   0.1083     C
C       0.2849   0.3985    0.523     C
C       0.2849   0.6015    0.023     C
C        0.285   0.2114   0.8228     C
C        0.285   0.7886   0.3228     C
H       0.2863   0.4427   0.1516     H
H       0.2863   0.5573   0.6516     H
C       0.2877   0.4925   0.8486     C
C       0.2877   0.5075   0.3486     C
C       0.2881   0.4467   0.7604     C
C       0.2881   0.5533   0.2604     C
N       0.2886   0.4501   0.4359     N
N       0.2886   0.5499   0.9359     N
C       0.2902   0.2733   0.9132     C
C       0.2902   0.7267   0.4132     C
C       0.2946   0.3278   0.9954     C
C       0.2946   0.6722   0.4954     C
N       0.2954   0.0302   0.9166     N
N       0.2954   0.9698   0.4166     N
C       0.2962   0.3902   0.0854     C
C       0.2962   0.6098   0.5854     C
C       0.2978   0.0839   0.0047     C
C       0.2978   0.9161   0.5047     C
H       0.2983   0.1346   0.5488     H
H       0.2983   0.8654   0.0488     H
H       0.3001   0.3425   0.6483     H
H       0.3001   0.6575   0.1483     H
N       0.3008    0.254   0.2704     N
N       0.3008    0.746   0.7704     N
C       0.3021   0.1985   0.1844     C
C       0.3021   0.8015   0.6844     C
H       0.3024   0.0404   0.6646     H
H       0.3024   0.9596   0.1646     H
C        0.307   0.0053   0.7417     C
C        0.307   0.9947   0.2417     C
C       0.3079   0.1802   0.4786     C
C       0.3079   0.8198   0.9786     C
H        0.311   0.4224   0.7413     H
H        0.311   0.5776   0.2413     H
C       0.3139   0.3897    0.582     C
C       0.3139   0.6103    0.082     C
C       0.3177   0.4482   0.4937     C
C       0.3177   0.5518   0.9937     C
C       0.3198   0.4977   0.4126     C
C       0.3198   0.5023   0.9126     C
H         0.32   0.0879   0.0447     H
H         0.32   0.9121   0.5447     H
C       0.3207   0.4561   0.8193     C
C       0.3207   0.5439   0.3193     C
Ag     0.32266  0.25377  0.36705    Ag
Ag     0.32266  0.74623  0.86705    Ag
H       0.3235    0.182   0.8447     H
H       0.3235    0.818   0.3447     H
H        0.324   0.1666   0.1678     H
H        0.324   0.8334   0.6678     H
C       0.3255   0.0408   0.9737     C
C       0.3255   0.9592   0.4737     C
C       0.3285   0.2081    0.244     C
C       0.3285   0.7919    0.744     C
H       0.3382   0.3675    0.107     H
H       0.3382   0.6325    0.607     H
Ag     0.34427  0.04257  0.36763    Ag
Ag     0.34427  0.95743  0.86763    Ag
N       0.3471   0.2327   0.9415     N
N       0.3471   0.7673   0.4415     N
H       0.3494   0.2045   0.4995     H
H       0.3494   0.7955   0.9995     H
H       0.3512   0.0222   0.7626     H
H       0.3512   0.9778   0.2626     H
N       0.3521   0.2897   0.0281     N
N       0.3521   0.7103   0.5281     N
H       0.3558   0.4121   0.6042     H
H       0.3558   0.5879   0.1042     H
H       0.3646    0.438   0.8393     H
H       0.3646    0.562   0.3393     H
H       0.3676   0.0179   0.9939     H
H       0.3676   0.9821   0.4939     H
H       0.3679   0.1807   0.2666     H
H       0.3679   0.8193   0.7666     H
N       0.3739   0.4877   0.5274     N
N       0.3739   0.5123   0.0274     N
C       0.3763   0.2432   0.9985     C
C       0.3763   0.7568   0.4985     C
N       0.3773   0.4627    0.942     N
N       0.3773   0.5373    0.442     N
C       0.4023   0.4707   0.9997     C
C       0.4023   0.5293   0.4997     C
N       0.4135   0.3429   0.4064     N
N       0.4135   0.6571   0.9064     N
H       0.4239   0.3157   0.4842     H
H       0.4239   0.6843   0.9842     H
H       0.4253   0.3807   0.3388     H
H       0.4253   0.6193   0.8388     H
N       0.4394   0.1164   0.4113     N
N       0.4394   0.8836   0.9113     N
C       0.4402   0.1983   0.0309     C
C       0.4402   0.8017   0.5309     C
C       0.4439   0.3437   0.4642     C
C       0.4439   0.6563   0.9642     C
C       0.4442   0.3831   0.3789     C
C       0.4442   0.6169   0.8789     C
H       0.4448   0.1022   0.4889     H
H       0.4448   0.8978   0.9889     H
H       0.4456   0.2091   0.1111     H
H       0.4456   0.7909   0.6111     H
H       0.4561   0.1385   0.3439     H
H       0.4561   0.8615   0.8439     H
H       0.4565   0.1688   0.9609     H
H       0.4565   0.8312   0.4609     H
C       0.4666   0.4264   0.0339     C
C       0.4666   0.5736   0.5339     C
C        0.467   0.1247   0.4685     C
C        0.467   0.8753   0.9685     C
C       0.4671   0.1881   0.0897     C
C       0.4671   0.8119   0.5897     C
C       0.4734   0.1463   0.3836     C
C       0.4734   0.8537   0.8836     C
C       0.4739   0.1645   0.0009     C
C       0.4739   0.8355   0.5009     C
H       0.4768   0.3829    0.964     H
H       0.4768   0.6171    0.464     H
H       0.4805   0.4576   0.1147     H
H       0.4805   0.5424   0.6147     H
C       0.4964   0.3842   0.0042     C
C       0.4964   0.6158   0.5042     C
C        0.498   0.4275   0.0937     C
C        0.498   0.5725   0.5937     C
C        0.502   0.4275   0.4063     C
C        0.502   0.5725   0.9063     C
C       0.5036   0.3842   0.4958     C
C       0.5036   0.6158   0.9958     C
H       0.5195   0.4576   0.3853     H
H       0.5195   0.5424   0.8853     H
H       0.5232   0.3829    0.536     H
H       0.5232   0.6171    0.036     H
C       0.5261   0.1645   0.4991     C
C       0.5261   0.8355   0.9991     C
C       0.5266   0.1463   0.1164     C
C       0.5266   0.8537   0.6164     C
C       0.5329   0.1881   0.4103     C
C       0.5329   0.8119   0.9103     C
C        0.533   0.1247   0.0315     C
C        0.533   0.8753   0.5315     C
C       0.5334   0.4264   0.4661     C
C       0.5334   0.5736   0.9661     C
H       0.5435   0.1688   0.5391     H
H       0.5435   0.8312   0.0391     H
H       0.5439   0.1385   0.1561     H
H       0.5439   0.8615   0.6561     H
H       0.5544   0.2091   0.3889     H
H       0.5544   0.7909   0.8889     H
H       0.5552   0.1022   0.0111     H
H       0.5552   0.8978   0.5111     H
C       0.5558   0.3831   0.1211     C
C       0.5558   0.6169   0.6211     C
C       0.5561   0.3437   0.0358     C
C       0.5561   0.6563   0.5358     C
C       0.5598   0.1983   0.4691     C
C       0.5598   0.8017   0.9691     C
N       0.5606   0.1164   0.0887     N
N       0.5606   0.8836   0.5887     N
H       0.5747   0.3807   0.1612     H
H       0.5747   0.6193   0.6612     H
H       0.5761   0.3157   0.0158     H
H       0.5761   0.6843   0.5158     H
N       0.5865   0.3429   0.0936     N
N       0.5865   0.6571   0.5936     N
C       0.5977   0.4707   0.5003     C
C       0.5977   0.5293   0.0003     C
N       0.6227   0.4627    0.558     N
N       0.6227   0.5373    0.058     N
C       0.6237   0.2432   0.5015     C
C       0.6237   0.7568   0.0015     C
N       0.6261   0.4877   0.9726     N
N       0.6261   0.5123   0.4726     N
H       0.6321   0.1807   0.2334     H
H       0.6321   0.8193   0.7334     H
H       0.6324   0.0179   0.5061     H
H       0.6324   0.9821   0.0061     H
H       0.6354    0.438   0.6607     H
H       0.6354    0.562   0.1607     H
H       0.6442   0.4121   0.8958     H
H       0.6442   0.5879   0.3958     H
N       0.6479   0.2897   0.4719     N
N       0.6479   0.7103   0.9719     N
H       0.6488   0.0222   0.7374     H
H       0.6488   0.9778   0.2374     H
H       0.6506   0.2045   0.0005     H
H       0.6506   0.7955   0.5005     H
N       0.6529   0.2327   0.5585     N
N       0.6529   0.7673   0.0585     N
Ag     0.65573  0.04257  0.13237    Ag
Ag     0.65573  0.95743  0.63237    Ag
H       0.6618   0.3675    0.393     H
H       0.6618   0.6325    0.893     H
C       0.6715   0.2081    0.256     C
C       0.6715   0.7919    0.756     C
C       0.6745   0.0408   0.5263     C
C       0.6745   0.9592   0.0263     C
H        0.676   0.1666   0.3322     H
H        0.676   0.8334   0.8322     H
H       0.6765    0.182   0.6553     H
H       0.6765    0.818   0.1553     H
Ag     0.67734  0.25377  0.13295    Ag
Ag     0.67734  0.74623  0.63295    Ag
C       0.6793   0.4561   0.6807     C
C       0.6793   0.5439   0.1807     C
H         0.68   0.0879   0.4553     H
H         0.68   0.9121   0.9553     H
C       0.6802   0.4977   0.0874     C
C       0.6802   0.5023   0.5874     C
C       0.6823   0.4482   0.0063     C
C       0.6823   0.5518   0.5063     C
C       0.6861   0.3897    0.918     C
C       0.6861   0.6103    0.418     C
H        0.689   0.4224   0.7587     H
H        0.689   0.5776   0.2587     H
C       0.6921   0.1802   0.0214     C
C       0.6921   0.8198   0.5214     C
C        0.693   0.0053   0.7583     C
C        0.693   0.9947   0.2583     C
H       0.6976   0.0404   0.8354     H
H       0.6976   0.9596   0.3354     H
C       0.6979   0.1985   0.3156     C
C       0.6979   0.8015   0.8156     C
N       0.6992    0.254   0.2296     N
N       0.6992    0.746   0.7296     N
H       0.6999   0.3425   0.8517     H
H       0.6999   0.6575   0.3517     H
H       0.7017   0.1346   0.9512     H
H       0.7017   0.8654   0.4512     H
C       0.7022   0.0839   0.4953     C
C       0.7022   0.9161   0.9953     C
C       0.7038   0.3902   0.4146     C
C       0.7038   0.6098   0.9146     C
N       0.7046   0.0302   0.5834     N
N       0.7046   0.9698   0.0834     N
C       0.7054   0.3278   0.5046     C
C       0.7054   0.6722   0.0046     C
C       0.7098   0.2733   0.5868     C
C       0.7098   0.7267   0.0868     C
N       0.7114   0.4501   0.0641     N
N       0.7114   0.5499   0.5641     N
C       0.7119   0.4467   0.7396     C
C       0.7119   0.5533   0.2396     C
C       0.7123   0.4925   0.6514     C
C       0.7123   0.5075   0.1514     C
H       0.7137   0.4427   0.3484     H
H       0.7137   0.5573   0.8484     H
C        0.715   0.2114   0.6772     C
C        0.715   0.7886   0.1772     C
C       0.7151   0.3985    0.977     C
C       0.7151   0.6015    0.477     C
C       0.7199   0.3473   0.8917     C
C       0.7199   0.6527   0.3917     C
N       0.7203    0.187   0.0788     N
N       0.7203    0.813   0.5788     N
C       0.7218   0.0168   0.8172     C
C       0.7218   0.9832   0.3172     C
C       0.7225   0.1381   0.9913     C
C       0.7225   0.8619   0.4913     C
N       0.7244   0.0288    0.229     N
N       0.7244   0.9712    0.729     N
H       0.7265   0.1701   0.7543     H
H       0.7265   0.8299   0.2543     H
C       0.7355   0.4356   0.3882     C
C       0.7355   0.5644   0.8882     C
C       0.7357   0.3789   0.4741     C
C       0.7357   0.6211   0.9741     C
N       0.7378   0.3224   0.5621     N
N       0.7378   0.6776   0.0621     N
C       0.7435   0.2633   0.6509     C
C       0.7435   0.7367   0.1509     C
C       0.7455   0.2049   0.7367     C
C       0.7455   0.7951   0.2367     C
C       0.7545   0.2951   0.2633     C
C       0.7545   0.7049   0.7633     C
C       0.7565   0.2367   0.3491     C
C       0.7565   0.7633   0.8491     C
N       0.7622   0.1776   0.4379     N
N       0.7622   0.8224   0.9379     N
C       0.7643   0.1211   0.5259     C
C       0.7643   0.8789   0.0259     C
C       0.7645   0.0644   0.6118     C
C       0.7645   0.9356   0.1118     C
H       0.7735   0.3299   0.2457     H
H       0.7735   0.6701   0.7457     H
N       0.7756   0.4712    0.771     N
N       0.7756   0.5288    0.271     N
C       0.7775   0.3619   0.0087     C
C       0.7775   0.6381   0.5087     C
C       0.7782   0.4832   0.1828     C
C       0.7782   0.5168   0.6828     C
N       0.7797    0.313   0.9212     N
N       0.7797    0.687   0.4212     N
C       0.7801   0.1527   0.1083     C
C       0.7801   0.8473   0.6083     C
C       0.7849   0.1015    0.023     C
C       0.7849   0.8985    0.523     C
C        0.785   0.2886   0.3228     C
C        0.785   0.7114   0.8228     C
H       0.7863   0.0573   0.6516     H
H       0.7863   0.9427   0.1516     H
C       0.7877   0.0075   0.3486     C
C       0.7877   0.9925   0.8486     C
C       0.7881   0.0533   0.2604     C
C       0.7881   0.9467   0.7604     C
N       0.7886   0.0499   0.9359     N
N       0.7886   0.9501   0.4359     N
C       0.7902   0.2267   0.4132     C
C       0.7902   0.7733   0.9132     C
C       0.7946   0.1722   0.4954     C
C       0.7946   0.8278   0.9954     C
N       0.7954   0.4698   0.4166     N
N       0.7954   0.5302   0.9166     N
C       0.7962   0.1098   0.5854     C
C       0.7962   0.8902   0.0854     C
C       0.7978   0.4161   0.5047     C
C       0.7978   0.5839   0.0047     C
H       0.7983   0.3654   0.0488     H
H       0.7983   0.6346   0.5488     H
H       0.8001   0.1575   0.1483     H
H       0.8001   0.8425   0.6483     H
N       0.8008    0.246   0.7704     N
N       0.8008    0.754   0.2704     N
C       0.8021   0.3015   0.6844     C
C       0.8021   0.6985   0.1844     C
H       0.8024   0.4596   0.1646     H
H       0.8024   0.5404   0.6646     H
C        0.807   0.4947   0.2417     C
C        0.807   0.5053   0.7417     C
C       0.8079   0.3198   0.9786     C
C       0.8079   0.6802   0.4786     C
H        0.811   0.0776   0.2413     H
H        0.811   0.9224   0.7413     H
C       0.8139   0.1103    0.082     C
C       0.8139   0.8897    0.582     C
C       0.8177   0.0518   0.9937     C
C       0.8177   0.9482   0.4937     C
C       0.8198   0.0023   0.9126     C
C       0.8198   0.9977   0.4126     C
H         0.82   0.4121   0.5447     H
H         0.82   0.5879   0.0447     H
C       0.8207   0.0439   0.3193     C
C       0.8207   0.9561   0.8193     C
Ag     0.82266  0.24623  0.86705    Ag
Ag     0.82266  0.75377  0.36705    Ag
H       0.8235    0.318   0.3447     H
H       0.8235    0.682   0.8447     H
H        0.824   0.3334   0.6678     H
H        0.824   0.6666   0.1678     H
C       0.8255   0.4592   0.4737     C
C       0.8255   0.5408   0.9737     C
C       0.8285   0.2919    0.744     C
C       0.8285   0.7081    0.244     C
H       0.8382   0.1325    0.607     H
H       0.8382   0.8675    0.107     H
Ag     0.84427  0.45743  0.86763    Ag
Ag     0.84427  0.54257  0.36763    Ag
N       0.8471   0.2673   0.4415     N
N       0.8471   0.7327   0.9415     N
H       0.8494   0.2955   0.9995     H
H       0.8494   0.7045   0.4995     H
H       0.8512   0.4778   0.2626     H
H       0.8512   0.5222   0.7626     H
N       0.8521   0.2103   0.5281     N
N       0.8521   0.7897   0.0281     N
H       0.8558   0.0879   0.1042     H
H       0.8558   0.9121   0.6042     H
H       0.8646    0.062   0.3393     H
H       0.8646    0.938   0.8393     H
H       0.8676   0.4821   0.4939     H
H       0.8676   0.5179   0.9939     H
H       0.8679   0.3193   0.7666     H
H       0.8679   0.6807   0.2666     H
N       0.8739   0.0123   0.0274     N
N       0.8739   0.9877   0.5274     N
C       0.8763   0.2568   0.4985     C
C       0.8763   0.7432   0.9985     C
N       0.8773   0.0373    0.442     N
N       0.8773   0.9627    0.942     N
C       0.9023   0.0293   0.4997     C
C       0.9023   0.9707   0.9997     C
N       0.9135   0.1571   0.9064     N
N       0.9135   0.8429   0.4064     N
H       0.9239   0.1843   0.9842     H
H       0.9239   0.8157   0.4842     H
H       0.9253   0.1193   0.8388     H
H       0.9253   0.8807   0.3388     H
N       0.9394   0.3836   0.9113     N
N       0.9394   0.6164   0.4113     N
C       0.9402   0.3017   0.5309     C
C       0.9402   0.6983   0.0309     C
C       0.9439   0.1563   0.9642     C
C       0.9439   0.8437   0.4642     C
C       0.9442   0.1169   0.8789     C
C       0.9442   0.8831   0.3789     C
H       0.9448   0.3978   0.9889     H
H       0.9448   0.6022   0.4889     H
H       0.9456   0.2909   0.6111     H
H       0.9456   0.7091   0.1111     H
H       0.9561   0.3615   0.8439     H
H       0.9561   0.6385   0.3439     H
H       0.9565   0.3312   0.4609     H
H       0.9565   0.6688   0.9609     H
C       0.9666   0.0736   0.5339     C
C       0.9666   0.9264   0.0339     C
C        0.967   0.3753   0.9685     C
C        0.967   0.6247   0.4685     C
C       0.9671   0.3119   0.5897     C
C       0.9671   0.6881   0.0897     C
C       0.9734   0.3537   0.8836     C
C       0.9734   0.6463   0.3836     C
C       0.9739   0.3355   0.5009     C
C       0.9739   0.6645   0.0009     C
H       0.9768   0.1171    0.464     H
H       0.9768   0.8829    0.964     H
H       0.9805   0.0424   0.6147     H
H       0.9805   0.9576   0.1147     H
C       0.9964   0.1158   0.5042     C
C       0.9964   0.8842   0.0042     C
C        0.998   0.0725   0.5937     C
C        0.998   0.9275   0.0937     C
