data_I
_chemical_name_common  '/home/zhangsd/repos/MofS-CGCNN/ML/data/SSD/clean_cifs/QODHUO04_clean'
_cell_length_a 22.00200
_cell_length_b 16.73560
_cell_length_c 25.56070
_cell_angle_alpha 90.00000
_cell_angle_beta  115.19900
_cell_angle_gamma 90.00000
_space_group_name_H-M_alt      'P 1'


loop_
_space_group_symop_operation_xyz
  'x, y, z' 

loop_
_atom_site_label
_atom_site_fract_x
_atom_site_fract_y
_atom_site_fract_z
_atom_site_type_symbol
C       0.0015   0.4277   0.9054     C
C       0.0015   0.5723   0.4054     C
C       0.0037    0.385   0.9946     C
C       0.0037    0.615   0.4946     C
H       0.0192   0.4571   0.8842     H
H       0.0192   0.5429   0.3842     H
H       0.0235   0.3834   0.0348     H
H       0.0235   0.6166   0.5348     H
C       0.0258   0.1657   0.9976     C
C       0.0258   0.8343   0.4976     C
C       0.0271   0.1481   0.6178     C
C       0.0271   0.8519   0.1178     C
C       0.0326   0.1897    0.909     C
C       0.0326   0.8103    0.409     C
C       0.0328   0.1265   0.5325     C
C       0.0328   0.8735   0.0325     C
C       0.0331   0.4274    0.965     C
C       0.0331   0.5726    0.465     C
H       0.0432   0.1696   0.0376     H
H       0.0432   0.8304   0.5376     H
H       0.0444   0.1406   0.6576     H
H       0.0444   0.8594   0.1576     H
H        0.054   0.2104   0.8876     H
H        0.054   0.7896   0.3876     H
H       0.0547   0.1041    0.512     H
H       0.0547   0.8959    0.012     H
C       0.0558   0.3448   0.5371     C
C       0.0558   0.6552   0.0371     C
C       0.0562   0.3843   0.6222     C
C       0.0562   0.6157   0.1222     C
C       0.0597   0.1998    0.968     C
C       0.0597   0.8002    0.468     C
N        0.061   0.1183     0.59     N
N        0.061   0.8817     0.09     N
H       0.0754   0.3169   0.5168     H
H       0.0754   0.6831   0.0168     H
H       0.0755   0.3826   0.6624     H
H       0.0755   0.6174   0.1624     H
N       0.0866   0.3437   0.5944     N
N       0.0866   0.6563   0.0944     N
C       0.0976   0.4716   0.9991     C
C       0.0976   0.5284   0.4991     C
N        0.123    0.463   0.0569     N
N        0.123    0.537   0.5569     N
C       0.1234   0.2443   0.0003     C
C       0.1234   0.7557   0.5003     C
N       0.1255   0.4871   0.4718     N
N       0.1255   0.5129   0.9718     N
H        0.133   0.0175   0.0066     H
H        0.133    0.183   0.7352     H
H        0.133    0.817   0.2352     H
H        0.133   0.9825   0.5066     H
H       0.1348    0.438   0.1587     H
H       0.1348    0.562   0.6587     H
H       0.1448   0.4133   0.3946     H
H       0.1448   0.5867   0.8946     H
N       0.1478   0.2899   0.9708     N
N       0.1478   0.7101   0.4708     N
H       0.1505   0.0223   0.2385     H
H       0.1505   0.9777   0.7385     H
H       0.1522   0.2055   0.5007     H
H       0.1522   0.7945   0.0007     H
N       0.1525    0.234   0.0574     N
N       0.1525    0.766   0.5574     N
Ag     0.15577  0.04333  0.63317    Ag
Ag     0.15577  0.95667  0.13317    Ag
H       0.1619   0.3683   0.8919     H
H       0.1619   0.6317   0.3919     H
C       0.1725   0.2098   0.7579     C
C       0.1725   0.7902   0.2579     C
H       0.1749   0.1854   0.1544     H
H       0.1749   0.8146   0.6544     H
C        0.175   0.0406   0.0271     C
H        0.175   0.1683   0.8327     H
H        0.175   0.8317   0.3327     H
C        0.175   0.9594   0.5271     C
Ag     0.17829  0.25616  0.63356    Ag
Ag     0.17829  0.74384  0.13356    Ag
C       0.1788   0.4558    0.179     C
C       0.1788   0.5442    0.679     C
C       0.1799   0.4979   0.5862     C
C       0.1799   0.5021   0.0862     C
H       0.1803   0.0877   0.9563     H
H       0.1803   0.9123   0.4563     H
C       0.1817   0.4474   0.5053     C
C       0.1817   0.5526   0.0053     C
C       0.1863   0.3903   0.4171     C
C       0.1863   0.6097   0.9171     C
H       0.1882   0.4232   0.2576     H
H       0.1882   0.5768   0.7576     H
C       0.1932   0.1807   0.5218     C
C       0.1932   0.8193   0.0218     C
C       0.1944   0.0048   0.2595     C
C       0.1944   0.9952   0.7595     C
C       0.1975   0.1994   0.8164     C
C       0.1975   0.8006   0.3164     C
H       0.1981   0.0403   0.3362     H
H       0.1981   0.9597   0.8362     H
N       0.1994   0.2542    0.731     N
N       0.1994   0.7458    0.231     N
H       0.2004   0.3426   0.3508     H
H       0.2004   0.6574   0.8508     H
H       0.2022   0.1348   0.4515     H
H       0.2022   0.8652   0.9515     H
C       0.2025   0.0837   0.9963     C
C       0.2025   0.9163   0.4963     C
C       0.2038   0.3906   0.9137     C
C       0.2038   0.6094   0.4137     C
N       0.2045     0.03   0.0837     N
N       0.2045     0.97   0.5837     N
C       0.2051   0.3282   0.0034     C
C       0.2051   0.6718   0.5034     C
C       0.2094   0.2749   0.0858     C
C       0.2094   0.7251   0.5858     C
N       0.2109    0.451   0.5631     N
N       0.2109    0.549   0.0631     N
C       0.2114   0.4468   0.2385     C
C       0.2114   0.5532   0.7385     C
C       0.2121   0.4914   0.1506     C
C       0.2121   0.5086   0.6506     C
H       0.2138   0.4427   0.8476     H
H       0.2138   0.5573   0.3476     H
C       0.2141   0.3985   0.4758     C
C       0.2141   0.6015   0.9758     C
C       0.2142   0.2131   0.1762     C
C       0.2142   0.7869   0.6762     C
C       0.2202   0.3473   0.3908     C
C       0.2202   0.6527   0.8908     C
N       0.2207   0.1872   0.5794     N
N       0.2207   0.8128   0.0794     N
C       0.2223   0.0165   0.3182     C
C       0.2223   0.9835   0.8182     C
C        0.223   0.1385   0.4917     C
C        0.223   0.8615   0.9917     C
N       0.2251   0.0296   0.7302     N
N       0.2251   0.9704   0.2302     N
H       0.2262     0.17   0.2524     H
H       0.2262     0.83   0.7524     H
C       0.2352   0.3788    0.973     C
C       0.2352   0.6212    0.473     C
C       0.2354   0.4357   0.8874     C
C       0.2354   0.5643   0.3874     C
N       0.2375   0.3226   0.0609     N
N       0.2375   0.6774   0.5609     N
C       0.2427   0.2633   0.1495     C
C       0.2427   0.7367   0.6495     C
C       0.2448   0.2052    0.235     C
C       0.2448   0.7948    0.735     C
C       0.2552   0.2948    0.765     C
C       0.2552   0.7052    0.265     C
C       0.2573   0.2367   0.8505     C
C       0.2573   0.7633   0.3505     C
N       0.2625   0.1774   0.9391     N
N       0.2625   0.8226   0.4391     N
C       0.2646   0.0643   0.1126     C
C       0.2646   0.9357   0.6126     C
C       0.2648   0.1212    0.027     C
C       0.2648   0.8788    0.527     C
H       0.2738     0.33   0.7476     H
H       0.2738     0.67   0.2476     H
N       0.2749   0.4704   0.2698     N
N       0.2749   0.5296   0.7698     N
C        0.277   0.3615   0.5083     C
C        0.277   0.6385   0.0083     C
C       0.2777   0.4835   0.6818     C
C       0.2777   0.5165   0.1818     C
N       0.2793   0.3128   0.4206     N
N       0.2793   0.6872   0.9206     N
C       0.2798   0.1527   0.6092     C
C       0.2798   0.8473   0.1092     C
C       0.2858   0.2869   0.8238     C
C       0.2858   0.7131   0.3238     C
C       0.2859   0.1015   0.5242     C
C       0.2859   0.8985   0.0242     C
H       0.2862   0.0573   0.1524     H
H       0.2862   0.9427   0.6524     H
C       0.2879   0.0086   0.8494     C
C       0.2879   0.9914   0.3494     C
C       0.2886   0.0532   0.7615     C
C       0.2886   0.9468   0.2615     C
N       0.2891    0.049   0.4369     N
N       0.2891    0.951   0.9369     N
C       0.2906   0.2251   0.9142     C
C       0.2906   0.7749   0.4142     C
C       0.2949   0.1718   0.9966     C
C       0.2949   0.8282   0.4966     C
N       0.2955     0.47   0.9163     N
N       0.2955     0.53   0.4163     N
C       0.2962   0.1094   0.0863     C
C       0.2962   0.8906   0.5863     C
C       0.2975   0.4163   0.0037     C
C       0.2975   0.5837   0.5037     C
H       0.2978   0.3652   0.5485     H
H       0.2978   0.6348   0.0485     H
H       0.2996   0.1574   0.6492     H
H       0.2996   0.8426   0.1492     H
N       0.3006   0.2458    0.269     N
N       0.3006   0.7542    0.769     N
H       0.3019   0.4597   0.6638     H
H       0.3019   0.5403   0.1638     H
C       0.3025   0.3006   0.1836     C
C       0.3025   0.6994   0.6836     C
C       0.3056   0.4952   0.7405     C
C       0.3056   0.5048   0.2405     C
C       0.3068   0.3193   0.4782     C
C       0.3068   0.6807   0.9782     C
H       0.3118   0.0768   0.7424     H
H       0.3118   0.9232   0.2424     H
C       0.3137   0.1097   0.5829     C
C       0.3137   0.8903   0.0829     C
C       0.3183   0.0526   0.4947     C
C       0.3183   0.9474   0.9947     C
H       0.3197   0.4123   0.0437     H
H       0.3197   0.5877   0.5437     H
C       0.3201   0.0021   0.4138     C
C       0.3201   0.9979   0.9138     C
C       0.3212   0.0442    0.821     C
C       0.3212   0.9558    0.321     C
Ag     0.32171  0.24384  0.36644    Ag
Ag     0.32171  0.75616  0.86644    Ag
H        0.325   0.3317   0.1673     H
C        0.325   0.4594   0.9729     C
C        0.325   0.5406   0.4729     C
H        0.325   0.6683   0.6673     H
H       0.3251   0.3146   0.8456     H
H       0.3251   0.6854   0.3456     H
C       0.3275   0.2902   0.2421     C
C       0.3275   0.7098   0.7421     C
H       0.3381   0.1317   0.1081     H
H       0.3381   0.8683   0.6081     H
Ag     0.34423  0.45667  0.36683    Ag
Ag     0.34423  0.54333  0.86683    Ag
N       0.3475    0.266   0.9426     N
N       0.3475    0.734   0.4426     N
H       0.3478   0.2945   0.4993     H
H       0.3478   0.7055   0.9993     H
H       0.3495   0.4777   0.7615     H
H       0.3495   0.5223   0.2615     H
N       0.3522   0.2101   0.0292     N
N       0.3522   0.7899   0.5292     N
H       0.3552   0.0867   0.6054     H
H       0.3552   0.9133   0.1054     H
H       0.3652    0.062   0.8413     H
H       0.3652    0.938   0.3413     H
H        0.367    0.317   0.2648     H
H        0.367   0.4825   0.9934     H
H        0.367   0.5175   0.4934     H
H        0.367    0.683   0.7648     H
N       0.3745   0.0129   0.5282     N
N       0.3745   0.9871   0.0282     N
C       0.3766   0.2557   0.9997     C
C       0.3766   0.7443   0.4997     C
N        0.377    0.037   0.9431     N
N        0.377    0.963   0.4431     N
C       0.4024   0.0284   0.0009     C
C       0.4024   0.9716   0.5009     C
N       0.4134   0.1563   0.4056     N
N       0.4134   0.8437   0.9056     N
H       0.4245   0.1174   0.3376     H
H       0.4245   0.8826   0.8376     H
H       0.4246   0.1831   0.4832     H
H       0.4246   0.8169   0.9832     H
N        0.439   0.3817     0.41     N
N        0.439   0.6183     0.91     N
C       0.4403   0.3002    0.032     C
C       0.4403   0.6998    0.532     C
C       0.4438   0.1157   0.3778     C
C       0.4438   0.8843   0.8778     C
C       0.4442   0.1552   0.4629     C
C       0.4442   0.8448   0.9629     C
H       0.4453   0.3959    0.488     H
H       0.4453   0.6041    0.988     H
H        0.446   0.2896   0.1124     H
H        0.446   0.7104   0.6124     H
H       0.4556   0.3594   0.3424     H
H       0.4556   0.6406   0.8424     H
H       0.4568   0.3304   0.9624     H
H       0.4568   0.6696   0.4624     H
C       0.4669   0.0726    0.035     C
C       0.4669   0.9274    0.535     C
C       0.4672   0.3735   0.4675     C
C       0.4672   0.6265   0.9675     C
C       0.4674   0.3103    0.091     C
C       0.4674   0.6897    0.591     C
C       0.4729   0.3519   0.3822     C
C       0.4729   0.6481   0.8822     C
C       0.4742   0.3343   0.0024     C
C       0.4742   0.6657   0.5024     C
H       0.4765   0.1166   0.9652     H
H       0.4765   0.8834   0.4652     H
H       0.4808   0.0429   0.1158     H
H       0.4808   0.9571   0.6158     H
C       0.4963    0.115   0.0054     C
C       0.4963    0.885   0.5054     C
C       0.4985   0.0723   0.0946     C
C       0.4985   0.9277   0.5946     C
C       0.5015   0.0723   0.4054     C
C       0.5015   0.9277   0.9054     C
C       0.5037    0.115   0.4946     C
C       0.5037    0.885   0.9946     C
H       0.5192   0.0429   0.3842     H
H       0.5192   0.9571   0.8842     H
H       0.5235   0.1166   0.5348     H
H       0.5235   0.8834   0.0348     H
C       0.5258   0.3343   0.4976     C
C       0.5258   0.6657   0.9976     C
C       0.5271   0.3519   0.1178     C
C       0.5271   0.6481   0.6178     C
C       0.5326   0.3103    0.409     C
C       0.5326   0.6897    0.909     C
C       0.5328   0.3735   0.0325     C
C       0.5328   0.6265   0.5325     C
C       0.5331   0.0726    0.465     C
C       0.5331   0.9274    0.965     C
H       0.5432   0.3304   0.5376     H
H       0.5432   0.6696   0.0376     H
H       0.5444   0.3594   0.1576     H
H       0.5444   0.6406   0.6576     H
H        0.554   0.2896   0.3876     H
H        0.554   0.7104   0.8876     H
H       0.5547   0.3959    0.012     H
H       0.5547   0.6041    0.512     H
C       0.5558   0.1552   0.0371     C
C       0.5558   0.8448   0.5371     C
C       0.5562   0.1157   0.1222     C
C       0.5562   0.8843   0.6222     C
C       0.5597   0.3002    0.468     C
C       0.5597   0.6998    0.968     C
N        0.561   0.3817     0.09     N
N        0.561   0.6183     0.59     N
H       0.5754   0.1831   0.0168     H
H       0.5754   0.8169   0.5168     H
H       0.5755   0.1174   0.1624     H
H       0.5755   0.8826   0.6624     H
N       0.5866   0.1563   0.0944     N
N       0.5866   0.8437   0.5944     N
C       0.5976   0.0284   0.4991     C
C       0.5976   0.9716   0.9991     C
N        0.623    0.037   0.5569     N
N        0.623    0.963   0.0569     N
C       0.6234   0.2557   0.5003     C
C       0.6234   0.7443   0.0003     C
N       0.6255   0.0129   0.9718     N
N       0.6255   0.9871   0.4718     N
H        0.633    0.317   0.2352     H
H        0.633   0.4825   0.5066     H
H        0.633   0.5175   0.0066     H
H        0.633    0.683   0.7352     H
H       0.6348    0.062   0.6587     H
H       0.6348    0.938   0.1587     H
H       0.6448   0.0867   0.8946     H
H       0.6448   0.9133   0.3946     H
N       0.6478   0.2101   0.4708     N
N       0.6478   0.7899   0.9708     N
H       0.6505   0.4777   0.7385     H
H       0.6505   0.5223   0.2385     H
H       0.6522   0.2945   0.0007     H
H       0.6522   0.7055   0.5007     H
N       0.6525    0.266   0.5574     N
N       0.6525    0.734   0.0574     N
Ag     0.65577  0.45667  0.13317    Ag
Ag     0.65577  0.54333  0.63317    Ag
H       0.6619   0.1317   0.3919     H
H       0.6619   0.8683   0.8919     H
C       0.6725   0.2902   0.2579     C
C       0.6725   0.7098   0.7579     C
H       0.6749   0.3146   0.6544     H
H       0.6749   0.6854   0.1544     H
H        0.675   0.3317   0.3327     H
C        0.675   0.4594   0.5271     C
C        0.675   0.5406   0.0271     C
H        0.675   0.6683   0.8327     H
Ag     0.67829  0.24384  0.13356    Ag
Ag     0.67829  0.75616  0.63356    Ag
C       0.6788   0.0442    0.679     C
C       0.6788   0.9558    0.179     C
C       0.6799   0.0021   0.0862     C
C       0.6799   0.9979   0.5862     C
H       0.6803   0.4123   0.4563     H
H       0.6803   0.5877   0.9563     H
C       0.6817   0.0526   0.0053     C
C       0.6817   0.9474   0.5053     C
C       0.6863   0.1097   0.9171     C
C       0.6863   0.8903   0.4171     C
H       0.6882   0.0768   0.7576     H
H       0.6882   0.9232   0.2576     H
C       0.6932   0.3193   0.0218     C
C       0.6932   0.6807   0.5218     C
C       0.6944   0.4952   0.7595     C
C       0.6944   0.5048   0.2595     C
C       0.6975   0.3006   0.3164     C
C       0.6975   0.6994   0.8164     C
H       0.6981   0.4597   0.8362     H
H       0.6981   0.5403   0.3362     H
N       0.6994   0.2458    0.231     N
N       0.6994   0.7542    0.731     N
H       0.7004   0.1574   0.8508     H
H       0.7004   0.8426   0.3508     H
H       0.7022   0.3652   0.9515     H
H       0.7022   0.6348   0.4515     H
C       0.7025   0.4163   0.4963     C
C       0.7025   0.5837   0.9963     C
C       0.7038   0.1094   0.4137     C
C       0.7038   0.8906   0.9137     C
N       0.7045     0.47   0.5837     N
N       0.7045     0.53   0.0837     N
C       0.7051   0.1718   0.5034     C
C       0.7051   0.8282   0.0034     C
C       0.7094   0.2251   0.5858     C
C       0.7094   0.7749   0.0858     C
N       0.7109    0.049   0.0631     N
N       0.7109    0.951   0.5631     N
C       0.7114   0.0532   0.7385     C
C       0.7114   0.9468   0.2385     C
C       0.7121   0.0086   0.6506     C
C       0.7121   0.9914   0.1506     C
H       0.7138   0.0573   0.3476     H
H       0.7138   0.9427   0.8476     H
C       0.7141   0.1015   0.9758     C
C       0.7141   0.8985   0.4758     C
C       0.7142   0.2869   0.6762     C
C       0.7142   0.7131   0.1762     C
C       0.7202   0.1527   0.8908     C
C       0.7202   0.8473   0.3908     C
N       0.7207   0.3128   0.0794     N
N       0.7207   0.6872   0.5794     N
C       0.7223   0.4835   0.8182     C
C       0.7223   0.5165   0.3182     C
C        0.723   0.3615   0.9917     C
C        0.723   0.6385   0.4917     C
N       0.7251   0.4704   0.2302     N
N       0.7251   0.5296   0.7302     N
H       0.7262     0.33   0.7524     H
H       0.7262     0.67   0.2524     H
C       0.7352   0.1212    0.473     C
C       0.7352   0.8788    0.973     C
C       0.7354   0.0643   0.3874     C
C       0.7354   0.9357   0.8874     C
N       0.7375   0.1774   0.5609     N
N       0.7375   0.8226   0.0609     N
C       0.7427   0.2367   0.6495     C
C       0.7427   0.7633   0.1495     C
C       0.7448   0.2948    0.735     C
C       0.7448   0.7052    0.235     C
C       0.7552   0.2052    0.265     C
C       0.7552   0.7948    0.765     C
C       0.7573   0.2633   0.3505     C
C       0.7573   0.7367   0.8505     C
N       0.7625   0.3226   0.4391     N
N       0.7625   0.6774   0.9391     N
C       0.7646   0.4357   0.6126     C
C       0.7646   0.5643   0.1126     C
C       0.7648   0.3788    0.527     C
C       0.7648   0.6212    0.027     C
H       0.7738     0.17   0.2476     H
H       0.7738     0.83   0.7476     H
N       0.7749   0.0296   0.7698     N
N       0.7749   0.9704   0.2698     N
C        0.777   0.1385   0.0083     C
C        0.777   0.8615   0.5083     C
C       0.7777   0.0165   0.1818     C
C       0.7777   0.9835   0.6818     C
N       0.7793   0.1872   0.9206     N
N       0.7793   0.8128   0.4206     N
C       0.7798   0.3473   0.1092     C
C       0.7798   0.6527   0.6092     C
C       0.7858   0.2131   0.3238     C
C       0.7858   0.7869   0.8238     C
C       0.7859   0.3985   0.0242     C
C       0.7859   0.6015   0.5242     C
H       0.7862   0.4427   0.6524     H
H       0.7862   0.5573   0.1524     H
C       0.7879   0.4914   0.3494     C
C       0.7879   0.5086   0.8494     C
C       0.7886   0.4468   0.2615     C
C       0.7886   0.5532   0.7615     C
N       0.7891    0.451   0.9369     N
N       0.7891    0.549   0.4369     N
C       0.7906   0.2749   0.4142     C
C       0.7906   0.7251   0.9142     C
C       0.7949   0.3282   0.4966     C
C       0.7949   0.6718   0.9966     C
N       0.7955     0.03   0.4163     N
N       0.7955     0.97   0.9163     N
C       0.7962   0.3906   0.5863     C
C       0.7962   0.6094   0.0863     C
C       0.7975   0.0837   0.5037     C
C       0.7975   0.9163   0.0037     C
H       0.7978   0.1348   0.0485     H
H       0.7978   0.8652   0.5485     H
H       0.7996   0.3426   0.1492     H
H       0.7996   0.6574   0.6492     H
N       0.8006   0.2542    0.769     N
N       0.8006   0.7458    0.269     N
H       0.8019   0.0403   0.1638     H
H       0.8019   0.9597   0.6638     H
C       0.8025   0.1994   0.6836     C
C       0.8025   0.8006   0.1836     C
C       0.8056   0.0048   0.2405     C
C       0.8056   0.9952   0.7405     C
C       0.8068   0.1807   0.9782     C
C       0.8068   0.8193   0.4782     C
H       0.8118   0.4232   0.2424     H
H       0.8118   0.5768   0.7424     H
C       0.8137   0.3903   0.0829     C
C       0.8137   0.6097   0.5829     C
C       0.8183   0.4474   0.9947     C
C       0.8183   0.5526   0.4947     C
H       0.8197   0.0877   0.5437     H
H       0.8197   0.9123   0.0437     H
C       0.8201   0.4979   0.9138     C
C       0.8201   0.5021   0.4138     C
C       0.8212   0.4558    0.321     C
C       0.8212   0.5442    0.821     C
Ag     0.82171  0.25616  0.86644    Ag
Ag     0.82171  0.74384  0.36644    Ag
C        0.825   0.0406   0.4729     C
H        0.825   0.1683   0.6673     H
H        0.825   0.8317   0.1673     H
C        0.825   0.9594   0.9729     C
H       0.8251   0.1854   0.3456     H
H       0.8251   0.8146   0.8456     H
C       0.8275   0.2098   0.7421     C
C       0.8275   0.7902   0.2421     C
H       0.8381   0.3683   0.6081     H
H       0.8381   0.6317   0.1081     H
Ag     0.84423  0.04333  0.86683    Ag
Ag     0.84423  0.95667  0.36683    Ag
N       0.8475    0.234   0.4426     N
N       0.8475    0.766   0.9426     N
H       0.8478   0.2055   0.9993     H
H       0.8478   0.7945   0.4993     H
H       0.8495   0.0223   0.2615     H
H       0.8495   0.9777   0.7615     H
N       0.8522   0.2899   0.5292     N
N       0.8522   0.7101   0.0292     N
H       0.8552   0.4133   0.1054     H
H       0.8552   0.5867   0.6054     H
H       0.8652    0.438   0.3413     H
H       0.8652    0.562   0.8413     H
H        0.867   0.0175   0.4934     H
H        0.867    0.183   0.7648     H
H        0.867    0.817   0.2648     H
H        0.867   0.9825   0.9934     H
N       0.8745   0.4871   0.0282     N
N       0.8745   0.5129   0.5282     N
C       0.8766   0.2443   0.4997     C
C       0.8766   0.7557   0.9997     C
N        0.877    0.463   0.4431     N
N        0.877    0.537   0.9431     N
C       0.9024   0.4716   0.5009     C
C       0.9024   0.5284   0.0009     C
N       0.9134   0.3437   0.9056     N
N       0.9134   0.6563   0.4056     N
H       0.9245   0.3826   0.8376     H
H       0.9245   0.6174   0.3376     H
H       0.9246   0.3169   0.9832     H
H       0.9246   0.6831   0.4832     H
N        0.939   0.1183     0.91     N
N        0.939   0.8817     0.41     N
C       0.9403   0.1998    0.532     C
C       0.9403   0.8002    0.032     C
C       0.9438   0.3843   0.8778     C
C       0.9438   0.6157   0.3778     C
C       0.9442   0.3448   0.9629     C
C       0.9442   0.6552   0.4629     C
H       0.9453   0.1041    0.988     H
H       0.9453   0.8959    0.488     H
H        0.946   0.2104   0.6124     H
H        0.946   0.7896   0.1124     H
H       0.9556   0.1406   0.8424     H
H       0.9556   0.8594   0.3424     H
H       0.9568   0.1696   0.4624     H
H       0.9568   0.8304   0.9624     H
C       0.9669   0.4274    0.535     C
C       0.9669   0.5726    0.035     C
C       0.9672   0.1265   0.9675     C
C       0.9672   0.8735   0.4675     C
C       0.9674   0.1897    0.591     C
C       0.9674   0.8103    0.091     C
C       0.9729   0.1481   0.8822     C
C       0.9729   0.8519   0.3822     C
C       0.9742   0.1657   0.5024     C
C       0.9742   0.8343   0.0024     C
H       0.9765   0.3834   0.4652     H
H       0.9765   0.6166   0.9652     H
H       0.9808   0.4571   0.6158     H
H       0.9808   0.5429   0.1158     H
C       0.9963    0.385   0.5054     C
C       0.9963    0.615   0.0054     C
C       0.9985   0.4277   0.5946     C
C       0.9985   0.5723   0.0946     C
