data_I
_chemical_name_common  '/home/zhangsd/repos/MofS-CGCNN/ML/data/SSD/clean_cifs/QODSUZ_clean'
_cell_length_a 21.94750
_cell_length_b 16.67410
_cell_length_c 25.52260
_cell_angle_alpha 90.00000
_cell_angle_beta  115.11900
_cell_angle_gamma 90.00000
_space_group_name_H-M_alt      'P 1'


loop_
_space_group_symop_operation_xyz
  'x, y, z' 

loop_
_atom_site_label
_atom_site_fract_x
_atom_site_fract_y
_atom_site_fract_z
_atom_site_type_symbol
C       0.0015   0.0722   0.9053     C
C       0.0015   0.9278   0.4053     C
C       0.0036    0.115   0.9948     C
C       0.0036    0.885   0.4948     C
H       0.0191   0.0425    0.884     H
H       0.0191   0.9575    0.384     H
H       0.0233   0.1165    0.035     H
H       0.0233   0.8835    0.535     H
C       0.0256    0.335   0.9978     C
C       0.0256    0.665   0.4978     C
C        0.027   0.3521    0.618     C
C        0.027   0.6479    0.118     C
C       0.0325   0.3096   0.9094     C
C       0.0325   0.6904   0.4094     C
C        0.033   0.0727   0.9649     C
C        0.033   0.9273   0.4649     C
C       0.0331   0.3735   0.5327     C
C       0.0331   0.6265   0.0327     C
H       0.0428    0.331   0.0379     H
H       0.0428    0.669   0.5379     H
H       0.0441   0.3602   0.6578     H
H       0.0441   0.6398   0.1578     H
H       0.0535   0.2871    0.888     H
H       0.0535   0.7129    0.388     H
H       0.0557   0.3955   0.5124     H
H       0.0557   0.6045   0.0124     H
C       0.0562   0.1163   0.6222     C
C       0.0562   0.8837   0.1222     C
C       0.0563   0.1551   0.5372     C
C       0.0563   0.8449   0.0372     C
C       0.0597   0.3013    0.968     C
C       0.0597   0.6987    0.468     C
N       0.0604   0.3818   0.5895     N
N       0.0604   0.6182   0.0895     N
H       0.0752   0.1188   0.6624     H
H       0.0752   0.8812   0.1624     H
H       0.0762   0.1833   0.5171     H
H       0.0762   0.8167   0.0171     H
N       0.0868   0.1558   0.5945     N
N       0.0868   0.8442   0.0945     N
C       0.0975   0.0283   0.9989     C
C       0.0975   0.9717   0.4989     C
N       0.1228   0.0372   0.0571     N
N       0.1228   0.9628   0.5571     N
C       0.1234    0.256   0.0004     C
C       0.1234    0.744   0.5004     C
N       0.1252   0.0131   0.4711     N
N       0.1252   0.9869   0.9711     N
H       0.1326   0.4817   0.0062     H
H       0.1326   0.5183   0.5062     H
H       0.1331   0.3182   0.7347     H
H       0.1331   0.6818   0.2347     H
H        0.135   0.0618    0.159     H
H        0.135   0.9382    0.659     H
H       0.1434   0.0889   0.3944     H
H       0.1434   0.9111   0.8944     H
N       0.1476     0.21   0.9706     N
N       0.1476     0.79   0.4706     N
H       0.1499   0.4772   0.2382     H
H       0.1499   0.5228   0.7382     H
H       0.1524   0.2943   0.5009     H
H       0.1524   0.7057   0.0009     H
N       0.1525   0.2663   0.0575     N
N       0.1525   0.7337   0.5575     N
Ag     0.15575  0.45668  0.63311    Ag
Ag     0.15575  0.54332  0.13311    Ag
H       0.1617   0.1316    0.892     H
H       0.1617   0.8684    0.392     H
C       0.1723   0.2905   0.7574     C
C       0.1723   0.7095   0.2574     C
C       0.1748    0.459   0.0266     C
C       0.1748    0.541   0.5266     C
H       0.1752   0.3308   0.8337     H
H       0.1752   0.6692   0.3337     H
H       0.1753   0.3156   0.1549     H
H       0.1753   0.6844   0.6549     H
Ag      0.1783  0.24386  0.63357    Ag
Ag      0.1783  0.75614  0.13357    Ag
C        0.179    0.044   0.1794     C
C        0.179    0.956   0.6794     C
C       0.1799    0.002   0.5857     C
C       0.1799    0.998   0.0857     C
H       0.1805   0.4123   0.9561     H
H       0.1805   0.5877   0.4561     H
C       0.1814   0.0522    0.505     C
C       0.1814   0.9478    0.005     C
C       0.1856   0.1106   0.4167     C
C       0.1856   0.8894   0.9167     C
H       0.1881   0.0785   0.2574     H
H       0.1881   0.9215   0.7574     H
C       0.1935   0.3192   0.5221     C
C       0.1935   0.6808   0.0221     C
C       0.1938   0.4949   0.2592     C
C       0.1938   0.5051   0.7592     C
H       0.1978   0.4614   0.3368     H
H       0.1978   0.5386   0.8368     H
C        0.198   0.3002   0.8172     C
C        0.198   0.6998   0.3172     C
N       0.1992   0.2455   0.7308     N
N       0.1992   0.7545   0.2308     N
H       0.2004   0.1575   0.3504     H
H       0.2004   0.8425   0.8504     H
C       0.2025   0.4164   0.9962     C
C       0.2025   0.5836   0.4962     C
H       0.2031   0.3646   0.4517     H
H       0.2031   0.6354   0.9517     H
C       0.2038   0.1095   0.9138     C
C       0.2038   0.8905   0.4138     C
N       0.2045   0.4698   0.0834     N
N       0.2045   0.5302   0.5834     N
C       0.2046   0.1722   0.0031     C
C       0.2046   0.8278   0.5031     C
C       0.2096    0.226   0.0858     C
C       0.2096    0.774   0.5858     C
N       0.2109   0.0498   0.5628     N
N       0.2109   0.9502   0.0628     N
C       0.2111   0.0539   0.2384     C
C       0.2111   0.9461   0.7384     C
C        0.212   0.0076   0.1504     C
C        0.212   0.9924   0.6504     C
C       0.2145   0.2871   0.1765     C
C       0.2145   0.7129   0.6765     C
C       0.2146    0.101   0.4761     C
C       0.2146    0.899   0.9761     C
H       0.2148   0.0588   0.8473     H
H       0.2148   0.9412   0.3473     H
C       0.2198   0.1529   0.3905     C
C       0.2198   0.8471   0.8905     C
N       0.2207   0.3129   0.5793     N
N       0.2207   0.6871   0.0793     N
C       0.2223    0.484   0.3184     C
C       0.2223    0.516   0.8184     C
C       0.2236   0.3615   0.4919     C
C       0.2236   0.6385   0.9919     C
N       0.2247    0.471   0.7301     N
N       0.2247    0.529   0.2301     N
H       0.2268    0.329   0.2531     H
H       0.2268    0.671   0.7531     H
C       0.2352   0.1209    0.973     C
C       0.2352   0.8791    0.473     C
C       0.2358   0.0649   0.8872     C
C       0.2358   0.9351   0.3872     C
N       0.2377   0.1771    0.061     N
N       0.2377   0.8229    0.561     N
C       0.2427   0.2363   0.1492     C
C       0.2427   0.7637   0.6492     C
C       0.2456   0.2942   0.2355     C
C       0.2456   0.7058   0.7355     C
C       0.2544   0.2058   0.7645     C
C       0.2544   0.7942   0.2645     C
C       0.2573   0.2637   0.8508     C
C       0.2573   0.7363   0.3508     C
N       0.2623   0.3229    0.939     N
N       0.2623   0.6771    0.439     N
C       0.2642   0.4351   0.1128     C
C       0.2642   0.5649   0.6128     C
C       0.2648   0.3791    0.027     C
C       0.2648   0.6209    0.527     C
H       0.2732    0.171   0.7469     H
H       0.2732    0.829   0.2469     H
N       0.2753    0.029   0.2699     N
N       0.2753    0.971   0.7699     N
C       0.2764   0.1385   0.5081     C
C       0.2764   0.8615   0.0081     C
C       0.2777    0.016   0.6816     C
C       0.2777    0.984   0.1816     C
N       0.2793   0.1871   0.4207     N
N       0.2793   0.8129   0.9207     N
C       0.2802   0.3471   0.6095     C
C       0.2802   0.6529   0.1095     C
H       0.2852   0.4412   0.1527     H
H       0.2852   0.5588   0.6527     H
C       0.2854    0.399   0.5239     C
C       0.2854    0.601   0.0239     C
C       0.2855   0.2129   0.8235     C
C       0.2855   0.7871   0.3235     C
C        0.288   0.4924   0.8496     C
C        0.288   0.5076   0.3496     C
C       0.2889   0.4461   0.7616     C
C       0.2889   0.5539   0.2616     C
N       0.2891   0.4502   0.4372     N
N       0.2891   0.5498   0.9372     N
C       0.2904    0.274   0.9142     C
C       0.2904    0.726   0.4142     C
C       0.2954   0.3278   0.9969     C
C       0.2954   0.6722   0.4969     C
N       0.2955   0.0302   0.9166     N
N       0.2955   0.9698   0.4166     N
C       0.2962   0.3905   0.0862     C
C       0.2962   0.6095   0.5862     C
H       0.2969   0.1354   0.5483     H
H       0.2969   0.8646   0.0483     H
C       0.2975   0.0836   0.0038     C
C       0.2975   0.9164   0.5038     C
H       0.2996   0.3425   0.6496     H
H       0.2996   0.6575   0.1496     H
N       0.3008   0.2545   0.2692     N
N       0.3008   0.7455   0.7692     N
C        0.302   0.1998   0.1828     C
C        0.302   0.8002   0.6828     C
H       0.3022   0.0386   0.6632     H
H       0.3022   0.9614   0.1632     H
C       0.3062   0.0051   0.7408     C
C       0.3062   0.9949   0.2408     C
C       0.3065   0.1808   0.4779     C
C       0.3065   0.8192   0.9779     C
H       0.3119   0.4215   0.7426     H
H       0.3119   0.5785   0.2426     H
C       0.3144   0.3894   0.5833     C
C       0.3144   0.6106   0.0833     C
C       0.3186   0.4478    0.495     C
C       0.3186   0.5522    0.995     C
H       0.3195   0.0877   0.0439     H
H       0.3195   0.9123   0.5439     H
C       0.3201    0.498   0.4143     C
C       0.3201    0.502   0.9143     C
C        0.321    0.456   0.8206     C
C        0.321    0.544   0.3206     C
Ag      0.3217  0.25614  0.36643    Ag
Ag      0.3217  0.74386  0.86643    Ag
H       0.3247   0.1844   0.8451     H
H       0.3247   0.8156   0.3451     H
H       0.3248   0.1692   0.1663     H
H       0.3248   0.8308   0.6663     H
C       0.3252    0.041   0.9734     C
C       0.3252    0.959   0.4734     C
C       0.3277   0.2095   0.2426     C
C       0.3277   0.7905   0.7426     C
H       0.3383   0.3684    0.108     H
H       0.3383   0.6316    0.608     H
Ag     0.34425  0.04332  0.36689    Ag
Ag     0.34425  0.95668  0.86689    Ag
N       0.3475   0.2337   0.9425     N
N       0.3475   0.7663   0.4425     N
H       0.3476   0.2057   0.4991     H
H       0.3476   0.7943   0.9991     H
H       0.3501   0.0228   0.7618     H
H       0.3501   0.9772   0.2618     H
N       0.3524     0.29   0.0294     N
N       0.3524     0.71   0.5294     N
H       0.3566   0.4111   0.6056     H
H       0.3566   0.5889   0.1056     H
H        0.365   0.4382    0.841     H
H        0.365   0.5618    0.341     H
H       0.3669   0.1818   0.2653     H
H       0.3669   0.8182   0.7653     H
H       0.3674   0.0183   0.9938     H
H       0.3674   0.9817   0.4938     H
N       0.3748   0.4869   0.5289     N
N       0.3748   0.5131   0.0289     N
C       0.3766    0.244   0.9996     C
C       0.3766    0.756   0.4996     C
N       0.3772   0.4628   0.9429     N
N       0.3772   0.5372   0.4429     N
C       0.4025   0.4717   0.0011     C
C       0.4025   0.5283   0.5011     C
N       0.4132   0.3442   0.4055     N
N       0.4132   0.6558   0.9055     N
H       0.4238   0.3167   0.4829     H
H       0.4238   0.6833   0.9829     H
H       0.4248   0.3812   0.3376     H
H       0.4248   0.6188   0.8376     H
N       0.4396   0.1182   0.4105     N
N       0.4396   0.8818   0.9105     N
C       0.4403   0.1987    0.032     C
C       0.4403   0.8013    0.532     C
C       0.4437   0.3449   0.4628     C
C       0.4437   0.6551   0.9628     C
C       0.4438   0.3837   0.3778     C
C       0.4438   0.6163   0.8778     C
H       0.4443   0.1045   0.4876     H
H       0.4443   0.8955   0.9876     H
H       0.4465   0.2129    0.112     H
H       0.4465   0.7871    0.612     H
H       0.4559   0.1398   0.3422     H
H       0.4559   0.8602   0.8422     H
H       0.4572    0.169   0.9621     H
H       0.4572    0.831   0.4621     H
C       0.4669   0.1265   0.4673     C
C       0.4669   0.8735   0.9673     C
C        0.467   0.4273   0.0351     C
C        0.467   0.5727   0.5351     C
C       0.4675   0.1904   0.0906     C
C       0.4675   0.8096   0.5906     C
C        0.473   0.1479    0.382     C
C        0.473   0.8521    0.882     C
C       0.4744    0.165   0.0022     C
C       0.4744    0.835   0.5022     C
H       0.4767   0.3835    0.965     H
H       0.4767   0.6165    0.465     H
H       0.4809   0.4575    0.116     H
H       0.4809   0.5425    0.616     H
C       0.4964    0.385   0.0052     C
C       0.4964    0.615   0.5052     C
C       0.4985   0.4278   0.0947     C
C       0.4985   0.5722   0.5947     C
C       0.5015   0.4278   0.4053     C
C       0.5015   0.5722   0.9053     C
C       0.5036    0.385   0.4948     C
C       0.5036    0.615   0.9948     C
H       0.5191   0.4575    0.384     H
H       0.5191   0.5425    0.884     H
H       0.5233   0.3835    0.535     H
H       0.5233   0.6165    0.035     H
C       0.5256    0.165   0.4978     C
C       0.5256    0.835   0.9978     C
C        0.527   0.1479    0.118     C
C        0.527   0.8521    0.618     C
C       0.5325   0.1904   0.4094     C
C       0.5325   0.8096   0.9094     C
C        0.533   0.4273   0.4649     C
C        0.533   0.5727   0.9649     C
C       0.5331   0.1265   0.0327     C
C       0.5331   0.8735   0.5327     C
H       0.5428    0.169   0.5379     H
H       0.5428    0.831   0.0379     H
H       0.5441   0.1398   0.1578     H
H       0.5441   0.8602   0.6578     H
H       0.5535   0.2129    0.388     H
H       0.5535   0.7871    0.888     H
H       0.5557   0.1045   0.0124     H
H       0.5557   0.8955   0.5124     H
C       0.5562   0.3837   0.1222     C
C       0.5562   0.6163   0.6222     C
C       0.5563   0.3449   0.0372     C
C       0.5563   0.6551   0.5372     C
C       0.5597   0.1987    0.468     C
C       0.5597   0.8013    0.968     C
N       0.5604   0.1182   0.0895     N
N       0.5604   0.8818   0.5895     N
H       0.5752   0.3812   0.1624     H
H       0.5752   0.6188   0.6624     H
H       0.5762   0.3167   0.0171     H
H       0.5762   0.6833   0.5171     H
N       0.5868   0.3442   0.0945     N
N       0.5868   0.6558   0.5945     N
C       0.5975   0.4717   0.4989     C
C       0.5975   0.5283   0.9989     C
N       0.6228   0.4628   0.5571     N
N       0.6228   0.5372   0.0571     N
C       0.6234    0.244   0.5004     C
C       0.6234    0.756   0.0004     C
N       0.6252   0.4869   0.9711     N
N       0.6252   0.5131   0.4711     N
H       0.6326   0.0183   0.5062     H
H       0.6326   0.9817   0.0062     H
H       0.6331   0.1818   0.2347     H
H       0.6331   0.8182   0.7347     H
H        0.635   0.4382    0.659     H
H        0.635   0.5618    0.159     H
H       0.6434   0.4111   0.8944     H
H       0.6434   0.5889   0.3944     H
N       0.6476     0.29   0.4706     N
N       0.6476     0.71   0.9706     N
H       0.6499   0.0228   0.7382     H
H       0.6499   0.9772   0.2382     H
H       0.6524   0.2057   0.0009     H
H       0.6524   0.7943   0.5009     H
N       0.6525   0.2337   0.5575     N
N       0.6525   0.7663   0.0575     N
Ag     0.65575  0.04332  0.13311    Ag
Ag     0.65575  0.95668  0.63311    Ag
H       0.6617   0.3684    0.392     H
H       0.6617   0.6316    0.892     H
C       0.6723   0.2095   0.2574     C
C       0.6723   0.7905   0.7574     C
C       0.6748    0.041   0.5266     C
C       0.6748    0.959   0.0266     C
H       0.6752   0.1692   0.3337     H
H       0.6752   0.8308   0.8337     H
H       0.6753   0.1844   0.6549     H
H       0.6753   0.8156   0.1549     H
Ag      0.6783  0.25614  0.13357    Ag
Ag      0.6783  0.74386  0.63357    Ag
C        0.679    0.456   0.6794     C
C        0.679    0.544   0.1794     C
C       0.6799    0.498   0.0857     C
C       0.6799    0.502   0.5857     C
H       0.6805   0.0877   0.4561     H
H       0.6805   0.9123   0.9561     H
C       0.6814   0.4478    0.005     C
C       0.6814   0.5522    0.505     C
C       0.6856   0.3894   0.9167     C
C       0.6856   0.6106   0.4167     C
H       0.6881   0.4215   0.7574     H
H       0.6881   0.5785   0.2574     H
C       0.6935   0.1808   0.0221     C
C       0.6935   0.8192   0.5221     C
C       0.6938   0.0051   0.7592     C
C       0.6938   0.9949   0.2592     C
H       0.6978   0.0386   0.8368     H
H       0.6978   0.9614   0.3368     H
C        0.698   0.1998   0.3172     C
C        0.698   0.8002   0.8172     C
N       0.6992   0.2545   0.2308     N
N       0.6992   0.7455   0.7308     N
H       0.7004   0.3425   0.8504     H
H       0.7004   0.6575   0.3504     H
C       0.7025   0.0836   0.4962     C
C       0.7025   0.9164   0.9962     C
H       0.7031   0.1354   0.9517     H
H       0.7031   0.8646   0.4517     H
C       0.7038   0.3905   0.4138     C
C       0.7038   0.6095   0.9138     C
N       0.7045   0.0302   0.5834     N
N       0.7045   0.9698   0.0834     N
C       0.7046   0.3278   0.5031     C
C       0.7046   0.6722   0.0031     C
C       0.7096    0.274   0.5858     C
C       0.7096    0.726   0.0858     C
N       0.7109   0.4502   0.0628     N
N       0.7109   0.5498   0.5628     N
C       0.7111   0.4461   0.7384     C
C       0.7111   0.5539   0.2384     C
C        0.712   0.4924   0.6504     C
C        0.712   0.5076   0.1504     C
C       0.7145   0.2129   0.6765     C
C       0.7145   0.7871   0.1765     C
C       0.7146    0.399   0.9761     C
C       0.7146    0.601   0.4761     C
H       0.7148   0.4412   0.3473     H
H       0.7148   0.5588   0.8473     H
C       0.7198   0.3471   0.8905     C
C       0.7198   0.6529   0.3905     C
N       0.7207   0.1871   0.0793     N
N       0.7207   0.8129   0.5793     N
C       0.7223    0.016   0.8184     C
C       0.7223    0.984   0.3184     C
C       0.7236   0.1385   0.9919     C
C       0.7236   0.8615   0.4919     C
N       0.7247    0.029   0.2301     N
N       0.7247    0.971   0.7301     N
H       0.7268    0.171   0.7531     H
H       0.7268    0.829   0.2531     H
C       0.7352   0.3791    0.473     C
C       0.7352   0.6209    0.973     C
C       0.7358   0.4351   0.3872     C
C       0.7358   0.5649   0.8872     C
N       0.7377   0.3229    0.561     N
N       0.7377   0.6771    0.061     N
C       0.7427   0.2637   0.6492     C
C       0.7427   0.7363   0.1492     C
C       0.7456   0.2058   0.7355     C
C       0.7456   0.7942   0.2355     C
C       0.7544   0.2942   0.2645     C
C       0.7544   0.7058   0.7645     C
C       0.7573   0.2363   0.3508     C
C       0.7573   0.7637   0.8508     C
N       0.7623   0.1771    0.439     N
N       0.7623   0.8229    0.939     N
C       0.7642   0.0649   0.6128     C
C       0.7642   0.9351   0.1128     C
C       0.7648   0.1209    0.527     C
C       0.7648   0.8791    0.027     C
H       0.7732    0.329   0.2469     H
H       0.7732    0.671   0.7469     H
N       0.7753    0.471   0.7699     N
N       0.7753    0.529   0.2699     N
C       0.7764   0.3615   0.0081     C
C       0.7764   0.6385   0.5081     C
C       0.7777    0.484   0.1816     C
C       0.7777    0.516   0.6816     C
N       0.7793   0.3129   0.9207     N
N       0.7793   0.6871   0.4207     N
C       0.7802   0.1529   0.1095     C
C       0.7802   0.8471   0.6095     C
H       0.7852   0.0588   0.6527     H
H       0.7852   0.9412   0.1527     H
C       0.7854    0.101   0.0239     C
C       0.7854    0.899   0.5239     C
C       0.7855   0.2871   0.3235     C
C       0.7855   0.7129   0.8235     C
C        0.788   0.0076   0.3496     C
C        0.788   0.9924   0.8496     C
C       0.7889   0.0539   0.2616     C
C       0.7889   0.9461   0.7616     C
N       0.7891   0.0498   0.9372     N
N       0.7891   0.9502   0.4372     N
C       0.7904    0.226   0.4142     C
C       0.7904    0.774   0.9142     C
C       0.7954   0.1722   0.4969     C
C       0.7954   0.8278   0.9969     C
N       0.7955   0.4698   0.4166     N
N       0.7955   0.5302   0.9166     N
C       0.7962   0.1095   0.5862     C
C       0.7962   0.8905   0.0862     C
H       0.7969   0.3646   0.0483     H
H       0.7969   0.6354   0.5483     H
C       0.7975   0.4164   0.5038     C
C       0.7975   0.5836   0.0038     C
H       0.7996   0.1575   0.1496     H
H       0.7996   0.8425   0.6496     H
N       0.8008   0.2455   0.7692     N
N       0.8008   0.7545   0.2692     N
C        0.802   0.3002   0.6828     C
C        0.802   0.6998   0.1828     C
H       0.8022   0.4614   0.1632     H
H       0.8022   0.5386   0.6632     H
C       0.8062   0.4949   0.2408     C
C       0.8062   0.5051   0.7408     C
C       0.8065   0.3192   0.9779     C
C       0.8065   0.6808   0.4779     C
H       0.8119   0.0785   0.2426     H
H       0.8119   0.9215   0.7426     H
C       0.8144   0.1106   0.0833     C
C       0.8144   0.8894   0.5833     C
C       0.8186   0.0522    0.995     C
C       0.8186   0.9478    0.495     C
H       0.8195   0.4123   0.5439     H
H       0.8195   0.5877   0.0439     H
C       0.8201    0.002   0.9143     C
C       0.8201    0.998   0.4143     C
C        0.821    0.044   0.3206     C
C        0.821    0.956   0.8206     C
Ag      0.8217  0.24386  0.86643    Ag
Ag      0.8217  0.75614  0.36643    Ag
H       0.8247   0.3156   0.3451     H
H       0.8247   0.6844   0.8451     H
H       0.8248   0.3308   0.6663     H
H       0.8248   0.6692   0.1663     H
C       0.8252    0.459   0.4734     C
C       0.8252    0.541   0.9734     C
C       0.8277   0.2905   0.7426     C
C       0.8277   0.7095   0.2426     C
H       0.8383   0.1316    0.608     H
H       0.8383   0.8684    0.108     H
Ag     0.84425  0.45668  0.86689    Ag
Ag     0.84425  0.54332  0.36689    Ag
N       0.8475   0.2663   0.4425     N
N       0.8475   0.7337   0.9425     N
H       0.8476   0.2943   0.9991     H
H       0.8476   0.7057   0.4991     H
H       0.8501   0.4772   0.2618     H
H       0.8501   0.5228   0.7618     H
N       0.8524     0.21   0.5294     N
N       0.8524     0.79   0.0294     N
H       0.8566   0.0889   0.1056     H
H       0.8566   0.9111   0.6056     H
H        0.865   0.0618    0.341     H
H        0.865   0.9382    0.841     H
H       0.8669   0.3182   0.7653     H
H       0.8669   0.6818   0.2653     H
H       0.8674   0.4817   0.4938     H
H       0.8674   0.5183   0.9938     H
N       0.8748   0.0131   0.0289     N
N       0.8748   0.9869   0.5289     N
C       0.8766    0.256   0.4996     C
C       0.8766    0.744   0.9996     C
N       0.8772   0.0372   0.4429     N
N       0.8772   0.9628   0.9429     N
C       0.9025   0.0283   0.5011     C
C       0.9025   0.9717   0.0011     C
N       0.9132   0.1558   0.9055     N
N       0.9132   0.8442   0.4055     N
H       0.9238   0.1833   0.9829     H
H       0.9238   0.8167   0.4829     H
H       0.9248   0.1188   0.8376     H
H       0.9248   0.8812   0.3376     H
N       0.9396   0.3818   0.9105     N
N       0.9396   0.6182   0.4105     N
C       0.9403   0.3013    0.532     C
C       0.9403   0.6987    0.032     C
C       0.9437   0.1551   0.9628     C
C       0.9437   0.8449   0.4628     C
C       0.9438   0.1163   0.8778     C
C       0.9438   0.8837   0.3778     C
H       0.9443   0.3955   0.9876     H
H       0.9443   0.6045   0.4876     H
H       0.9465   0.2871    0.612     H
H       0.9465   0.7129    0.112     H
H       0.9559   0.3602   0.8422     H
H       0.9559   0.6398   0.3422     H
H       0.9572    0.331   0.4621     H
H       0.9572    0.669   0.9621     H
C       0.9669   0.3735   0.9673     C
C       0.9669   0.6265   0.4673     C
C        0.967   0.0727   0.5351     C
C        0.967   0.9273   0.0351     C
C       0.9675   0.3096   0.5906     C
C       0.9675   0.6904   0.0906     C
C        0.973   0.3521    0.882     C
C        0.973   0.6479    0.382     C
C       0.9744    0.335   0.5022     C
C       0.9744    0.665   0.0022     C
H       0.9767   0.1165    0.465     H
H       0.9767   0.8835    0.965     H
H       0.9809   0.0425    0.616     H
H       0.9809   0.9575    0.116     H
C       0.9964    0.115   0.5052     C
C       0.9964    0.885   0.0052     C
C       0.9985   0.0722   0.5947     C
C       0.9985   0.9278   0.0947     C
