data_I
_chemical_name_common  '/home/zhangsd/repos/MofS-CGCNN/ML/data/SSD/clean_cifs/QOFBIY02_clean'
_cell_length_a 22.05320
_cell_length_b 16.38280
_cell_length_c 25.68090
_cell_angle_alpha 90.00000
_cell_angle_beta  115.39100
_cell_angle_gamma 90.00000
_space_group_name_H-M_alt      'P 1'


loop_
_space_group_symop_operation_xyz
  'x, y, z' 

loop_
_atom_site_label
_atom_site_fract_x
_atom_site_fract_y
_atom_site_fract_z
_atom_site_type_symbol
C      0.00208   0.4247  0.90778     C
C      0.00208   0.5753  0.40778     C
C      0.00246   0.3828  0.99685     C
C      0.00246   0.6172  0.49685     C
H       0.0208   0.4532   0.8869     H
H       0.0208   0.5468   0.3869     H
H       0.0218    0.382   0.0369     H
H       0.0218    0.618   0.5369     H
C      0.02662   0.1641  0.00049     C
C      0.02662   0.8359  0.50049     C
C      0.02673   0.1455  0.61553     C
C      0.02673   0.8545  0.11553     C
C      0.03272   0.4248  0.96747     C
C      0.03272   0.5752  0.46747     C
C       0.0329   0.1235   0.5303     C
C       0.0329   0.8765   0.0303     C
C      0.03329   0.1884  0.91154     C
C      0.03329   0.8116  0.41154     C
H       0.0439    0.169   0.0403     H
H       0.0439    0.831   0.5403     H
H       0.0441    0.138   0.6552     H
H       0.0441    0.862   0.1552     H
H       0.0547   0.2102   0.8904     H
H       0.0547   0.7898   0.3904     H
H       0.0551   0.1009     0.51     H
H       0.0551   0.8991     0.01     H
C      0.05664   0.3424   0.5343     C
C      0.05664   0.6576   0.0343     C
C      0.05701   0.3813  0.62021     C
C      0.05701   0.6187  0.12021     C
C      0.06003   0.1975  0.97056     C
C      0.06003   0.8025  0.47056     C
N      0.06076   0.1146  0.58794     N
N      0.06076   0.8854  0.08794     N
H       0.0768   0.3149   0.5142     H
H       0.0768   0.6851   0.0142     H
H       0.0769   0.3803   0.6603     H
H       0.0769   0.6197   0.1603     H
N      0.08706   0.3404  0.59224     N
N      0.08706   0.6596  0.09224     N
C      0.09731   0.4691   0.0016     C
C      0.09731   0.5309   0.5016     C
N      0.12185   0.4624  0.05918     N
N      0.12185   0.5376  0.55918     N
C      0.12426   0.2427  0.00269     C
C      0.12426   0.7573  0.50269     C
N      0.12603   0.4901  0.47341     N
N      0.12603   0.5099  0.97341     N
H       0.1324   0.0164    0.005     H
H       0.1324   0.9836    0.505     H
H       0.1341   0.4395    0.162     H
H       0.1341   0.5605    0.662     H
H       0.1345   0.1736   0.7326     H
H       0.1345   0.8264   0.2326     H
H       0.1444   0.4153   0.3965     H
H       0.1444   0.5847   0.8965     H
N      0.14818   0.2892  0.97294     N
N      0.14818   0.7108  0.47294     N
H       0.1497   0.0237   0.2362     H
H       0.1497   0.9763   0.7362     H
H       0.1507   0.2026   0.4992     H
H       0.1507   0.7974   0.9992     H
N      0.15333   0.2317  0.05991     N
N      0.15333   0.7683  0.55991     N
Ag     0.15611  0.04206  0.63204    Ag
Ag     0.15611  0.95794  0.13204    Ag
H       0.1626   0.3661   0.8942     H
H       0.1626   0.6339   0.3942     H
C        0.173   0.2028   0.7552     C
C        0.173   0.7972   0.2552     C
C      0.17414   0.0407  0.02538     C
C      0.17414   0.9593  0.52538     C
Ag     0.17699  0.25006  0.63245    Ag
Ag     0.17699  0.74994  0.13245    Ag
H       0.1773   0.1618   0.8312     H
H       0.1773   0.8382   0.3312     H
H       0.1778   0.1807   0.1568     H
H       0.1778   0.8193   0.6568     H
C       0.1782   0.4572  0.18188     C
C       0.1782   0.5428  0.68188     C
H       0.1791   0.0884   0.9546     H
H       0.1791   0.9116   0.4546     H
C      0.17955   0.4976   0.5887     C
C      0.17955   0.5024   0.0887     C
C       0.1821   0.4491   0.5072     C
C       0.1821   0.5509   0.0072     C
C      0.18608    0.392  0.41861     C
C      0.18608    0.608  0.91861     C
H       0.1878   0.4245   0.2599     H
H       0.1878   0.5755   0.7599     H
C      0.19221   0.1784  0.52025     C
C      0.19221   0.8216  0.02025     C
C       0.1939   0.0068  0.25704     C
C       0.1939   0.9932  0.75704     C
C      0.19854   0.1946  0.81452     C
C      0.19854   0.8054  0.31452     C
H       0.1986   0.0425   0.3342     H
H       0.1986   0.9575   0.8342     H
H       0.1993   0.3442    0.353     H
H       0.1993   0.6558    0.853     H
N      0.20029   0.2501   0.7285     N
N      0.20029   0.7499   0.2285     N
C      0.20145   0.0842  0.99449     C
C      0.20145   0.9158  0.49449     C
H       0.2015   0.1339   0.4505     H
H       0.2015   0.8661   0.9505     H
N      0.20369  0.03108  0.08269     N
N      0.20369  0.96892  0.58269     N
C      0.20463   0.3889  0.91562     C
C      0.20463   0.6111  0.41562     C
C        0.206   0.3275  0.00584     C
C        0.206   0.6725  0.50584     C
C      0.21001   0.2735  0.08794     C
C      0.21001   0.7265  0.58794     C
C      0.21077   0.4484  0.24078     C
C      0.21077   0.5516  0.74078     C
N      0.21081   0.4509  0.56505     N
N      0.21081   0.5491  0.06505     N
C       0.2112   0.4925  0.15223     C
C       0.2112   0.5075  0.65223     C
H        0.214   0.4391    0.849     H
H        0.214   0.5609    0.349     H
C      0.21544   0.3997  0.47815     C
C      0.21544   0.6003  0.97815     C
C      0.21564   0.2116  0.17849     C
C      0.21564   0.7884  0.67849     C
C      0.21965   0.3494  0.39287     C
C      0.21965   0.6506  0.89287     C
N      0.21999   0.1853  0.57805     N
N      0.21999   0.8147  0.07805     N
C      0.22233   0.1371  0.49048     C
C      0.22233   0.8629  0.99048     C
C      0.22263   0.0183  0.31611     C
C      0.22263   0.9817  0.81611     C
N      0.22517   0.0269  0.72799     N
N      0.22517   0.9731  0.22799     N
H       0.2266   0.1714   0.2554     H
H       0.2266   0.8286   0.7554     H
C      0.23574   0.4333  0.88882     C
C      0.23574   0.5667  0.38882     C
C      0.23634   0.3781  0.97507     C
C      0.23634   0.6219  0.47507     C
N      0.23866  0.32283  0.06336     N
N      0.23866  0.67717  0.56336     N
C      0.24322   0.2632  0.15183     C
C      0.24322   0.7368  0.65183     C
C       0.2452   0.2065  0.23782     C
C       0.2452   0.7935  0.73782     C
C       0.2548   0.2935  0.76218     C
C       0.2548   0.7065  0.26218     C
C      0.25678   0.2368  0.84817     C
C      0.25678   0.7632  0.34817     C
N      0.26134  0.17717  0.93664     N
N      0.26134  0.82283  0.43664     N
C      0.26366   0.1219  0.02493     C
C      0.26366   0.8781  0.52493     C
C      0.26426   0.0667  0.11118     C
C      0.26426   0.9333  0.61118     C
H       0.2734   0.3286   0.7446     H
H       0.2734   0.6714   0.2446     H
N      0.27483   0.4731  0.27201     N
N      0.27483   0.5269  0.77201     N
C      0.27737   0.4817  0.68389     C
C      0.27737   0.5183  0.18389     C
C      0.27767   0.3629  0.50952     C
C      0.27767   0.6371  0.00952     C
N      0.28001   0.3147  0.42195     N
N      0.28001   0.6853  0.92195     N
C      0.28035   0.1506  0.60713     C
C      0.28035   0.8494  0.10713     C
C      0.28436   0.2884  0.82151     C
C      0.28436   0.7116  0.32151     C
C      0.28456   0.1003  0.52185     C
C      0.28456   0.8997  0.02185     C
H        0.286   0.0609    0.151     H
H        0.286   0.9391    0.651     H
C       0.2888   0.0075  0.84777     C
C       0.2888   0.9925  0.34777     C
N      0.28919   0.0491  0.43495     N
N      0.28919   0.9509  0.93495     N
C      0.28923   0.0516  0.75922     C
C      0.28923   0.9484  0.25922     C
C      0.28999   0.2265  0.91206     C
C      0.28999   0.7735  0.41206     C
C        0.294   0.1725  0.99416     C
C        0.294   0.8275  0.49416     C
C      0.29537   0.1111  0.08438     C
C      0.29537   0.8889  0.58438     C
N      0.29631  0.46892  0.91731     N
N      0.29631  0.53108  0.41731     N
H       0.2985   0.3661   0.5495     H
H       0.2985   0.6339   0.0495     H
C      0.29855   0.4158  0.00551     C
C      0.29855   0.5842  0.50551     C
N      0.29971   0.2499   0.2715     N
N      0.29971   0.7501   0.7715     N
H       0.3007   0.1558    0.647     H
H       0.3007   0.8442    0.147     H
H       0.3014   0.4575   0.6658     H
H       0.3014   0.5425   0.1658     H
C      0.30146   0.3054  0.18548     C
C      0.30146   0.6946  0.68548     C
C       0.3061   0.4932  0.74296     C
C       0.3061   0.5068  0.24296     C
C      0.30779   0.3216  0.47975     C
C      0.30779   0.6784  0.97975     C
H       0.3122   0.0755   0.7401     H
H       0.3122   0.9245   0.2401     H
C      0.31392    0.108  0.58139     C
C      0.31392    0.892  0.08139     C
C       0.3179   0.0509   0.4928     C
C       0.3179   0.9491   0.9928     C
C      0.32045   0.0024   0.4113     C
C      0.32045   0.9976   0.9113     C
H       0.3209   0.4116   0.0454     H
H       0.3209   0.5884   0.5454     H
C       0.3218   0.0428  0.81812     C
C       0.3218   0.9572  0.31812     C
H       0.3222   0.3193   0.8432     H
H       0.3222   0.6807   0.3432     H
H       0.3227   0.3382   0.1688     H
H       0.3227   0.6618   0.6688     H
Ag     0.32301  0.24994  0.36755    Ag
Ag     0.32301  0.75006  0.86755    Ag
C      0.32586   0.4593  0.97462     C
C      0.32586   0.5407  0.47462     C
C        0.327   0.2972   0.2448     C
C        0.327   0.7028   0.7448     C
H       0.3374   0.1339   0.1058     H
H       0.3374   0.8661   0.6058     H
Ag     0.34389  0.45794  0.36796    Ag
Ag     0.34389  0.54206  0.86796    Ag
N      0.34667   0.2683  0.94009     N
N      0.34667   0.7317  0.44009     N
H       0.3493   0.2974   0.5008     H
H       0.3493   0.7026   0.0008     H
H       0.3503   0.4763   0.7638     H
H       0.3503   0.5237   0.2638     H
N      0.35182   0.2108  0.02706     N
N      0.35182   0.7892  0.52706     N
H       0.3556   0.0847   0.6035     H
H       0.3556   0.9153   0.1035     H
H       0.3655   0.3264   0.2674     H
H       0.3655   0.6736   0.7674     H
H       0.3659   0.0605    0.838     H
H       0.3659   0.9395    0.338     H
H       0.3676   0.4836    0.995     H
H       0.3676   0.5164    0.495     H
N      0.37397   0.0099  0.52659     N
N      0.37397   0.9901  0.02659     N
C      0.37574   0.2573  0.99731     C
C      0.37574   0.7427  0.49731     C
N      0.37815   0.0376  0.94082     N
N      0.37815   0.9624  0.44082     N
C      0.40269   0.0309   0.9984     C
C      0.40269   0.9691   0.4984     C
N      0.41294   0.1596  0.40776     N
N      0.41294   0.8404  0.90776     N
H       0.4231   0.1197   0.3397     H
H       0.4231   0.8803   0.8397     H
H       0.4232   0.1851   0.4858     H
H       0.4232   0.8149   0.9858     H
N      0.43924   0.3854  0.41206     N
N      0.43924   0.6146  0.91206     N
C      0.43997   0.3025  0.02944     C
C      0.43997   0.6975  0.52944     C
C      0.44299   0.1187  0.37979     C
C      0.44299   0.8813  0.87979     C
C      0.44336   0.1576   0.4657     C
C      0.44336   0.8424   0.9657     C
H       0.4449   0.3991     0.49     H
H       0.4449   0.6009     0.99     H
H       0.4453   0.2898   0.1096     H
H       0.4453   0.7102   0.6096     H
H       0.4559    0.362   0.3448     H
H       0.4559    0.638   0.8448     H
H       0.4561    0.331   0.9597     H
H       0.4561    0.669   0.4597     H
C      0.46671   0.3116  0.08846     C
C      0.46671   0.6884  0.58846     C
C       0.4671   0.3765   0.4697     C
C       0.4671   0.6235   0.9697     C
C      0.46728   0.0752  0.03253     C
C      0.46728   0.9248  0.53253     C
C      0.47327   0.3545  0.38447     C
C      0.47327   0.6455  0.88447     C
C      0.47338   0.3359  0.99951     C
C      0.47338   0.6641  0.49951     C
H       0.4782    0.118   0.9631     H
H       0.4782    0.882   0.4631     H
H       0.4792   0.0468   0.1131     H
H       0.4792   0.9532   0.6131     H
C      0.49754   0.1172  0.00315     C
C      0.49754   0.8828  0.50315     C
C      0.49792   0.0753  0.09222     C
C      0.49792   0.9247  0.59222     C
C      0.50208   0.0753  0.40778     C
C      0.50208   0.9247  0.90778     C
C      0.50246   0.1172  0.49685     C
C      0.50246   0.8828  0.99685     C
H       0.5208   0.0468   0.3869     H
H       0.5208   0.9532   0.8869     H
H       0.5218    0.118   0.5369     H
H       0.5218    0.882   0.0369     H
C      0.52662   0.3359  0.50049     C
C      0.52662   0.6641  0.00049     C
C      0.52673   0.3545  0.11553     C
C      0.52673   0.6455  0.61553     C
C      0.53272   0.0752  0.46747     C
C      0.53272   0.9248  0.96747     C
C       0.5329   0.3765   0.0303     C
C       0.5329   0.6235   0.5303     C
C      0.53329   0.3116  0.41154     C
C      0.53329   0.6884  0.91154     C
H       0.5439    0.331   0.5403     H
H       0.5439    0.669   0.0403     H
H       0.5441    0.362   0.1552     H
H       0.5441    0.638   0.6552     H
H       0.5547   0.2898   0.3904     H
H       0.5547   0.7102   0.8904     H
H       0.5551   0.3991     0.01     H
H       0.5551   0.6009     0.51     H
C      0.55664   0.1576   0.0343     C
C      0.55664   0.8424   0.5343     C
C      0.55701   0.1187  0.12021     C
C      0.55701   0.8813  0.62021     C
C      0.56003   0.3025  0.47056     C
C      0.56003   0.6975  0.97056     C
N      0.56076   0.3854  0.08794     N
N      0.56076   0.6146  0.58794     N
H       0.5768   0.1851   0.0142     H
H       0.5768   0.8149   0.5142     H
H       0.5769   0.1197   0.1603     H
H       0.5769   0.8803   0.6603     H
N      0.58706   0.1596  0.09224     N
N      0.58706   0.8404  0.59224     N
C      0.59731   0.0309   0.5016     C
C      0.59731   0.9691   0.0016     C
N      0.62185   0.0376  0.55918     N
N      0.62185   0.9624  0.05918     N
C      0.62426   0.2573  0.50269     C
C      0.62426   0.7427  0.00269     C
N      0.62603   0.0099  0.97341     N
N      0.62603   0.9901  0.47341     N
H       0.6324   0.4836    0.505     H
H       0.6324   0.5164    0.005     H
H       0.6341   0.0605    0.662     H
H       0.6341   0.9395    0.162     H
H       0.6345   0.3264   0.2326     H
H       0.6345   0.6736   0.7326     H
H       0.6444   0.0847   0.8965     H
H       0.6444   0.9153   0.3965     H
N      0.64818   0.2108  0.47294     N
N      0.64818   0.7892  0.97294     N
H       0.6497   0.4763   0.7362     H
H       0.6497   0.5237   0.2362     H
H       0.6507   0.2974   0.9992     H
H       0.6507   0.7026   0.4992     H
N      0.65333   0.2683  0.55991     N
N      0.65333   0.7317  0.05991     N
Ag     0.65611  0.45794  0.13204    Ag
Ag     0.65611  0.54206  0.63204    Ag
H       0.6626   0.1339   0.3942     H
H       0.6626   0.8661   0.8942     H
C        0.673   0.2972   0.2552     C
C        0.673   0.7028   0.7552     C
C      0.67414   0.4593  0.52538     C
C      0.67414   0.5407  0.02538     C
Ag     0.67699  0.24994  0.13245    Ag
Ag     0.67699  0.75006  0.63245    Ag
H       0.6773   0.3382   0.3312     H
H       0.6773   0.6618   0.8312     H
H       0.6778   0.3193   0.6568     H
H       0.6778   0.6807   0.1568     H
C       0.6782   0.0428  0.68188     C
C       0.6782   0.9572  0.18188     C
H       0.6791   0.4116   0.4546     H
H       0.6791   0.5884   0.9546     H
C      0.67955   0.0024   0.0887     C
C      0.67955   0.9976   0.5887     C
C       0.6821   0.0509   0.0072     C
C       0.6821   0.9491   0.5072     C
C      0.68608    0.108  0.91861     C
C      0.68608    0.892  0.41861     C
H       0.6878   0.0755   0.7599     H
H       0.6878   0.9245   0.2599     H
C      0.69221   0.3216  0.02025     C
C      0.69221   0.6784  0.52025     C
C       0.6939   0.4932  0.75704     C
C       0.6939   0.5068  0.25704     C
C      0.69854   0.3054  0.31452     C
C      0.69854   0.6946  0.81452     C
H       0.6986   0.4575   0.8342     H
H       0.6986   0.5425   0.3342     H
H       0.6993   0.1558    0.853     H
H       0.6993   0.8442    0.353     H
N      0.70029   0.2499   0.2285     N
N      0.70029   0.7501   0.7285     N
C      0.70145   0.4158  0.49449     C
C      0.70145   0.5842  0.99449     C
H       0.7015   0.3661   0.9505     H
H       0.7015   0.6339   0.4505     H
N      0.70369  0.46892  0.58269     N
N      0.70369  0.53108  0.08269     N
C      0.70463   0.1111  0.41562     C
C      0.70463   0.8889  0.91562     C
C        0.706   0.1725  0.50584     C
C        0.706   0.8275  0.00584     C
C      0.71001   0.2265  0.58794     C
C      0.71001   0.7735  0.08794     C
C      0.71077   0.0516  0.74078     C
C      0.71077   0.9484  0.24078     C
N      0.71081   0.0491  0.06505     N
N      0.71081   0.9509  0.56505     N
C       0.7112   0.0075  0.65223     C
C       0.7112   0.9925  0.15223     C
H        0.714   0.0609    0.349     H
H        0.714   0.9391    0.849     H
C      0.71544   0.1003  0.97815     C
C      0.71544   0.8997  0.47815     C
C      0.71564   0.2884  0.67849     C
C      0.71564   0.7116  0.17849     C
C      0.71965   0.1506  0.89287     C
C      0.71965   0.8494  0.39287     C
N      0.71999   0.3147  0.07805     N
N      0.71999   0.6853  0.57805     N
C      0.72233   0.3629  0.99048     C
C      0.72233   0.6371  0.49048     C
C      0.72263   0.4817  0.81611     C
C      0.72263   0.5183  0.31611     C
N      0.72517   0.4731  0.22799     N
N      0.72517   0.5269  0.72799     N
H       0.7266   0.3286   0.7554     H
H       0.7266   0.6714   0.2554     H
C      0.73574   0.0667  0.38882     C
C      0.73574   0.9333  0.88882     C
C      0.73634   0.1219  0.47507     C
C      0.73634   0.8781  0.97507     C
N      0.73866  0.17717  0.56336     N
N      0.73866  0.82283  0.06336     N
C      0.74322   0.2368  0.65183     C
C      0.74322   0.7632  0.15183     C
C       0.7452   0.2935  0.73782     C
C       0.7452   0.7065  0.23782     C
C       0.7548   0.2065  0.26218     C
C       0.7548   0.7935  0.76218     C
C      0.75678   0.2632  0.34817     C
C      0.75678   0.7368  0.84817     C
N      0.76134  0.32283  0.43664     N
N      0.76134  0.67717  0.93664     N
C      0.76366   0.3781  0.52493     C
C      0.76366   0.6219  0.02493     C
C      0.76426   0.4333  0.61118     C
C      0.76426   0.5667  0.11118     C
H       0.7734   0.1714   0.2446     H
H       0.7734   0.8286   0.7446     H
N      0.77483   0.0269  0.77201     N
N      0.77483   0.9731  0.27201     N
C      0.77737   0.0183  0.18389     C
C      0.77737   0.9817  0.68389     C
C      0.77767   0.1371  0.00952     C
C      0.77767   0.8629  0.50952     C
N      0.78001   0.1853  0.92195     N
N      0.78001   0.8147  0.42195     N
C      0.78035   0.3494  0.10713     C
C      0.78035   0.6506  0.60713     C
C      0.78436   0.2116  0.32151     C
C      0.78436   0.7884  0.82151     C
C      0.78456   0.3997  0.02185     C
C      0.78456   0.6003  0.52185     C
H        0.786   0.4391    0.651     H
H        0.786   0.5609    0.151     H
C       0.7888   0.4925  0.34777     C
C       0.7888   0.5075  0.84777     C
N      0.78919   0.4509  0.93495     N
N      0.78919   0.5491  0.43495     N
C      0.78923   0.4484  0.25922     C
C      0.78923   0.5516  0.75922     C
C      0.78999   0.2735  0.41206     C
C      0.78999   0.7265  0.91206     C
C        0.794   0.3275  0.49416     C
C        0.794   0.6725  0.99416     C
C      0.79537   0.3889  0.58438     C
C      0.79537   0.6111  0.08438     C
N      0.79631  0.03108  0.41731     N
N      0.79631  0.96892  0.91731     N
H       0.7985   0.1339   0.0495     H
H       0.7985   0.8661   0.5495     H
C      0.79855   0.0842  0.50551     C
C      0.79855   0.9158  0.00551     C
N      0.79971   0.2501   0.7715     N
N      0.79971   0.7499   0.2715     N
H       0.8007   0.3442    0.147     H
H       0.8007   0.6558    0.647     H
H       0.8014   0.0425   0.1658     H
H       0.8014   0.9575   0.6658     H
C      0.80146   0.1946  0.68548     C
C      0.80146   0.8054  0.18548     C
C       0.8061   0.0068  0.24296     C
C       0.8061   0.9932  0.74296     C
C      0.80779   0.1784  0.97975     C
C      0.80779   0.8216  0.47975     C
H       0.8122   0.4245   0.2401     H
H       0.8122   0.5755   0.7401     H
C      0.81392    0.392  0.08139     C
C      0.81392    0.608  0.58139     C
C       0.8179   0.4491   0.9928     C
C       0.8179   0.5509   0.4928     C
C      0.82045   0.4976   0.9113     C
C      0.82045   0.5024   0.4113     C
H       0.8209   0.0884   0.5454     H
H       0.8209   0.9116   0.0454     H
C       0.8218   0.4572  0.31812     C
C       0.8218   0.5428  0.81812     C
H       0.8222   0.1807   0.3432     H
H       0.8222   0.8193   0.8432     H
H       0.8227   0.1618   0.6688     H
H       0.8227   0.8382   0.1688     H
Ag     0.82301  0.25006  0.86755    Ag
Ag     0.82301  0.74994  0.36755    Ag
C      0.82586   0.0407  0.47462     C
C      0.82586   0.9593  0.97462     C
C        0.827   0.2028   0.7448     C
C        0.827   0.7972   0.2448     C
H       0.8374   0.3661   0.6058     H
H       0.8374   0.6339   0.1058     H
Ag     0.84389  0.04206  0.86796    Ag
Ag     0.84389  0.95794  0.36796    Ag
N      0.84667   0.2317  0.44009     N
N      0.84667   0.7683  0.94009     N
H       0.8493   0.2026   0.0008     H
H       0.8493   0.7974   0.5008     H
H       0.8503   0.0237   0.2638     H
H       0.8503   0.9763   0.7638     H
N      0.85182   0.2892  0.52706     N
N      0.85182   0.7108  0.02706     N
H       0.8556   0.4153   0.1035     H
H       0.8556   0.5847   0.6035     H
H       0.8655   0.1736   0.7674     H
H       0.8655   0.8264   0.2674     H
H       0.8659   0.4395    0.338     H
H       0.8659   0.5605    0.838     H
H       0.8676   0.0164    0.495     H
H       0.8676   0.9836    0.995     H
N      0.87397   0.4901  0.02659     N
N      0.87397   0.5099  0.52659     N
C      0.87574   0.2427  0.49731     C
C      0.87574   0.7573  0.99731     C
N      0.87815   0.4624  0.44082     N
N      0.87815   0.5376  0.94082     N
C      0.90269   0.4691   0.4984     C
C      0.90269   0.5309   0.9984     C
N      0.91294   0.3404  0.90776     N
N      0.91294   0.6596  0.40776     N
H       0.9231   0.3803   0.8397     H
H       0.9231   0.6197   0.3397     H
H       0.9232   0.3149   0.9858     H
H       0.9232   0.6851   0.4858     H
N      0.93924   0.1146  0.91206     N
N      0.93924   0.8854  0.41206     N
C      0.93997   0.1975  0.52944     C
C      0.93997   0.8025  0.02944     C
C      0.94299   0.3813  0.87979     C
C      0.94299   0.6187  0.37979     C
C      0.94336   0.3424   0.9657     C
C      0.94336   0.6576   0.4657     C
H       0.9449   0.1009     0.99     H
H       0.9449   0.8991     0.49     H
H       0.9453   0.2102   0.6096     H
H       0.9453   0.7898   0.1096     H
H       0.9559    0.138   0.8448     H
H       0.9559    0.862   0.3448     H
H       0.9561    0.169   0.4597     H
H       0.9561    0.831   0.9597     H
C      0.96671   0.1884  0.58846     C
C      0.96671   0.8116  0.08846     C
C       0.9671   0.1235   0.9697     C
C       0.9671   0.8765   0.4697     C
C      0.96728   0.4248  0.53253     C
C      0.96728   0.5752  0.03253     C
C      0.97327   0.1455  0.88447     C
C      0.97327   0.8545  0.38447     C
C      0.97338   0.1641  0.49951     C
C      0.97338   0.8359  0.99951     C
H       0.9782    0.382   0.4631     H
H       0.9782    0.618   0.9631     H
H       0.9792   0.4532   0.6131     H
H       0.9792   0.5468   0.1131     H
C      0.99754   0.3828  0.50315     C
C      0.99754   0.6172  0.00315     C
C      0.99792   0.4247  0.59222     C
C      0.99792   0.5753  0.09222     C
