data_I
_chemical_name_common  '/home/zhangsd/repos/MofS-CGCNN/ML/data/SSD/clean_cifs/QOFCEV_clean'
_cell_length_a 22.03660
_cell_length_b 16.45320
_cell_length_c 25.68050
_cell_angle_alpha 90.00000
_cell_angle_beta  115.39700
_cell_angle_gamma 90.00000
_space_group_name_H-M_alt      'P 1'


loop_
_space_group_symop_operation_xyz
  'x, y, z' 

loop_
_atom_site_label
_atom_site_fract_x
_atom_site_fract_y
_atom_site_fract_z
_atom_site_type_symbol
H       0.0006   0.1164   0.0495     H
H       0.0006   0.8836   0.5495     H
H       0.0021   0.1649    0.897     H
H       0.0021   0.8351    0.397     H
C      0.01095   0.3722  0.52467     C
C      0.01095   0.6278  0.02467     C
C      0.01278     0.15  0.97833     C
C      0.01278     0.85  0.47833     C
C      0.01764    0.142   0.5809     C
C      0.01764    0.858   0.0809     C
H       0.0182   0.3835   0.6056     H
H       0.0182   0.6165   0.1056     H
C      0.01837   0.1131   0.4905     C
C      0.01837   0.8869   0.9905     C
H       0.0256   0.3379   0.4546     H
H       0.0256   0.6621   0.9546     H
C      0.03887   0.3609  0.58415     C
C      0.03887   0.6391  0.08415     C
C      0.04312   0.3341  0.49452     C
C      0.04312   0.6659  0.99452     C
C      0.05014   0.4226  0.00605     C
C      0.05014   0.5774  0.50605     C
N       0.0748  0.46111  0.97307     N
N       0.0748  0.53889  0.47307     N
N      0.07485  0.42718  0.06336     N
N      0.07485  0.57282  0.56336     N
C      0.07523   0.1991  0.00731     C
C      0.07523   0.8009  0.50731     C
C      0.07705      0.1  0.60715     C
C      0.07705      0.9  0.10715     C
C      0.07807   0.0714   0.5202     C
C      0.07807   0.9286   0.0202     C
H       0.0858   0.4596   0.3906     H
H       0.0858   0.5404   0.8906     H
H       0.0957   0.4123   0.1689     H
H       0.0957   0.5877   0.6689     H
H       0.0967   0.0957   0.6471     H
H       0.0967   0.9043   0.1471     H
C      0.09689   0.3166  0.61112     C
C      0.09689   0.6834  0.11112     C
N      0.09747  0.23998  0.97353     N
N      0.09747  0.76002  0.47353     N
H       0.0983   0.0468   0.4991     H
H       0.0983   0.9532   0.9991     H
C      0.10106   0.2909   0.5252     C
C      0.10106   0.7091   0.0252     C
N      0.10422    0.201  0.06492     N
N      0.10422    0.799  0.56492     N
N       0.1082  0.06472  0.57792     N
N       0.1082  0.93528  0.07792     N
H       0.1141   0.2077   0.1657     H
H       0.1141   0.7923   0.6657     H
H        0.115   0.3108    0.651     H
H        0.115   0.6892    0.151     H
H       0.1163   0.2964   0.8873     H
H       0.1163   0.7036   0.3873     H
H       0.1224   0.2669   0.5048     H
H       0.1224   0.7331   0.0048     H
C       0.1281   0.4764  0.08825     C
C       0.1281   0.5236  0.58825     C
C      0.12836   0.4379  0.41179     C
C      0.12836   0.5621  0.91179     C
C      0.12842   0.4925  0.50282     C
C      0.12842   0.5075  0.00282     C
N      0.12883  0.28101  0.58254     N
N      0.12883  0.71899  0.08254     N
C      0.13376   0.4449  0.18561     C
C      0.13376   0.5551  0.68561     C
H       0.1387   0.3873    0.345     H
H       0.1387   0.6127    0.845     H
H       0.1514   0.4239   0.2673     H
H       0.1514   0.5761   0.7673     H
C      0.15412    0.281  0.00174     C
C      0.15412    0.719  0.50174     C
C      0.15563   0.3253  0.90809     C
C      0.15563   0.6747  0.40809     C
N      0.15627  0.48144  0.55975     N
N      0.15627  0.51856  0.05975     N
C       0.1563   0.2317  0.18386     C
C       0.1563   0.7683  0.68386     C
C      0.15853   0.4869  0.15185     C
C      0.15853   0.5131  0.65185     C
C      0.15893   0.2475  0.08855     C
C      0.15893   0.7525  0.58855     C
C      0.16041   0.4475  0.47072     C
C      0.16041   0.5525  0.97072     C
C      0.16106   0.3949  0.38467     C
C      0.16106   0.6051  0.88467     C
H       0.1639   0.2258   0.2643     H
H       0.1639   0.7742   0.7643     H
H       0.1665   0.3697   0.8399     H
H       0.1665   0.6303   0.3399     H
C       0.1674   0.4531  0.24475     C
C       0.1674   0.5469  0.74475     C
H       0.1779   0.1746   0.7401     H
H       0.1779   0.8254   0.2401     H
C      0.18425   0.3256  0.96749     C
C      0.18425   0.6744  0.46749     C
C      0.18672   0.3688  0.88001     C
C      0.18672   0.6312  0.38001     C
C       0.1869   0.2431  0.24328     C
C       0.1869   0.7569  0.74328     C
N      0.18724  0.28746  0.05933     N
N      0.18724  0.71254  0.55933     N
H       0.1875   0.0652   0.0142     H
H       0.1875   0.9348   0.5142     H
C       0.1909   0.2573  0.15244     C
C       0.1909   0.7427  0.65244     C
H       0.2049   0.1494   0.5101     H
H       0.2049   0.8506   0.0101     H
Ag     0.20535  0.00021  0.13232    Ag
Ag     0.20535  0.99979  0.63232    Ag
C      0.21218   0.4614  0.67865     C
C      0.21218   0.5386  0.17865     C
C         0.22   0.1983  0.75918     C
C         0.22   0.8017  0.25918     C
N      0.22127   0.4999  0.77168     N
N      0.22127   0.5001  0.27168     N
H       0.2217   0.0789   0.2447     H
H       0.2217   0.9211   0.7447     H
N      0.22246   0.3641  0.41219     N
N      0.22246   0.6359  0.91219     N
H       0.2225   0.1896   0.8383     H
H       0.2225   0.8104   0.3383     H
C      0.22318   0.4136  0.50014     C
C      0.22318   0.5864  0.00014     C
Ag     0.22596  0.20856   0.6318    Ag
Ag     0.22596  0.79144   0.1318    Ag
C      0.22788   0.0925  0.03434     C
C      0.22788   0.9075  0.53434     C
H        0.228   0.4302   0.6569     H
H        0.228   0.5698   0.1569     H
H       0.2353   0.1328   0.9632     H
H       0.2353   0.8672   0.4632     H
C       0.2421   0.4562  0.73781     C
C       0.2421   0.5438  0.23781     C
C      0.24388   0.3669  0.99673     C
C      0.24388   0.6331  0.49673     C
N      0.24459   0.4099  0.90779     N
N      0.24459   0.5901  0.40779     N
H       0.2455   0.4179     0.54     H
H       0.2455   0.5821     0.04     H
C      0.24657   0.2073  0.81827     C
C      0.24657   0.7927  0.31827     C
N      0.24691   0.2772  0.27201     N
N      0.24691   0.7228  0.77201     N
C      0.24746   0.1271  0.53035     C
C      0.24746   0.8729  0.03035     C
C      0.25254   0.3729  0.46965     C
C      0.25254   0.6271  0.96965     C
N      0.25309   0.2228  0.72799     N
N      0.25309   0.7772  0.22799     N
C      0.25343   0.2927  0.18173     C
C      0.25343   0.7073  0.68173     C
H       0.2545   0.0821     0.46     H
H       0.2545   0.9179     0.96     H
N      0.25541   0.0901  0.09221     N
N      0.25541   0.9099  0.59221     N
C      0.25612   0.1331  0.00327     C
C      0.25612   0.8669  0.50327     C
C       0.2579   0.0438  0.26219     C
C       0.2579   0.9562  0.76219     C
H       0.2647   0.3672   0.0368     H
H       0.2647   0.6328   0.5368     H
H        0.272   0.0698   0.3431     H
H        0.272   0.9302   0.8431     H
C      0.27212   0.4075  0.96566     C
C      0.27212   0.5925  0.46566     C
Ag     0.27404  0.29144   0.3682    Ag
Ag     0.27404  0.70856   0.8682    Ag
C      0.27682   0.0864  0.49986     C
C      0.27682   0.9136  0.99986     C
H       0.2775   0.3104   0.1617     H
H       0.2775   0.6896   0.6617     H
N      0.27754   0.1359  0.58781     N
N      0.27754   0.8641  0.08781     N
H       0.2783   0.4211   0.7553     H
H       0.2783   0.5789   0.2553     H
N      0.27873   0.0001  0.22832     N
N      0.27873   0.9999  0.72832     N
C         0.28   0.3017  0.24082     C
C         0.28   0.6983  0.74082     C
C      0.28782   0.0386  0.32135     C
C      0.28782   0.9614  0.82135     C
Ag     0.29465  0.49979  0.86768    Ag
Ag     0.29465  0.50021  0.36768    Ag
H       0.2951   0.3506   0.4899     H
H       0.2951   0.6494   0.9899     H
C       0.3091   0.2427  0.84756     C
C       0.3091   0.7573  0.34756     C
H       0.3125   0.4348   0.9858     H
H       0.3125   0.5652   0.4858     H
N      0.31276  0.21254  0.94067     N
N      0.31276  0.78746  0.44067     N
C       0.3131   0.2569  0.75672     C
C       0.3131   0.7431  0.25672     C
C      0.31328   0.1312  0.11999     C
C      0.31328   0.8688  0.61999     C
C      0.31575   0.1744  0.03251     C
C      0.31575   0.8256  0.53251     C
H       0.3221   0.3254   0.2599     H
H       0.3221   0.6746   0.7599     H
C       0.3326   0.0469  0.75525     C
C       0.3326   0.9531  0.25525     C
H       0.3335   0.1303   0.1601     H
H       0.3335   0.8697   0.6601     H
H       0.3361   0.2742   0.7357     H
H       0.3361   0.7258   0.2357     H
C      0.33894   0.1051  0.61533     C
C      0.33894   0.8949  0.11533     C
C      0.33959   0.0525  0.52928     C
C      0.33959   0.9475  0.02928     C
C      0.34107   0.2525  0.91145     C
C      0.34107   0.7475  0.41145     C
C      0.34147   0.0131  0.84815     C
C      0.34147   0.9869  0.34815     C
C       0.3437   0.2683  0.81614     C
C       0.3437   0.7317  0.31614     C
N      0.34373  0.01856  0.44025     N
N      0.34373  0.98144  0.94025     N
C      0.34437   0.1747  0.09191     C
C      0.34437   0.8253  0.59191     C
C      0.34588    0.219  0.99826     C
C      0.34588    0.781  0.49826     C
H       0.3486   0.0761   0.7327     H
H       0.3486   0.9239   0.2327     H
H       0.3613   0.1127    0.655     H
H       0.3613   0.8873    0.155     H
C      0.36624   0.0551  0.81439     C
C      0.36624   0.9449  0.31439     C
N      0.37117  0.21899  0.41746     N
N      0.37117  0.78101  0.91746     N
C      0.37158   0.0075  0.49718     C
C      0.37158   0.9925  0.99718     C
C      0.37164   0.0621  0.58821     C
C      0.37164   0.9379  0.08821     C
C       0.3719   0.0236  0.91175     C
C       0.3719   0.9764  0.41175     C
H       0.3776   0.2331   0.4952     H
H       0.3776   0.7669   0.9952     H
H       0.3837   0.2036   0.1127     H
H       0.3837   0.7964   0.6127     H
H        0.385   0.1892    0.349     H
H        0.385   0.8108    0.849     H
H       0.3859   0.2923   0.8343     H
H       0.3859   0.7077   0.3343     H
N       0.3918  0.43528  0.42208     N
N       0.3918  0.56472  0.92208     N
N      0.39578    0.299  0.93508     N
N      0.39578    0.701  0.43508     N
C      0.39894   0.2091   0.4748     C
C      0.39894   0.7909   0.9748     C
H       0.4017   0.4532   0.5009     H
H       0.4017   0.5468   0.0009     H
N      0.40253  0.26002  0.02647     N
N      0.40253  0.73998  0.52647     N
C      0.40311   0.1834  0.38888     C
C      0.40311   0.8166  0.88888     C
H       0.4033   0.4043   0.3529     H
H       0.4033   0.5957   0.8529     H
H       0.4043   0.0877   0.8311     H
H       0.4043   0.9123   0.3311     H
H       0.4142   0.0404   0.6094     H
H       0.4142   0.9596   0.1094     H
C      0.42193   0.4286   0.4798     C
C      0.42193   0.5714   0.9798     C
C      0.42295      0.4  0.39285     C
C      0.42295      0.6  0.89285     C
C      0.42477   0.3009  0.99269     C
C      0.42477   0.6991  0.49269     C
N      0.42515  0.07282  0.93664     N
N      0.42515  0.92718  0.43664     N
N       0.4252  0.03889  0.02693     N
N       0.4252  0.96111  0.52693     N
C      0.44986   0.0774  0.99395     C
C      0.44986   0.9226  0.49395     C
C      0.45688   0.1659  0.50548     C
C      0.45688   0.8341  0.00548     C
C      0.46113   0.1391  0.41585     C
C      0.46113   0.8609  0.91585     C
H       0.4744   0.1621   0.5454     H
H       0.4744   0.8379   0.0454     H
C      0.48163   0.3869   0.5095     C
C      0.48163   0.6131   0.0095     C
H       0.4818   0.1165   0.3944     H
H       0.4818   0.8835   0.8944     H
C      0.48236    0.358   0.4191     C
C      0.48236    0.642   0.9191     C
C      0.48722     0.35  0.02167     C
C      0.48722     0.65  0.52167     C
C      0.48905   0.1278  0.47533     C
C      0.48905   0.8722  0.97533     C
H       0.4979   0.3351    0.103     H
H       0.4979   0.6649    0.603     H
H       0.4994   0.3836   0.9505     H
H       0.4994   0.6164   0.4505     H
H       0.5006   0.3836   0.5495     H
H       0.5006   0.6164   0.0495     H
H       0.5021   0.3351    0.397     H
H       0.5021   0.6649    0.897     H
C      0.51095   0.1278  0.02467     C
C      0.51095   0.8722  0.52467     C
C      0.51278     0.35  0.47833     C
C      0.51278     0.65  0.97833     C
C      0.51764    0.358   0.0809     C
C      0.51764    0.642   0.5809     C
H       0.5182   0.1165   0.1056     H
H       0.5182   0.8835   0.6056     H
C      0.51837   0.3869   0.9905     C
C      0.51837   0.6131   0.4905     C
H       0.5256   0.1621   0.9546     H
H       0.5256   0.8379   0.4546     H
C      0.53887   0.1391  0.08415     C
C      0.53887   0.8609  0.58415     C
C      0.54312   0.1659  0.99452     C
C      0.54312   0.8341  0.49452     C
C      0.55014   0.0774  0.50605     C
C      0.55014   0.9226  0.00605     C
N       0.5748  0.03889  0.47307     N
N       0.5748  0.96111  0.97307     N
N      0.57485  0.07282  0.56336     N
N      0.57485  0.92718  0.06336     N
C      0.57523   0.3009  0.50731     C
C      0.57523   0.6991  0.00731     C
C      0.57705      0.4  0.10715     C
C      0.57705      0.6  0.60715     C
C      0.57807   0.4286   0.0202     C
C      0.57807   0.5714   0.5202     C
H       0.5858   0.0404   0.8906     H
H       0.5858   0.9596   0.3906     H
H       0.5957   0.0877   0.6689     H
H       0.5957   0.9123   0.1689     H
H       0.5967   0.4043   0.1471     H
H       0.5967   0.5957   0.6471     H
C      0.59689   0.1834  0.11112     C
C      0.59689   0.8166  0.61112     C
N      0.59747  0.26002  0.47353     N
N      0.59747  0.73998  0.97353     N
H       0.5983   0.4532   0.9991     H
H       0.5983   0.5468   0.4991     H
C      0.60106   0.2091   0.0252     C
C      0.60106   0.7909   0.5252     C
N      0.60422    0.299  0.56492     N
N      0.60422    0.701  0.06492     N
N       0.6082  0.43528  0.07792     N
N       0.6082  0.56472  0.57792     N
H       0.6141   0.2923   0.6657     H
H       0.6141   0.7077   0.1657     H
H        0.615   0.1892    0.151     H
H        0.615   0.8108    0.651     H
H       0.6163   0.2036   0.3873     H
H       0.6163   0.7964   0.8873     H
H       0.6224   0.2331   0.0048     H
H       0.6224   0.7669   0.5048     H
C       0.6281   0.0236  0.58825     C
C       0.6281   0.9764  0.08825     C
C      0.62836   0.0621  0.91179     C
C      0.62836   0.9379  0.41179     C
C      0.62842   0.0075  0.00282     C
C      0.62842   0.9925  0.50282     C
N      0.62883  0.21899  0.08254     N
N      0.62883  0.78101  0.58254     N
C      0.63376   0.0551  0.68561     C
C      0.63376   0.9449  0.18561     C
H       0.6387   0.1127    0.845     H
H       0.6387   0.8873    0.345     H
H       0.6514   0.0761   0.7673     H
H       0.6514   0.9239   0.2673     H
C      0.65412    0.219  0.50174     C
C      0.65412    0.781  0.00174     C
C      0.65563   0.1747  0.40809     C
C      0.65563   0.8253  0.90809     C
N      0.65627  0.01856  0.05975     N
N      0.65627  0.98144  0.55975     N
C       0.6563   0.2683  0.68386     C
C       0.6563   0.7317  0.18386     C
C      0.65853   0.0131  0.65185     C
C      0.65853   0.9869  0.15185     C
C      0.65893   0.2525  0.58855     C
C      0.65893   0.7475  0.08855     C
C      0.66041   0.0525  0.97072     C
C      0.66041   0.9475  0.47072     C
C      0.66106   0.1051  0.88467     C
C      0.66106   0.8949  0.38467     C
H       0.6639   0.2742   0.7643     H
H       0.6639   0.7258   0.2643     H
H       0.6665   0.1303   0.3399     H
H       0.6665   0.8697   0.8399     H
C       0.6674   0.0469  0.74475     C
C       0.6674   0.9531  0.24475     C
H       0.6779   0.3254   0.2401     H
H       0.6779   0.6746   0.7401     H
C      0.68425   0.1744  0.46749     C
C      0.68425   0.8256  0.96749     C
C      0.68672   0.1312  0.38001     C
C      0.68672   0.8688  0.88001     C
C       0.6869   0.2569  0.74328     C
C       0.6869   0.7431  0.24328     C
N      0.68724  0.21254  0.55933     N
N      0.68724  0.78746  0.05933     N
H       0.6875   0.4348   0.5142     H
H       0.6875   0.5652   0.0142     H
C       0.6909   0.2427  0.65244     C
C       0.6909   0.7573  0.15244     C
H       0.7049   0.3506   0.0101     H
H       0.7049   0.6494   0.5101     H
Ag     0.70535  0.49979  0.63232    Ag
Ag     0.70535  0.50021  0.13232    Ag
C      0.71218   0.0386  0.17865     C
C      0.71218   0.9614  0.67865     C
C         0.72   0.3017  0.25918     C
C         0.72   0.6983  0.75918     C
N      0.72127   0.0001  0.27168     N
N      0.72127   0.9999  0.77168     N
H       0.7217   0.4211   0.7447     H
H       0.7217   0.5789   0.2447     H
N      0.72246   0.1359  0.91219     N
N      0.72246   0.8641  0.41219     N
H       0.7225   0.3104   0.3383     H
H       0.7225   0.6896   0.8383     H
C      0.72318   0.0864  0.00014     C
C      0.72318   0.9136  0.50014     C
Ag     0.72596  0.29144   0.1318    Ag
Ag     0.72596  0.70856   0.6318    Ag
C      0.72788   0.4075  0.53434     C
C      0.72788   0.5925  0.03434     C
H        0.728   0.0698   0.1569     H
H        0.728   0.9302   0.6569     H
H       0.7353   0.3672   0.4632     H
H       0.7353   0.6328   0.9632     H
C       0.7421   0.0438  0.23781     C
C       0.7421   0.9562  0.73781     C
C      0.74388   0.1331  0.49673     C
C      0.74388   0.8669  0.99673     C
N      0.74459   0.0901  0.40779     N
N      0.74459   0.9099  0.90779     N
H       0.7455   0.0821     0.04     H
H       0.7455   0.9179     0.54     H
C      0.74657   0.2927  0.31827     C
C      0.74657   0.7073  0.81827     C
N      0.74691   0.2228  0.77201     N
N      0.74691   0.7772  0.27201     N
C      0.74746   0.3729  0.03035     C
C      0.74746   0.6271  0.53035     C
C      0.75254   0.1271  0.96965     C
C      0.75254   0.8729  0.46965     C
N      0.75309   0.2772  0.22799     N
N      0.75309   0.7228  0.72799     N
C      0.75343   0.2073  0.68173     C
C      0.75343   0.7927  0.18173     C
H       0.7545   0.4179     0.96     H
H       0.7545   0.5821     0.46     H
N      0.75541   0.4099  0.59221     N
N      0.75541   0.5901  0.09221     N
C      0.75612   0.3669  0.50327     C
C      0.75612   0.6331  0.00327     C
C       0.7579   0.4562  0.76219     C
C       0.7579   0.5438  0.26219     C
H       0.7647   0.1328   0.5368     H
H       0.7647   0.8672   0.0368     H
H        0.772   0.4302   0.8431     H
H        0.772   0.5698   0.3431     H
C      0.77212   0.0925  0.46566     C
C      0.77212   0.9075  0.96566     C
Ag     0.77404  0.20856   0.8682    Ag
Ag     0.77404  0.79144   0.3682    Ag
C      0.77682   0.4136  0.99986     C
C      0.77682   0.5864  0.49986     C
H       0.7775   0.1896   0.6617     H
H       0.7775   0.8104   0.1617     H
N      0.77754   0.3641  0.08781     N
N      0.77754   0.6359  0.58781     N
H       0.7783   0.0789   0.2553     H
H       0.7783   0.9211   0.7553     H
N      0.77873   0.4999  0.72832     N
N      0.77873   0.5001  0.22832     N
C         0.78   0.1983  0.74082     C
C         0.78   0.8017  0.24082     C
C      0.78782   0.4614  0.82135     C
C      0.78782   0.5386  0.32135     C
Ag     0.79465  0.00021  0.36768    Ag
Ag     0.79465  0.99979  0.86768    Ag
H       0.7951   0.1494   0.9899     H
H       0.7951   0.8506   0.4899     H
C       0.8091   0.2573  0.34756     C
C       0.8091   0.7427  0.84756     C
H       0.8125   0.0652   0.4858     H
H       0.8125   0.9348   0.9858     H
N      0.81276  0.28746  0.44067     N
N      0.81276  0.71254  0.94067     N
C       0.8131   0.2431  0.25672     C
C       0.8131   0.7569  0.75672     C
C      0.81328   0.3688  0.61999     C
C      0.81328   0.6312  0.11999     C
C      0.81575   0.3256  0.53251     C
C      0.81575   0.6744  0.03251     C
H       0.8221   0.1746   0.7599     H
H       0.8221   0.8254   0.2599     H
C       0.8326   0.4531  0.25525     C
C       0.8326   0.5469  0.75525     C
H       0.8335   0.3697   0.6601     H
H       0.8335   0.6303   0.1601     H
H       0.8361   0.2258   0.2357     H
H       0.8361   0.7742   0.7357     H
C      0.83894   0.3949  0.11533     C
C      0.83894   0.6051  0.61533     C
C      0.83959   0.4475  0.02928     C
C      0.83959   0.5525  0.52928     C
C      0.84107   0.2475  0.41145     C
C      0.84107   0.7525  0.91145     C
C      0.84147   0.4869  0.34815     C
C      0.84147   0.5131  0.84815     C
C       0.8437   0.2317  0.31614     C
C       0.8437   0.7683  0.81614     C
N      0.84373  0.48144  0.94025     N
N      0.84373  0.51856  0.44025     N
C      0.84437   0.3253  0.59191     C
C      0.84437   0.6747  0.09191     C
C      0.84588    0.281  0.49826     C
C      0.84588    0.719  0.99826     C
H       0.8486   0.4239   0.2327     H
H       0.8486   0.5761   0.7327     H
H       0.8613   0.3873    0.155     H
H       0.8613   0.6127    0.655     H
C      0.86624   0.4449  0.31439     C
C      0.86624   0.5551  0.81439     C
N      0.87117  0.28101  0.91746     N
N      0.87117  0.71899  0.41746     N
C      0.87158   0.4925  0.99718     C
C      0.87158   0.5075  0.49718     C
C      0.87164   0.4379  0.08821     C
C      0.87164   0.5621  0.58821     C
C       0.8719   0.4764  0.41175     C
C       0.8719   0.5236  0.91175     C
H       0.8776   0.2669   0.9952     H
H       0.8776   0.7331   0.4952     H
H       0.8837   0.2964   0.6127     H
H       0.8837   0.7036   0.1127     H
H        0.885   0.3108    0.849     H
H        0.885   0.6892    0.349     H
H       0.8859   0.2077   0.3343     H
H       0.8859   0.7923   0.8343     H
N       0.8918  0.06472  0.92208     N
N       0.8918  0.93528  0.42208     N
N      0.89578    0.201  0.43508     N
N      0.89578    0.799  0.93508     N
C      0.89894   0.2909   0.9748     C
C      0.89894   0.7091   0.4748     C
H       0.9017   0.0468   0.0009     H
H       0.9017   0.9532   0.5009     H
N      0.90253  0.23998  0.52647     N
N      0.90253  0.76002  0.02647     N
C      0.90311   0.3166  0.88888     C
C      0.90311   0.6834  0.38888     C
H       0.9033   0.0957   0.8529     H
H       0.9033   0.9043   0.3529     H
H       0.9043   0.4123   0.3311     H
H       0.9043   0.5877   0.8311     H
H       0.9142   0.4596   0.1094     H
H       0.9142   0.5404   0.6094     H
C      0.92193   0.0714   0.9798     C
C      0.92193   0.9286   0.4798     C
C      0.92295      0.1  0.89285     C
C      0.92295      0.9  0.39285     C
C      0.92477   0.1991  0.49269     C
C      0.92477   0.8009  0.99269     C
N      0.92515  0.42718  0.43664     N
N      0.92515  0.57282  0.93664     N
N       0.9252  0.46111  0.52693     N
N       0.9252  0.53889  0.02693     N
C      0.94986   0.4226  0.49395     C
C      0.94986   0.5774  0.99395     C
C      0.95688   0.3341  0.00548     C
C      0.95688   0.6659  0.50548     C
C      0.96113   0.3609  0.91585     C
C      0.96113   0.6391  0.41585     C
H       0.9744   0.3379   0.0454     H
H       0.9744   0.6621   0.5454     H
C      0.98163   0.1131   0.0095     C
C      0.98163   0.8869   0.5095     C
H       0.9818   0.3835   0.8944     H
H       0.9818   0.6165   0.3944     H
C      0.98236    0.142   0.9191     C
C      0.98236    0.858   0.4191     C
C      0.98722     0.15  0.52167     C
C      0.98722     0.85  0.02167     C
C      0.98905   0.3722  0.97533     C
C      0.98905   0.6278  0.47533     C
H       0.9979   0.1649    0.603     H
H       0.9979   0.8351    0.103     H
H       0.9994   0.1164   0.4505     H
H       0.9994   0.8836   0.9505     H
