data_I
_chemical_name_common  '/home/zhangsd/repos/MofS-CGCNN/ML/data/SSD/clean_cifs/QOFDOG_clean'
_cell_length_a 21.97170
_cell_length_b 16.66920
_cell_length_c 25.62890
_cell_angle_alpha 90.00000
_cell_angle_beta  115.34400
_cell_angle_gamma 90.00000
_space_group_name_H-M_alt      'P 1'


loop_
_space_group_symop_operation_xyz
  'x, y, z' 

loop_
_atom_site_label
_atom_site_fract_x
_atom_site_fract_y
_atom_site_fract_z
_atom_site_type_symbol
H       0.0009   0.3836   0.5491     H
H       0.0009   0.6164   0.0491     H
H       0.0017   0.3355    0.396     H
H       0.0017   0.6645    0.896     H
C       0.0112   0.1273   0.0253     C
C       0.0112   0.8727   0.5253     C
C       0.0126   0.3499    0.477     C
C       0.0126   0.6501    0.977     C
C       0.0179    0.358   0.0817     C
C       0.0179    0.642   0.5817     C
C       0.0183    0.387    0.991     C
C       0.0183    0.613    0.491     C
H       0.0196   0.1156   0.1066     H
H       0.0196   0.8844   0.6066     H
H        0.025   0.1629   0.9548     H
H        0.025   0.8371   0.4548     H
C       0.0394   0.1387   0.0847     C
C       0.0394   0.8613   0.5847     C
C       0.0428   0.1662   0.9949     C
C       0.0428   0.8338   0.4949     C
C       0.0495   0.0772   0.5051     C
C       0.0495   0.9228   0.0051     C
N        0.074   0.0393   0.4721     N
N        0.074   0.9607   0.9721     N
N       0.0747   0.0726   0.5626     N
N       0.0747   0.9274   0.0626     N
C       0.0748   0.3015   0.5063     C
C       0.0748   0.6985   0.0063     C
C       0.0778   0.4286   0.0207     C
C       0.0778   0.5714   0.5207     C
C       0.0779   0.3997    0.108     C
C       0.0779   0.6003    0.608     C
H       0.0849   0.0401   0.8896     H
H       0.0849   0.9599   0.3896     H
H       0.0951   0.0872    0.668     H
H       0.0951   0.9128    0.168     H
C        0.097   0.1846   0.1111     C
C        0.097   0.8154   0.6111     C
N       0.0971   0.2608   0.4727     N
N       0.0971   0.7392   0.9727     N
H       0.0978   0.4534   0.9995     H
H       0.0978   0.5466   0.4995     H
H       0.0983   0.4034   0.1481     H
H       0.0983   0.5966   0.6481     H
C        0.101   0.2093   0.0257     C
C        0.101   0.7907   0.5257     C
N       0.1036   0.2993    0.564     N
N       0.1036   0.7007    0.064     N
N        0.108   0.4352    0.078     N
N        0.108   0.5648    0.578     N
H       0.1136   0.2921   0.6654     H
H       0.1136   0.7079   0.1654     H
H       0.1147   0.1917   0.1509     H
H       0.1147   0.8083   0.6509     H
H        0.116    0.204    0.386     H
H        0.116    0.796    0.886     H
H       0.1223   0.2331   0.0051     H
H       0.1223   0.7669   0.5051     H
C       0.1274   0.0241   0.5875     C
C       0.1274   0.9759   0.0875     C
C       0.1276   0.0614   0.9109     C
C       0.1276   0.9386   0.4109     C
C        0.128   0.0072   0.0019     C
C        0.128   0.9928   0.5019     C
N       0.1286   0.2192   0.0825     N
N       0.1286   0.7808   0.5825     N
C       0.1333   0.0551   0.6846     C
C       0.1333   0.9449   0.1846     C
H       0.1382   0.1114   0.8446     H
H       0.1382   0.8886   0.3446     H
H       0.1516   0.0751    0.767     H
H       0.1516   0.9249    0.267     H
C       0.1535     0.22   0.5008     C
C       0.1535     0.78   0.0008     C
C       0.1552   0.1752    0.407     C
C       0.1552   0.8248    0.907     C
N       0.1558   0.0175   0.0587     N
C       0.1558   0.2682   0.6832     C
C       0.1558   0.7318   0.1832     C
N       0.1558   0.9825   0.5587     N
C       0.1583   0.0144   0.6512     C
C       0.1583   0.2516   0.5874     C
C       0.1583   0.7484   0.0874     C
C       0.1583   0.9856   0.1512     C
C       0.1596   0.0517   0.9695     C
C       0.1596   0.9483   0.4695     C
C       0.1606   0.1039   0.8843     C
C       0.1606   0.8961   0.3843     C
H       0.1643   0.2741   0.7637     H
H       0.1643   0.7259   0.2637     H
H       0.1652   0.1292   0.3394     H
H       0.1652   0.8708   0.8394     H
C       0.1674   0.0462   0.7442     C
C       0.1674   0.9538   0.2442     C
H       0.1789   0.3257   0.2411     H
H       0.1789   0.6743   0.7411     H
C       0.1839   0.1757   0.4663     C
C       0.1839   0.8243   0.9663     C
C       0.1859   0.1312   0.3795     C
C       0.1859   0.8688   0.8795     C
N       0.1861   0.2126   0.5584     N
N       0.1861   0.7874   0.0584     N
C       0.1871   0.2566   0.7424     C
C       0.1871   0.7434   0.2424     C
H       0.1887   0.4342   0.5152     H
H       0.1887   0.5658   0.0152     H
C         0.19   0.2424   0.6514     C
C         0.19   0.7576   0.1514     C
Ag     0.20461  0.49756  0.63244    Ag
Ag     0.20461  0.50244  0.13244    Ag
H       0.2072    0.351   0.0119     H
H       0.2072    0.649   0.5119     H
C       0.2118   0.0377   0.1774     C
C       0.2118   0.9623   0.6774     C
N       0.2206   0.0002   0.2709     N
N       0.2206   0.9998   0.7709     N
C       0.2209   0.3018   0.2601     C
C       0.2209   0.6982   0.7601     C
N        0.222   0.1346   0.9116     N
N        0.222   0.8654   0.4116     N
C       0.2228    0.085    0.999     C
C       0.2228    0.915    0.499     C
H       0.2233   0.4204   0.7458     H
H       0.2233   0.5796   0.2458     H
H       0.2241   0.3104   0.3398     H
H       0.2241   0.6896   0.8398     H
Ag     0.22629  0.29104  0.13192    Ag
Ag     0.22629  0.70896  0.63192    Ag
H       0.2277    0.068   0.1554     H
H       0.2277    0.932   0.6554     H
C       0.2289   0.4068   0.5352     C
C       0.2289   0.5932   0.0352     C
H       0.2363   0.3677   0.4633     H
H       0.2363   0.6323   0.9633     H
C       0.2412   0.0439   0.2368     C
C       0.2412   0.9561   0.7368     C
C       0.2434   0.1334   0.4965     C
C       0.2434   0.8666   0.9965     C
N       0.2438    0.091   0.4072     N
N       0.2438    0.909   0.9072     N
H        0.246   0.0799   0.0388     H
H        0.246   0.9201   0.5388     H
N       0.2464    0.223   0.7711     N
N       0.2464    0.777   0.2711     N
C        0.248   0.2927   0.3195     C
C        0.248   0.7073   0.8195     C
C       0.2493   0.3741   0.0322     C
C       0.2493   0.6259   0.5322     C
C       0.2507   0.1259   0.9678     C
C       0.2507   0.8741   0.4678     C
C        0.252   0.2073   0.6805     C
C        0.252   0.7927   0.1805     C
N       0.2536    0.277   0.2289     N
N       0.2536    0.723   0.7289     N
H        0.254   0.4201   0.9612     H
H        0.254   0.5799   0.4612     H
N       0.2562    0.409   0.5928     N
N       0.2562    0.591   0.0928     N
C       0.2566   0.3666   0.5035     C
C       0.2566   0.6334   0.0035     C
C       0.2588   0.4561   0.7632     C
C       0.2588   0.5439   0.2632     C
H       0.2637   0.1323   0.5367     H
H       0.2637   0.8677   0.0367     H
C       0.2711   0.0932   0.4648     C
C       0.2711   0.9068   0.9648     C
H       0.2723    0.432   0.8446     H
H       0.2723    0.568   0.3446     H
Ag     0.27371  0.20896  0.86808    Ag
Ag     0.27371  0.79104  0.36808    Ag
H       0.2759   0.1896   0.6602     H
H       0.2759   0.8104   0.1602     H
H       0.2767   0.0796   0.2542     H
H       0.2767   0.9204   0.7542     H
C       0.2772    0.415    0.001     C
C       0.2772    0.585    0.501     C
N        0.278   0.3654   0.0884     N
N        0.278   0.6346   0.5884     N
C       0.2791   0.1982   0.7399     C
C       0.2791   0.8018   0.2399     C
N       0.2794   0.4998   0.7291     N
N       0.2794   0.5002   0.2291     N
C       0.2882   0.4623   0.8226     C
C       0.2882   0.5377   0.3226     C
H       0.2928    0.149   0.9881     H
H       0.2928    0.851   0.4881     H
Ag     0.29539  0.00244  0.36756    Ag
Ag     0.29539  0.99756  0.86756    Ag
C         0.31   0.2576   0.3486     C
C         0.31   0.7424   0.8486     C
H       0.3113   0.0658   0.4848     H
H       0.3113   0.9342   0.9848     H
C       0.3129   0.2434   0.2576     C
C       0.3129   0.7566   0.7576     C
N       0.3139   0.2874   0.4416     N
N       0.3139   0.7126   0.9416     N
C       0.3141   0.3688   0.6205     C
C       0.3141   0.6312   0.1205     C
C       0.3161   0.3243   0.5337     C
C       0.3161   0.6757   0.0337     C
H       0.3211   0.1743   0.7589     H
H       0.3211   0.8257   0.2589     H
C       0.3326   0.4538   0.2558     C
C       0.3326   0.5462   0.7558     C
H       0.3348   0.3708   0.6606     H
H       0.3348   0.6292   0.1606     H
H       0.3357   0.2259   0.2363     H
H       0.3357   0.7741   0.7363     H
C       0.3394   0.3961   0.1157     C
C       0.3394   0.6039   0.6157     C
C       0.3404   0.4483   0.0305     C
C       0.3404   0.5517   0.5305     C
C       0.3417   0.2484   0.4126     C
C       0.3417   0.4856   0.3488     C
C       0.3417   0.5144   0.8488     C
C       0.3417   0.7516   0.9126     C
C       0.3442   0.2318   0.3168     C
N       0.3442   0.4825   0.9413     N
N       0.3442   0.5175   0.4413     N
C       0.3442   0.7682   0.8168     C
C       0.3448   0.3248    0.593     C
C       0.3448   0.6752    0.093     C
C       0.3465     0.28   0.4992     C
C       0.3465     0.72   0.9992     C
H       0.3484   0.4249    0.233     H
H       0.3484   0.5751    0.733     H
H       0.3618   0.3886   0.1554     H
H       0.3618   0.6114   0.6554     H
C       0.3667   0.4449   0.3154     C
C       0.3667   0.5551   0.8154     C
N       0.3714   0.2808   0.9175     N
N       0.3714   0.7192   0.4175     N
C        0.372   0.4928   0.9981     C
C        0.372   0.5072   0.4981     C
C       0.3724   0.4386   0.0891     C
C       0.3724   0.5614   0.5891     C
C       0.3726   0.4759   0.4125     C
C       0.3726   0.5241   0.9125     C
H       0.3777   0.2669   0.9949     H
H       0.3777   0.7331   0.4949     H
H        0.384    0.296    0.614     H
H        0.384    0.704    0.114     H
H       0.3853   0.3083   0.8491     H
H       0.3853   0.6917   0.3491     H
H       0.3864   0.2079   0.3346     H
H       0.3864   0.7921   0.8346     H
N        0.392   0.0648    0.922     N
N        0.392   0.9352    0.422     N
N       0.3964   0.2007    0.436     N
N       0.3964   0.7993    0.936     N
C        0.399   0.2907   0.9743     C
C        0.399   0.7093   0.4743     C
H       0.4017   0.0966   0.8519     H
H       0.4017   0.9034   0.3519     H
H       0.4022   0.0466   0.0005     H
H       0.4022   0.9534   0.5005     H
N       0.4029   0.2392   0.5273     N
N       0.4029   0.7608   0.0273     N
C        0.403   0.3154   0.8889     C
C        0.403   0.6846   0.3889     C
H       0.4049   0.4128    0.332     H
H       0.4049   0.5872    0.832     H
H       0.4151   0.4599   0.1104     H
H       0.4151   0.5401   0.6104     H
C       0.4221   0.1003    0.892     C
C       0.4221   0.8997    0.392     C
C       0.4222   0.0714   0.9793     C
C       0.4222   0.9286   0.4793     C
C       0.4252   0.1985   0.4937     C
C       0.4252   0.8015   0.9937     C
N       0.4253   0.4274   0.4374     N
N       0.4253   0.5726   0.9374     N
N        0.426   0.4607   0.5279     N
N        0.426   0.5393   0.0279     N
C       0.4505   0.4228   0.4949     C
C       0.4505   0.5772   0.9949     C
C       0.4572   0.3338   0.0051     C
C       0.4572   0.6662   0.5051     C
C       0.4606   0.3613   0.9153     C
C       0.4606   0.6387   0.4153     C
H        0.475   0.3371   0.0452     H
H        0.475   0.6629   0.5452     H
H       0.4804   0.3844   0.8934     H
H       0.4804   0.6156   0.3934     H
C       0.4817    0.113    0.009     C
C       0.4817    0.887    0.509     C
C       0.4821    0.142   0.9183     C
C       0.4821    0.858   0.4183     C
C       0.4874   0.1501    0.523     C
C       0.4874   0.8499    0.023     C
C       0.4888   0.3727   0.9747     C
C       0.4888   0.6273   0.4747     C
H       0.4983   0.1645    0.604     H
H       0.4983   0.8355    0.104     H
H       0.4991   0.1164   0.4509     H
H       0.4991   0.8836   0.9509     H
H       0.5009   0.1164   0.0491     H
H       0.5009   0.8836   0.5491     H
H       0.5017   0.1645    0.896     H
H       0.5017   0.8355    0.396     H
C       0.5112   0.3727   0.5253     C
C       0.5112   0.6273   0.0253     C
C       0.5126   0.1501    0.977     C
C       0.5126   0.8499    0.477     C
C       0.5179    0.142   0.5817     C
C       0.5179    0.858   0.0817     C
C       0.5183    0.113    0.491     C
C       0.5183    0.887    0.991     C
H       0.5196   0.3844   0.6066     H
H       0.5196   0.6156   0.1066     H
H        0.525   0.3371   0.4548     H
H        0.525   0.6629   0.9548     H
C       0.5394   0.3613   0.5847     C
C       0.5394   0.6387   0.0847     C
C       0.5428   0.3338   0.4949     C
C       0.5428   0.6662   0.9949     C
C       0.5495   0.4228   0.0051     C
C       0.5495   0.5772   0.5051     C
N        0.574   0.4607   0.9721     N
N        0.574   0.5393   0.4721     N
N       0.5747   0.4274   0.0626     N
N       0.5747   0.5726   0.5626     N
C       0.5748   0.1985   0.0063     C
C       0.5748   0.8015   0.5063     C
C       0.5778   0.0714   0.5207     C
C       0.5778   0.9286   0.0207     C
C       0.5779   0.1003    0.608     C
C       0.5779   0.8997    0.108     C
H       0.5849   0.4599   0.3896     H
H       0.5849   0.5401   0.8896     H
H       0.5951   0.4128    0.168     H
H       0.5951   0.5872    0.668     H
C        0.597   0.3154   0.6111     C
C        0.597   0.6846   0.1111     C
N       0.5971   0.2392   0.9727     N
N       0.5971   0.7608   0.4727     N
H       0.5978   0.0466   0.4995     H
H       0.5978   0.9534   0.9995     H
H       0.5983   0.0966   0.6481     H
H       0.5983   0.9034   0.1481     H
C        0.601   0.2907   0.5257     C
C        0.601   0.7093   0.0257     C
N       0.6036   0.2007    0.064     N
N       0.6036   0.7993    0.564     N
N        0.608   0.0648    0.578     N
N        0.608   0.9352    0.078     N
H       0.6136   0.2079   0.1654     H
H       0.6136   0.7921   0.6654     H
H       0.6147   0.3083   0.6509     H
H       0.6147   0.6917   0.1509     H
H        0.616    0.296    0.886     H
H        0.616    0.704    0.386     H
H       0.6223   0.2669   0.5051     H
H       0.6223   0.7331   0.0051     H
C       0.6274   0.4759   0.0875     C
C       0.6274   0.5241   0.5875     C
C       0.6276   0.4386   0.4109     C
C       0.6276   0.5614   0.9109     C
C        0.628   0.4928   0.5019     C
C        0.628   0.5072   0.0019     C
N       0.6286   0.2808   0.5825     N
N       0.6286   0.7192   0.0825     N
C       0.6333   0.4449   0.1846     C
C       0.6333   0.5551   0.6846     C
H       0.6382   0.3886   0.3446     H
H       0.6382   0.6114   0.8446     H
H       0.6516   0.4249    0.267     H
H       0.6516   0.5751    0.767     H
C       0.6535     0.28   0.0008     C
C       0.6535     0.72   0.5008     C
C       0.6552   0.3248    0.907     C
C       0.6552   0.6752    0.407     C
C       0.6558   0.2318   0.1832     C
N       0.6558   0.4825   0.5587     N
N       0.6558   0.5175   0.0587     N
C       0.6558   0.7682   0.6832     C
C       0.6583   0.2484   0.0874     C
C       0.6583   0.4856   0.1512     C
C       0.6583   0.5144   0.6512     C
C       0.6583   0.7516   0.5874     C
C       0.6596   0.4483   0.4695     C
C       0.6596   0.5517   0.9695     C
C       0.6606   0.3961   0.3843     C
C       0.6606   0.6039   0.8843     C
H       0.6643   0.2259   0.2637     H
H       0.6643   0.7741   0.7637     H
H       0.6652   0.3708   0.8394     H
H       0.6652   0.6292   0.3394     H
C       0.6674   0.4538   0.2442     C
C       0.6674   0.5462   0.7442     C
H       0.6789   0.1743   0.7411     H
H       0.6789   0.8257   0.2411     H
C       0.6839   0.3243   0.9663     C
C       0.6839   0.6757   0.4663     C
C       0.6859   0.3688   0.8795     C
C       0.6859   0.6312   0.3795     C
N       0.6861   0.2874   0.0584     N
N       0.6861   0.7126   0.5584     N
C       0.6871   0.2434   0.2424     C
C       0.6871   0.7566   0.7424     C
H       0.6887   0.0658   0.0152     H
H       0.6887   0.9342   0.5152     H
C         0.69   0.2576   0.1514     C
C         0.69   0.7424   0.6514     C
Ag     0.70461  0.00244  0.13244    Ag
Ag     0.70461  0.99756  0.63244    Ag
H       0.7072    0.149   0.5119     H
H       0.7072    0.851   0.0119     H
C       0.7118   0.4623   0.6774     C
C       0.7118   0.5377   0.1774     C
N       0.7206   0.4998   0.7709     N
N       0.7206   0.5002   0.2709     N
C       0.7209   0.1982   0.7601     C
C       0.7209   0.8018   0.2601     C
N        0.722   0.3654   0.4116     N
N        0.722   0.6346   0.9116     N
C       0.7228    0.415    0.499     C
C       0.7228    0.585    0.999     C
H       0.7233   0.0796   0.2458     H
H       0.7233   0.9204   0.7458     H
H       0.7241   0.1896   0.8398     H
H       0.7241   0.8104   0.3398     H
Ag     0.72629  0.20896  0.63192    Ag
Ag     0.72629  0.79104  0.13192    Ag
H       0.7277    0.432   0.6554     H
H       0.7277    0.568   0.1554     H
C       0.7289   0.0932   0.0352     C
C       0.7289   0.9068   0.5352     C
H       0.7363   0.1323   0.9633     H
H       0.7363   0.8677   0.4633     H
C       0.7412   0.4561   0.7368     C
C       0.7412   0.5439   0.2368     C
C       0.7434   0.3666   0.9965     C
C       0.7434   0.6334   0.4965     C
N       0.7438    0.409   0.9072     N
N       0.7438    0.591   0.4072     N
H        0.746   0.4201   0.5388     H
H        0.746   0.5799   0.0388     H
N       0.7464    0.277   0.2711     N
N       0.7464    0.723   0.7711     N
C        0.748   0.2073   0.8195     C
C        0.748   0.7927   0.3195     C
C       0.7493   0.1259   0.5322     C
C       0.7493   0.8741   0.0322     C
C       0.7507   0.3741   0.4678     C
C       0.7507   0.6259   0.9678     C
C        0.752   0.2927   0.1805     C
C        0.752   0.7073   0.6805     C
N       0.7536    0.223   0.7289     N
N       0.7536    0.777   0.2289     N
H        0.754   0.0799   0.4612     H
H        0.754   0.9201   0.9612     H
N       0.7562    0.091   0.0928     N
N       0.7562    0.909   0.5928     N
C       0.7566   0.1334   0.0035     C
C       0.7566   0.8666   0.5035     C
C       0.7588   0.0439   0.2632     C
C       0.7588   0.9561   0.7632     C
H       0.7637   0.3677   0.0367     H
H       0.7637   0.6323   0.5367     H
C       0.7711   0.4068   0.9648     C
C       0.7711   0.5932   0.4648     C
H       0.7723    0.068   0.3446     H
H       0.7723    0.932   0.8446     H
Ag     0.77371  0.29104  0.36808    Ag
Ag     0.77371  0.70896  0.86808    Ag
H       0.7759   0.3104   0.1602     H
H       0.7759   0.6896   0.6602     H
H       0.7767   0.4204   0.7542     H
H       0.7767   0.5796   0.2542     H
C       0.7772    0.085    0.501     C
C       0.7772    0.915    0.001     C
N        0.778   0.1346   0.5884     N
N        0.778   0.8654   0.0884     N
C       0.7791   0.3018   0.2399     C
C       0.7791   0.6982   0.7399     C
N       0.7794   0.0002   0.2291     N
N       0.7794   0.9998   0.7291     N
C       0.7882   0.0377   0.3226     C
C       0.7882   0.9623   0.8226     C
H       0.7928    0.351   0.4881     H
H       0.7928    0.649   0.9881     H
Ag     0.79539  0.49756  0.86756    Ag
Ag     0.79539  0.50244  0.36756    Ag
C         0.81   0.2424   0.8486     C
C         0.81   0.7576   0.3486     C
H       0.8113   0.4342   0.9848     H
H       0.8113   0.5658   0.4848     H
C       0.8129   0.2566   0.7576     C
C       0.8129   0.7434   0.2576     C
N       0.8139   0.2126   0.9416     N
N       0.8139   0.7874   0.4416     N
C       0.8141   0.1312   0.1205     C
C       0.8141   0.8688   0.6205     C
C       0.8161   0.1757   0.0337     C
C       0.8161   0.8243   0.5337     C
H       0.8211   0.3257   0.2589     H
H       0.8211   0.6743   0.7589     H
C       0.8326   0.0462   0.7558     C
C       0.8326   0.9538   0.2558     C
H       0.8348   0.1292   0.1606     H
H       0.8348   0.8708   0.6606     H
H       0.8357   0.2741   0.7363     H
H       0.8357   0.7259   0.2363     H
C       0.8394   0.1039   0.6157     C
C       0.8394   0.8961   0.1157     C
C       0.8404   0.0517   0.5305     C
C       0.8404   0.9483   0.0305     C
C       0.8417   0.0144   0.8488     C
C       0.8417   0.2516   0.9126     C
C       0.8417   0.7484   0.4126     C
C       0.8417   0.9856   0.3488     C
N       0.8442   0.0175   0.4413     N
C       0.8442   0.2682   0.8168     C
C       0.8442   0.7318   0.3168     C
N       0.8442   0.9825   0.9413     N
C       0.8448   0.1752    0.093     C
C       0.8448   0.8248    0.593     C
C       0.8465     0.22   0.9992     C
C       0.8465     0.78   0.4992     C
H       0.8484   0.0751    0.733     H
H       0.8484   0.9249    0.233     H
H       0.8618   0.1114   0.6554     H
H       0.8618   0.8886   0.1554     H
C       0.8667   0.0551   0.8154     C
C       0.8667   0.9449   0.3154     C
N       0.8714   0.2192   0.4175     N
N       0.8714   0.7808   0.9175     N
C        0.872   0.0072   0.4981     C
C        0.872   0.9928   0.9981     C
C       0.8724   0.0614   0.5891     C
C       0.8724   0.9386   0.0891     C
C       0.8726   0.0241   0.9125     C
C       0.8726   0.9759   0.4125     C
H       0.8777   0.2331   0.4949     H
H       0.8777   0.7669   0.9949     H
H        0.884    0.204    0.114     H
H        0.884    0.796    0.614     H
H       0.8853   0.1917   0.3491     H
H       0.8853   0.8083   0.8491     H
H       0.8864   0.2921   0.8346     H
H       0.8864   0.7079   0.3346     H
N        0.892   0.4352    0.422     N
N        0.892   0.5648    0.922     N
N       0.8964   0.2993    0.936     N
N       0.8964   0.7007    0.436     N
C        0.899   0.2093   0.4743     C
C        0.899   0.7907   0.9743     C
H       0.9017   0.4034   0.3519     H
H       0.9017   0.5966   0.8519     H
H       0.9022   0.4534   0.5005     H
H       0.9022   0.5466   0.0005     H
N       0.9029   0.2608   0.0273     N
N       0.9029   0.7392   0.5273     N
C        0.903   0.1846   0.3889     C
C        0.903   0.8154   0.8889     C
H       0.9049   0.0872    0.832     H
H       0.9049   0.9128    0.332     H
H       0.9151   0.0401   0.6104     H
H       0.9151   0.9599   0.1104     H
C       0.9221   0.3997    0.392     C
C       0.9221   0.6003    0.892     C
C       0.9222   0.4286   0.4793     C
C       0.9222   0.5714   0.9793     C
C       0.9252   0.3015   0.9937     C
C       0.9252   0.6985   0.4937     C
N       0.9253   0.0726   0.9374     N
N       0.9253   0.9274   0.4374     N
N        0.926   0.0393   0.0279     N
N        0.926   0.9607   0.5279     N
C       0.9505   0.0772   0.9949     C
C       0.9505   0.9228   0.4949     C
C       0.9572   0.1662   0.5051     C
C       0.9572   0.8338   0.0051     C
C       0.9606   0.1387   0.4153     C
C       0.9606   0.8613   0.9153     C
H        0.975   0.1629   0.5452     H
H        0.975   0.8371   0.0452     H
H       0.9804   0.1156   0.3934     H
H       0.9804   0.8844   0.8934     H
C       0.9817    0.387    0.509     C
C       0.9817    0.613    0.009     C
C       0.9821    0.358   0.4183     C
C       0.9821    0.642   0.9183     C
C       0.9874   0.3499    0.023     C
C       0.9874   0.6501    0.523     C
C       0.9888   0.1273   0.4747     C
C       0.9888   0.8727   0.9747     C
H       0.9983   0.3355    0.104     H
H       0.9983   0.6645    0.604     H
H       0.9991   0.3836   0.9509     H
H       0.9991   0.6164   0.4509     H
