data_I
_chemical_name_common  '/home/zhangsd/repos/MofS-CGCNN/ML/data/SSD/clean_cifs/QOFDIA_clean'
_cell_length_a 21.99440
_cell_length_b 16.66210
_cell_length_c 25.63630
_cell_angle_alpha 90.00000
_cell_angle_beta  115.34000
_cell_angle_gamma 90.00000
_space_group_name_H-M_alt      'P 1'


loop_
_space_group_symop_operation_xyz
  'x, y, z' 

loop_
_atom_site_label
_atom_site_fract_x
_atom_site_fract_y
_atom_site_fract_z
_atom_site_type_symbol
H       0.0008   0.3834   0.0495     H
H       0.0008   0.6166   0.5495     H
H       0.0015   0.3351    0.896     H
H       0.0015   0.6649    0.396     H
C       0.0113   0.1274   0.5252     C
C       0.0113   0.8726   0.0252     C
C       0.0127   0.3502   0.9774     C
C       0.0127   0.6498   0.4774     C
C       0.0179   0.3579   0.5817     C
C       0.0179   0.6421   0.0817     C
C       0.0181    0.387   0.4905     C
C       0.0181    0.613   0.9905     C
H       0.0191   0.1156   0.6065     H
H       0.0191   0.8844   0.1065     H
H       0.0249   0.1626   0.4546     H
H       0.0249   0.8374   0.9546     H
C       0.0393   0.1384   0.5847     C
C       0.0393   0.8616   0.0847     C
C       0.0427    0.166   0.4946     C
C       0.0427    0.834   0.9946     C
C       0.0497   0.0773   0.0051     C
C       0.0497   0.9227   0.5051     C
N       0.0741    0.039   0.9723     N
N       0.0741    0.961   0.4723     N
N       0.0748   0.0727   0.0628     N
C       0.0748   0.3014   0.0067     C
C       0.0748   0.6986   0.5067     C
N       0.0748   0.9273   0.5628     N
C       0.0777   0.3998   0.6078     C
C       0.0777   0.6002   0.1078     C
C       0.0778   0.4288   0.5209     C
C       0.0778   0.5712   0.0209     C
H       0.0852   0.0404   0.3896     H
H       0.0852   0.9596   0.8896     H
H       0.0953   0.0867   0.1685     H
H       0.0953   0.9133   0.6685     H
C       0.0969   0.1834   0.6111     C
C       0.0969   0.8166   0.1111     C
N       0.0976   0.2606   0.9732     N
N       0.0976   0.7394   0.4732     N
H       0.0979   0.4036   0.6478     H
H       0.0979   0.4538   0.4998     H
H       0.0979   0.5462   0.9998     H
H       0.0979   0.5964   0.1478     H
C       0.1009   0.2093   0.5256     C
C       0.1009   0.7907   0.0256     C
N       0.1037    0.299   0.0641     N
N       0.1037    0.701   0.5641     N
N        0.108   0.4351   0.5783     N
N        0.108   0.5649   0.0783     N
H       0.1138   0.2913   0.1654     H
H       0.1138   0.7087   0.6654     H
H        0.115   0.1897   0.6509     H
H        0.115   0.8103   0.1509     H
H       0.1164   0.2043   0.8863     H
H       0.1164   0.7957   0.3863     H
H        0.122   0.2336    0.505     H
H        0.122   0.7664    0.005     H
C       0.1277   0.0246   0.0876     C
C       0.1277   0.9754   0.5876     C
C       0.1278   0.0617   0.4109     C
C       0.1278   0.9383   0.9109     C
C       0.1279   0.0072   0.5019     C
C       0.1279   0.9928   0.0019     C
N       0.1286   0.2187   0.5825     N
N       0.1286   0.7813   0.0825     N
C       0.1335   0.0547    0.185     C
C       0.1335   0.9453    0.685     C
H       0.1383   0.1108   0.3445     H
H       0.1383   0.8892   0.8445     H
H       0.1514   0.0748   0.2668     H
H       0.1514   0.9252   0.7668     H
C       0.1537     0.22    0.001     C
C       0.1537     0.78    0.501     C
C       0.1554   0.1753   0.9073     C
C       0.1554   0.8247   0.4073     C
N        0.156   0.0175   0.5591     N
N        0.156   0.9825   0.0591     N
C       0.1562   0.2679   0.1834     C
C       0.1562   0.7321   0.6834     C
C       0.1582   0.2518   0.0877     C
C       0.1582   0.7482   0.5877     C
C       0.1585   0.0141   0.1512     C
C       0.1585   0.9859   0.6512     C
C       0.1594    0.052   0.4694     C
C       0.1594    0.948   0.9694     C
C       0.1605   0.1037   0.3843     C
C       0.1605   0.8963   0.8843     C
H       0.1641   0.2748   0.2637     H
H       0.1641   0.7252   0.7637     H
H       0.1651   0.1298   0.8391     H
H       0.1651   0.8702   0.3391     H
C       0.1673   0.0461   0.2441     C
C       0.1673   0.9539   0.7441     C
H       0.1786   0.3238   0.7408     H
H       0.1786   0.6762   0.2408     H
C       0.1839   0.1754   0.9666     C
C       0.1839   0.8246   0.4666     C
C       0.1857   0.1314   0.8793     C
C       0.1857   0.8686   0.3793     C
N       0.1862   0.2129   0.0585     N
N       0.1862   0.7871   0.5585     N
C       0.1869   0.2571   0.2425     C
C       0.1869   0.7429   0.7425     C
H       0.1886    0.434   0.0153     H
H       0.1886    0.566   0.5153     H
C       0.1903   0.2431   0.1519     C
C       0.1903   0.7569   0.6519     C
Ag     0.20465  0.49779  0.13243    Ag
Ag     0.20465  0.50221  0.63243    Ag
H       0.2062   0.3523   0.5114     H
H       0.2062   0.6477   0.0114     H
C       0.2119   0.0376   0.6777     C
C       0.2119   0.9624   0.1777     C
N       0.2207   0.0001   0.7708     N
N       0.2207   0.9999   0.2708     N
C        0.221   0.3008     0.76     C
C        0.221   0.6992     0.26     C
N       0.2219   0.1348   0.4116     N
N       0.2219   0.8652   0.9116     N
C       0.2228   0.0858   0.4988     C
C       0.2228   0.9142   0.9988     C
H       0.2236   0.4205   0.2456     H
H       0.2236   0.5795   0.7456     H
H       0.2241    0.312   0.8394     H
H       0.2241    0.688   0.3394     H
Ag     0.22622  0.29099  0.63185    Ag
Ag     0.22622  0.70901  0.13185    Ag
H        0.228    0.068   0.6559     H
H        0.228    0.932   0.1559     H
C       0.2289   0.4068   0.0353     C
C       0.2289   0.5932   0.5353     C
H        0.236   0.3674   0.9634     H
H        0.236   0.6326   0.4634     H
C        0.241   0.0436   0.7369     C
C        0.241   0.9564   0.2369     C
C       0.2434   0.1335   0.9965     C
C       0.2434   0.8665   0.4965     C
N       0.2438   0.0906   0.9072     N
N       0.2438   0.9094   0.4072     N
H       0.2455   0.0813   0.5387     H
H       0.2455   0.9187   0.0387     H
N       0.2465   0.2234   0.2712     N
N       0.2465   0.7766   0.7712     N
C       0.2476   0.2931   0.8191     C
C       0.2476   0.7069   0.3191     C
C       0.2487   0.3743   0.5317     C
C       0.2487   0.6257   0.0317     C
C       0.2513   0.1257   0.4683     C
C       0.2513   0.8743   0.9683     C
C       0.2524   0.2069   0.1809     C
C       0.2524   0.7931   0.6809     C
N       0.2535   0.2766   0.7288     N
N       0.2535   0.7234   0.2288     N
H       0.2545   0.4187   0.4613     H
H       0.2545   0.5813   0.9613     H
N       0.2562   0.4094   0.0928     N
N       0.2562   0.5906   0.5928     N
C       0.2566   0.3665   0.0035     C
C       0.2566   0.6335   0.5035     C
C        0.259   0.4564   0.2631     C
C        0.259   0.5436   0.7631     C
H        0.264   0.1326   0.0366     H
H        0.264   0.8674   0.5366     H
C       0.2711   0.0932   0.9647     C
C       0.2711   0.9068   0.4647     C
H        0.272    0.432   0.3441     H
H        0.272    0.568   0.8441     H
Ag     0.27378  0.20901  0.36815    Ag
Ag     0.27378  0.79099  0.86815    Ag
H       0.2759    0.188   0.1606     H
H       0.2759    0.812   0.6606     H
H       0.2764   0.0795   0.7544     H
H       0.2764   0.9205   0.2544     H
C       0.2772   0.4142   0.5012     C
C       0.2772   0.5858   0.0012     C
N       0.2781   0.3652   0.5884     N
N       0.2781   0.6348   0.0884     N
C        0.279   0.1992     0.24     C
C        0.279   0.8008     0.74     C
N       0.2793   0.4999   0.2292     N
N       0.2793   0.5001   0.7292     N
C       0.2881   0.4624   0.3223     C
C       0.2881   0.5376   0.8223     C
H       0.2938   0.1477   0.4886     H
H       0.2938   0.8523   0.9886     H
Ag     0.29535  0.00221  0.86757    Ag
Ag     0.29535  0.99779  0.36757    Ag
C       0.3097   0.2569   0.8481     C
C       0.3097   0.7431   0.3481     C
H       0.3114    0.066   0.9847     H
H       0.3114    0.934   0.4847     H
C       0.3131   0.2429   0.7575     C
C       0.3131   0.7571   0.2575     C
N       0.3138   0.2871   0.9415     N
N       0.3138   0.7129   0.4415     N
C       0.3143   0.3686   0.1207     C
C       0.3143   0.6314   0.6207     C
C       0.3161   0.3246   0.0334     C
C       0.3161   0.6754   0.5334     C
H       0.3214   0.1762   0.2592     H
H       0.3214   0.8238   0.7592     H
C       0.3327   0.4539   0.7559     C
C       0.3327   0.5461   0.2559     C
H       0.3349   0.3702   0.1609     H
H       0.3349   0.6298   0.6609     H
H       0.3359   0.2252   0.7363     H
H       0.3359   0.7748   0.2363     H
C       0.3395   0.3963   0.6157     C
C       0.3395   0.6037   0.1157     C
C       0.3406    0.448   0.5306     C
C       0.3406    0.552   0.0306     C
C       0.3415   0.4859   0.8488     C
C       0.3415   0.5141   0.3488     C
C       0.3418   0.2482   0.9123     C
C       0.3418   0.7518   0.4123     C
C       0.3438   0.2321   0.8166     C
C       0.3438   0.7679   0.3166     C
N        0.344   0.4825   0.4409     N
N        0.344   0.5175   0.9409     N
C       0.3446   0.3247   0.0927     C
C       0.3446   0.6753   0.5927     C
C       0.3463     0.28    0.999     C
C       0.3463     0.72    0.499     C
H       0.3486   0.4252   0.7332     H
H       0.3486   0.5748   0.2332     H
H       0.3617   0.3892   0.6555     H
H       0.3617   0.6108   0.1555     H
C       0.3665   0.4453    0.815     C
C       0.3665   0.5547    0.315     C
N       0.3714   0.2813   0.4175     N
N       0.3714   0.7187   0.9175     N
C       0.3721   0.4928   0.4981     C
C       0.3721   0.5072   0.9981     C
C       0.3722   0.4383   0.5891     C
C       0.3722   0.5617   0.0891     C
C       0.3723   0.4754   0.9124     C
C       0.3723   0.5246   0.4124     C
H        0.378   0.2664    0.495     H
H        0.378   0.7336    0.995     H
H       0.3836   0.2957   0.1137     H
H       0.3836   0.7043   0.6137     H
H        0.385   0.3103   0.3491     H
H        0.385   0.6897   0.8491     H
H       0.3862   0.2087   0.8346     H
H       0.3862   0.7913   0.3346     H
N        0.392   0.0649   0.4217     N
N        0.392   0.9351   0.9217     N
N       0.3963    0.201   0.9359     N
N       0.3963    0.799   0.4359     N
C       0.3991   0.2907   0.4744     C
C       0.3991   0.7093   0.9744     C
H       0.4021   0.0462   0.5002     H
H       0.4021   0.0964   0.3522     H
H       0.4021   0.9036   0.8522     H
H       0.4021   0.9538   0.0002     H
N       0.4024   0.2394   0.0268     N
N       0.4024   0.7606   0.5268     N
C       0.4031   0.3166   0.3889     C
C       0.4031   0.6834   0.8889     C
H       0.4047   0.4133   0.8315     H
H       0.4047   0.5867   0.3315     H
H       0.4148   0.4596   0.6104     H
H       0.4148   0.5404   0.1104     H
C       0.4222   0.0712   0.4791     C
C       0.4222   0.9288   0.9791     C
C       0.4223   0.1002   0.3922     C
C       0.4223   0.8998   0.8922     C
C       0.4252   0.1986   0.9933     C
N       0.4252   0.4273   0.9372     N
N       0.4252   0.5727   0.4372     N
C       0.4252   0.8014   0.4933     C
N       0.4259    0.461   0.0277     N
N       0.4259    0.539   0.5277     N
C       0.4503   0.4227   0.9949     C
C       0.4503   0.5773   0.4949     C
C       0.4573    0.334   0.5054     C
C       0.4573    0.666   0.0054     C
C       0.4607   0.3616   0.4153     C
C       0.4607   0.6384   0.9153     C
H       0.4751   0.3374   0.5454     H
H       0.4751   0.6626   0.0454     H
H       0.4809   0.3844   0.3935     H
H       0.4809   0.6156   0.8935     H
C       0.4819    0.113   0.5095     C
C       0.4819    0.887   0.0095     C
C       0.4821   0.1421   0.4183     C
C       0.4821   0.8579   0.9183     C
C       0.4873   0.1498   0.0226     C
C       0.4873   0.8502   0.5226     C
C       0.4887   0.3726   0.4748     C
C       0.4887   0.6274   0.9748     C
H       0.4985   0.1649    0.104     H
H       0.4985   0.8351    0.604     H
H       0.4992   0.1166   0.9505     H
H       0.4992   0.8834   0.4505     H
H       0.5008   0.1166   0.5495     H
H       0.5008   0.8834   0.0495     H
H       0.5015   0.1649    0.396     H
H       0.5015   0.8351    0.896     H
C       0.5113   0.3726   0.0252     C
C       0.5113   0.6274   0.5252     C
C       0.5127   0.1498   0.4774     C
C       0.5127   0.8502   0.9774     C
C       0.5179   0.1421   0.0817     C
C       0.5179   0.8579   0.5817     C
C       0.5181    0.113   0.9905     C
C       0.5181    0.887   0.4905     C
H       0.5191   0.3844   0.1065     H
H       0.5191   0.6156   0.6065     H
H       0.5249   0.3374   0.9546     H
H       0.5249   0.6626   0.4546     H
C       0.5393   0.3616   0.0847     C
C       0.5393   0.6384   0.5847     C
C       0.5427    0.334   0.9946     C
C       0.5427    0.666   0.4946     C
C       0.5497   0.4227   0.5051     C
C       0.5497   0.5773   0.0051     C
N       0.5741    0.461   0.4723     N
N       0.5741    0.539   0.9723     N
C       0.5748   0.1986   0.5067     C
N       0.5748   0.4273   0.5628     N
N       0.5748   0.5727   0.0628     N
C       0.5748   0.8014   0.0067     C
C       0.5777   0.1002   0.1078     C
C       0.5777   0.8998   0.6078     C
C       0.5778   0.0712   0.0209     C
C       0.5778   0.9288   0.5209     C
H       0.5852   0.4596   0.8896     H
H       0.5852   0.5404   0.3896     H
H       0.5953   0.4133   0.6685     H
H       0.5953   0.5867   0.1685     H
C       0.5969   0.3166   0.1111     C
C       0.5969   0.6834   0.6111     C
N       0.5976   0.2394   0.4732     N
N       0.5976   0.7606   0.9732     N
H       0.5979   0.0462   0.9998     H
H       0.5979   0.0964   0.1478     H
H       0.5979   0.9036   0.6478     H
H       0.5979   0.9538   0.4998     H
C       0.6009   0.2907   0.0256     C
C       0.6009   0.7093   0.5256     C
N       0.6037    0.201   0.5641     N
N       0.6037    0.799   0.0641     N
N        0.608   0.0649   0.0783     N
N        0.608   0.9351   0.5783     N
H       0.6138   0.2087   0.6654     H
H       0.6138   0.7913   0.1654     H
H        0.615   0.3103   0.1509     H
H        0.615   0.6897   0.6509     H
H       0.6164   0.2957   0.3863     H
H       0.6164   0.7043   0.8863     H
H        0.622   0.2664    0.005     H
H        0.622   0.7336    0.505     H
C       0.6277   0.4754   0.5876     C
C       0.6277   0.5246   0.0876     C
C       0.6278   0.4383   0.9109     C
C       0.6278   0.5617   0.4109     C
C       0.6279   0.4928   0.0019     C
C       0.6279   0.5072   0.5019     C
N       0.6286   0.2813   0.0825     N
N       0.6286   0.7187   0.5825     N
C       0.6335   0.4453    0.685     C
C       0.6335   0.5547    0.185     C
H       0.6383   0.3892   0.8445     H
H       0.6383   0.6108   0.3445     H
H       0.6514   0.4252   0.7668     H
H       0.6514   0.5748   0.2668     H
C       0.6537     0.28    0.501     C
C       0.6537     0.72    0.001     C
C       0.6554   0.3247   0.4073     C
C       0.6554   0.6753   0.9073     C
N        0.656   0.4825   0.0591     N
N        0.656   0.5175   0.5591     N
C       0.6562   0.2321   0.6834     C
C       0.6562   0.7679   0.1834     C
C       0.6582   0.2482   0.5877     C
C       0.6582   0.7518   0.0877     C
C       0.6585   0.4859   0.6512     C
C       0.6585   0.5141   0.1512     C
C       0.6594    0.448   0.9694     C
C       0.6594    0.552   0.4694     C
C       0.6605   0.3963   0.8843     C
C       0.6605   0.6037   0.3843     C
H       0.6641   0.2252   0.7637     H
H       0.6641   0.7748   0.2637     H
H       0.6651   0.3702   0.3391     H
H       0.6651   0.6298   0.8391     H
C       0.6673   0.4539   0.7441     C
C       0.6673   0.5461   0.2441     C
H       0.6786   0.1762   0.2408     H
H       0.6786   0.8238   0.7408     H
C       0.6839   0.3246   0.4666     C
C       0.6839   0.6754   0.9666     C
C       0.6857   0.3686   0.3793     C
C       0.6857   0.6314   0.8793     C
N       0.6862   0.2871   0.5585     N
N       0.6862   0.7129   0.0585     N
C       0.6869   0.2429   0.7425     C
C       0.6869   0.7571   0.2425     C
H       0.6886    0.066   0.5153     H
H       0.6886    0.934   0.0153     H
C       0.6903   0.2569   0.6519     C
C       0.6903   0.7431   0.1519     C
Ag     0.70465  0.00221  0.63243    Ag
Ag     0.70465  0.99779  0.13243    Ag
H       0.7062   0.1477   0.0114     H
H       0.7062   0.8523   0.5114     H
C       0.7119   0.4624   0.1777     C
C       0.7119   0.5376   0.6777     C
N       0.7207   0.4999   0.2708     N
N       0.7207   0.5001   0.7708     N
C        0.721   0.1992     0.26     C
C        0.721   0.8008     0.76     C
N       0.7219   0.3652   0.9116     N
N       0.7219   0.6348   0.4116     N
C       0.7228   0.4142   0.9988     C
C       0.7228   0.5858   0.4988     C
H       0.7236   0.0795   0.7456     H
H       0.7236   0.9205   0.2456     H
H       0.7241    0.188   0.3394     H
H       0.7241    0.812   0.8394     H
Ag     0.72622  0.20901  0.13185    Ag
Ag     0.72622  0.79099  0.63185    Ag
H        0.728    0.432   0.1559     H
H        0.728    0.568   0.6559     H
C       0.7289   0.0932   0.5353     C
C       0.7289   0.9068   0.0353     C
H        0.736   0.1326   0.4634     H
H        0.736   0.8674   0.9634     H
C        0.741   0.4564   0.2369     C
C        0.741   0.5436   0.7369     C
C       0.7434   0.3665   0.4965     C
C       0.7434   0.6335   0.9965     C
N       0.7438   0.4094   0.4072     N
N       0.7438   0.5906   0.9072     N
H       0.7455   0.4187   0.0387     H
H       0.7455   0.5813   0.5387     H
N       0.7465   0.2766   0.7712     N
N       0.7465   0.7234   0.2712     N
C       0.7476   0.2069   0.3191     C
C       0.7476   0.7931   0.8191     C
C       0.7487   0.1257   0.0317     C
C       0.7487   0.8743   0.5317     C
C       0.7513   0.3743   0.9683     C
C       0.7513   0.6257   0.4683     C
C       0.7524   0.2931   0.6809     C
C       0.7524   0.7069   0.1809     C
N       0.7535   0.2234   0.2288     N
N       0.7535   0.7766   0.7288     N
H       0.7545   0.0813   0.9613     H
H       0.7545   0.9187   0.4613     H
N       0.7562   0.0906   0.5928     N
N       0.7562   0.9094   0.0928     N
C       0.7566   0.1335   0.5035     C
C       0.7566   0.8665   0.0035     C
C        0.759   0.0436   0.7631     C
C        0.759   0.9564   0.2631     C
H        0.764   0.3674   0.5366     H
H        0.764   0.6326   0.0366     H
C       0.7711   0.4068   0.4647     C
C       0.7711   0.5932   0.9647     C
H        0.772    0.068   0.8441     H
H        0.772    0.932   0.3441     H
Ag     0.77378  0.29099  0.86815    Ag
Ag     0.77378  0.70901  0.36815    Ag
H       0.7759    0.312   0.6606     H
H       0.7759    0.688   0.1606     H
H       0.7764   0.4205   0.2544     H
H       0.7764   0.5795   0.7544     H
C       0.7772   0.0858   0.0012     C
C       0.7772   0.9142   0.5012     C
N       0.7781   0.1348   0.0884     N
N       0.7781   0.8652   0.5884     N
C        0.779   0.3008     0.74     C
C        0.779   0.6992     0.24     C
N       0.7793   0.0001   0.7292     N
N       0.7793   0.9999   0.2292     N
C       0.7881   0.0376   0.8223     C
C       0.7881   0.9624   0.3223     C
H       0.7938   0.3523   0.9886     H
H       0.7938   0.6477   0.4886     H
Ag     0.79535  0.49779  0.36757    Ag
Ag     0.79535  0.50221  0.86757    Ag
C       0.8097   0.2431   0.3481     C
C       0.8097   0.7569   0.8481     C
H       0.8114    0.434   0.4847     H
H       0.8114    0.566   0.9847     H
C       0.8131   0.2571   0.2575     C
C       0.8131   0.7429   0.7575     C
N       0.8138   0.2129   0.4415     N
N       0.8138   0.7871   0.9415     N
C       0.8143   0.1314   0.6207     C
C       0.8143   0.8686   0.1207     C
C       0.8161   0.1754   0.5334     C
C       0.8161   0.8246   0.0334     C
H       0.8214   0.3238   0.7592     H
H       0.8214   0.6762   0.2592     H
C       0.8327   0.0461   0.2559     C
C       0.8327   0.9539   0.7559     C
H       0.8349   0.1298   0.6609     H
H       0.8349   0.8702   0.1609     H
H       0.8359   0.2748   0.2363     H
H       0.8359   0.7252   0.7363     H
C       0.8395   0.1037   0.1157     C
C       0.8395   0.8963   0.6157     C
C       0.8406    0.052   0.0306     C
C       0.8406    0.948   0.5306     C
C       0.8415   0.0141   0.3488     C
C       0.8415   0.9859   0.8488     C
C       0.8418   0.2518   0.4123     C
C       0.8418   0.7482   0.9123     C
C       0.8438   0.2679   0.3166     C
C       0.8438   0.7321   0.8166     C
N        0.844   0.0175   0.9409     N
N        0.844   0.9825   0.4409     N
C       0.8446   0.1753   0.5927     C
C       0.8446   0.8247   0.0927     C
C       0.8463     0.22    0.499     C
C       0.8463     0.78    0.999     C
H       0.8486   0.0748   0.2332     H
H       0.8486   0.9252   0.7332     H
H       0.8617   0.1108   0.1555     H
H       0.8617   0.8892   0.6555     H
C       0.8665   0.0547    0.315     C
C       0.8665   0.9453    0.815     C
N       0.8714   0.2187   0.9175     N
N       0.8714   0.7813   0.4175     N
C       0.8721   0.0072   0.9981     C
C       0.8721   0.9928   0.4981     C
C       0.8722   0.0617   0.0891     C
C       0.8722   0.9383   0.5891     C
C       0.8723   0.0246   0.4124     C
C       0.8723   0.9754   0.9124     C
H        0.878   0.2336    0.995     H
H        0.878   0.7664    0.495     H
H       0.8836   0.2043   0.6137     H
H       0.8836   0.7957   0.1137     H
H        0.885   0.1897   0.8491     H
H        0.885   0.8103   0.3491     H
H       0.8862   0.2913   0.3346     H
H       0.8862   0.7087   0.8346     H
N        0.892   0.4351   0.9217     N
N        0.892   0.5649   0.4217     N
N       0.8963    0.299   0.4359     N
N       0.8963    0.701   0.9359     N
C       0.8991   0.2093   0.9744     C
C       0.8991   0.7907   0.4744     C
H       0.9021   0.4036   0.8522     H
H       0.9021   0.4538   0.0002     H
H       0.9021   0.5462   0.5002     H
H       0.9021   0.5964   0.3522     H
N       0.9024   0.2606   0.5268     N
N       0.9024   0.7394   0.0268     N
C       0.9031   0.1834   0.8889     C
C       0.9031   0.8166   0.3889     C
H       0.9047   0.0867   0.3315     H
H       0.9047   0.9133   0.8315     H
H       0.9148   0.0404   0.1104     H
H       0.9148   0.9596   0.6104     H
C       0.9222   0.4288   0.9791     C
C       0.9222   0.5712   0.4791     C
C       0.9223   0.3998   0.8922     C
C       0.9223   0.6002   0.3922     C
N       0.9252   0.0727   0.4372     N
C       0.9252   0.3014   0.4933     C
C       0.9252   0.6986   0.9933     C
N       0.9252   0.9273   0.9372     N
N       0.9259    0.039   0.5277     N
N       0.9259    0.961   0.0277     N
C       0.9503   0.0773   0.4949     C
C       0.9503   0.9227   0.9949     C
C       0.9573    0.166   0.0054     C
C       0.9573    0.834   0.5054     C
C       0.9607   0.1384   0.9153     C
C       0.9607   0.8616   0.4153     C
H       0.9751   0.1626   0.0454     H
H       0.9751   0.8374   0.5454     H
H       0.9809   0.1156   0.8935     H
H       0.9809   0.8844   0.3935     H
C       0.9819    0.387   0.0095     C
C       0.9819    0.613   0.5095     C
C       0.9821   0.3579   0.9183     C
C       0.9821   0.6421   0.4183     C
C       0.9873   0.3502   0.5226     C
C       0.9873   0.6498   0.0226     C
C       0.9887   0.1274   0.9748     C
C       0.9887   0.8726   0.4748     C
H       0.9985   0.3351    0.604     H
H       0.9985   0.6649    0.104     H
H       0.9992   0.3834   0.4505     H
H       0.9992   0.6166   0.9505     H
