data_I
_chemical_name_common  '/home/zhangsd/repos/MofS-CGCNN/ML/data/SSD/clean_cifs/QOFLAA_clean'
_cell_length_a 15.72110
_cell_length_b 15.72110
_cell_length_c 15.72110
_cell_angle_alpha 70.10620
_cell_angle_beta  71.37060
_cell_angle_gamma 109.89400
_space_group_name_H-M_alt      'P 1'


loop_
_space_group_symop_operation_xyz
  'x, y, z' 

loop_
_atom_site_label
_atom_site_fract_x
_atom_site_fract_y
_atom_site_fract_z
_atom_site_type_symbol
N       0.0048   0.0496   0.5798     N
H       0.0127   0.8944   0.3203     H
C       0.0204   0.0764   0.6492     C
O      0.02136   0.7169  0.53854     O
Cu     0.03577  0.43656  0.41483    Cu
O      0.03854   0.5599  0.74456     O
N       0.0539    0.619   0.4373     N
C       0.0563   0.4702   0.2201     C
N       0.0627   0.5088   0.0563     N
N       0.0651   0.0088   0.5539     N
N       0.0798   0.5846   0.3706     N
Cu     0.08517   0.5494  0.85139    Cu
C       0.0861   0.7764   0.4437     C
C       0.0923   0.0543   0.6682     C
Cu     0.09921   0.9506  0.46423    Cu
O      0.10423   0.4717  0.27057     O
C       0.1066   0.7254   0.3824     C
H       0.1173   0.0655   0.7118     H
C       0.1176    0.511   0.1078     C
C       0.1188    0.011   0.6066     C
N       0.1294   0.5496   0.9552     N
O      0.13253   0.8748  0.39577     O
C       0.1492   0.6696   0.2744     C
C       0.1682   0.7605   0.2775     C
H       0.1797    0.667   0.2147     H
C       0.1903   0.9702   0.5861     C
O      0.19554   0.9401  0.52136     O
H       0.2118   0.8291   0.2227     H
C       0.2225   0.5543    0.038     C
C       0.2256   0.5764    0.944     C
O      0.22943   0.6252  0.74227     O
O      0.24227   0.9717  0.63253     O
O      0.24456   0.7831  0.69554     O
H       0.2773   0.5655   0.0518     H
C       0.2799   0.7236   0.6903     C
H       0.2853   0.6056   0.8817     H
Cu     0.35139  0.93656  0.59921    Cu
H       0.3817    0.167   0.5127     H
C       0.3922   0.7746   0.6188     C
N       0.4437    0.881   0.5651     N
C        0.444   0.1696   0.4796     C
H       0.4482   0.6709   0.6173     H
N       0.4552   0.0846   0.4952     N
C        0.462   0.7395   0.5923     C
C        0.538   0.2605   0.4077     C
N       0.5448   0.9154   0.5048     N
H       0.5518   0.3291   0.3827     H
C        0.556   0.8304   0.5204     C
N       0.5563    0.119   0.4349     N
C       0.6078   0.2254   0.3812     C
H       0.6183    0.833   0.4873     H
Cu     0.64861  0.06344  0.40079    Cu
H       0.7147   0.3944   0.1183     H
C       0.7201   0.2764   0.3097     C
H       0.7227   0.4345   0.9482     H
O      0.75544   0.2169  0.30446     O
O      0.75773   0.0283  0.36747     O
O      0.77057   0.3748  0.25773     O
C       0.7744   0.4236    0.056     C
C       0.7775   0.4457    0.962     C
H       0.7882   0.1709   0.7773     H
O      0.80446   0.0599  0.47864     O
C       0.8097   0.0298   0.4139     C
H       0.8203    0.333   0.7853     H
C       0.8318   0.2395   0.7225     C
C       0.8508   0.3304   0.7256     C
O      0.86747   0.1252  0.60423     O
N       0.8706   0.4504   0.0448     N
C       0.8812    0.989   0.3934     C
C       0.8824    0.489   0.8922     C
H       0.8827   0.9345   0.2882     H
C       0.8934   0.2746   0.6176     C
O      0.89577   0.5283  0.72943     O
Cu     0.90079   0.0494  0.53577    Cu
C       0.9077   0.9457   0.3318     C
C       0.9139   0.2236   0.5563     C
Cu     0.91483   0.4506  0.14861    Cu
N       0.9202   0.4154   0.6294     N
N       0.9349   0.9912   0.4461     N
N       0.9373   0.4912   0.9437     N
C       0.9437   0.5298   0.7799     C
N       0.9461    0.381   0.5627     N
O      0.96146   0.4401  0.25544     O
Cu     0.96423  0.56344  0.58517    Cu
O      0.97864   0.2831  0.46146     O
C       0.9796   0.9236   0.3508     C
H       0.9873   0.1056   0.6797     H
N       0.9952   0.9504   0.4202     N
