data_I
_chemical_name_common  '/home/zhangsd/repos/MofS-CGCNN/ML/data/SSD/clean_cifs/QOPPOC_clean'
_cell_length_a 11.16070
_cell_length_b 11.16070
_cell_length_c 21.97800
_cell_angle_alpha 90.00000
_cell_angle_beta  90.00000
_cell_angle_gamma 90.00000
_space_group_name_H-M_alt      'P 1'


loop_
_space_group_symop_operation_xyz
  'x, y, z' 

loop_
_atom_site_label
_atom_site_fract_x
_atom_site_fract_y
_atom_site_fract_z
_atom_site_type_symbol
Cu         0.0      0.0  0.11118    Cu
Cu         0.0      0.0      0.5    Cu
Cu         0.0      0.0  0.88882    Cu
Cu         0.0      0.5  0.13882    Cu
Cu         0.0      0.5  0.36118    Cu
Cu         0.0      0.5     0.75    Cu
H       0.0532   0.2179   0.4306     H
H       0.0532   0.2821   0.8194     H
N       0.0851   0.1106    0.167     N
N       0.0851   0.3894    0.083     N
N       0.0927   0.1121  0.93797     N
N       0.0927   0.3879  0.31203     N
O       0.0929   0.6454  0.76015     O
O       0.0929   0.8546  0.48985     O
N       0.1106   0.5851    0.417     N
N       0.1106   0.9149    0.833     N
N       0.1121   0.5927  0.18797     N
N       0.1121   0.9073  0.06203     N
N       0.1255   0.2421   0.4407     N
N       0.1255   0.2579   0.8093     N
C       0.1329   0.1628   0.2051     C
C       0.1329   0.3372   0.0449     C
C       0.1377   0.1847  0.96696     C
C       0.1377   0.3153  0.28304     C
O       0.1454   0.0929  0.51015     O
O       0.1454   0.4071  0.73985     O
H       0.1571   0.1949   0.8274     H
H       0.1571   0.3051   0.4226     H
C       0.1628   0.6329   0.4551     C
C       0.1628   0.8671   0.7949     C
C       0.1837   0.6872   0.7331     C
C       0.1837   0.8128   0.5169     C
C       0.1847   0.6377  0.21696     C
C       0.1847   0.8623  0.03304     C
C       0.1872   0.1837   0.4831     C
C       0.1872   0.3163   0.7669     C
H       0.1949   0.6571   0.0774     H
H       0.1949   0.8429   0.1726     H
C       0.1952   0.2235    0.251     C
C       0.1952   0.2765    0.999     C
H       0.2179   0.5532   0.6806     H
H       0.2179   0.9468   0.5694     H
C       0.2235   0.6952    0.501     C
C       0.2235   0.8048    0.749     C
N       0.2421   0.6255   0.6907     N
N       0.2421   0.8745   0.5593     N
N       0.2579   0.6255   0.0593     N
N       0.2579   0.8745   0.1907     N
C       0.2765   0.6952    0.249     C
C       0.2765   0.8048    0.001     C
H       0.2821   0.5532   0.0694     H
H       0.2821   0.9468   0.1806     H
C       0.3048   0.2235    0.499     C
C       0.3048   0.2765    0.751     C
H       0.3051   0.6571   0.6726     H
H       0.3051   0.8429   0.5774     H
C       0.3128   0.1837   0.2669     C
C       0.3128   0.3163   0.9831     C
C       0.3153   0.6377  0.53304     C
C       0.3153   0.8623  0.71696     C
C       0.3163   0.6872   0.0169     C
C       0.3163   0.8128   0.2331     C
C       0.3372   0.6329   0.2949     C
C       0.3372   0.8671   0.9551     C
H       0.3429   0.1949   0.9226     H
H       0.3429   0.3051   0.3274     H
O       0.3546   0.0929  0.23985     O
O       0.3546   0.4071  0.01015     O
C       0.3623   0.1847  0.78304     C
C       0.3623   0.3153  0.46696     C
C       0.3671   0.1628   0.5449     C
C       0.3671   0.3372   0.7051     C
N       0.3745   0.2421   0.3093     N
N       0.3745   0.2579   0.9407     N
N       0.3879   0.5927  0.56203     N
N       0.3879   0.9073  0.68797     N
N       0.3894   0.5851    0.333     N
N       0.3894   0.9149    0.917     N
O       0.4071   0.6454  0.98985     O
O       0.4071   0.8546  0.26015     O
N       0.4073   0.1121  0.81203     N
N       0.4073   0.3879  0.43797     N
N       0.4149   0.1106    0.583     N
N       0.4149   0.3894    0.667     N
H       0.4468   0.2179   0.3194     H
H       0.4468   0.2821   0.9306     H
Cu         0.5      0.0     0.25    Cu
Cu         0.5      0.0  0.63882    Cu
Cu         0.5      0.0  0.86118    Cu
Cu         0.5      0.5      0.0    Cu
Cu         0.5      0.5  0.38882    Cu
Cu         0.5      0.5  0.61118    Cu
H       0.5532   0.7179   0.9306     H
H       0.5532   0.7821   0.3194     H
N       0.5851   0.6106    0.667     N
N       0.5851   0.8894    0.583     N
N       0.5927   0.6121  0.43797     N
N       0.5927   0.8879  0.81203     N
O       0.5929   0.1454  0.26015     O
O       0.5929   0.3546  0.98985     O
N       0.6106   0.0851    0.917     N
N       0.6106   0.4149    0.333     N
N       0.6121   0.0927  0.68797     N
N       0.6121   0.4073  0.56203     N
N       0.6255   0.7421   0.9407     N
N       0.6255   0.7579   0.3093     N
C       0.6329   0.6628   0.7051     C
C       0.6329   0.8372   0.5449     C
C       0.6377   0.6847  0.46696     C
C       0.6377   0.8153  0.78304     C
O       0.6454   0.5929  0.01015     O
O       0.6454   0.9071  0.23985     O
H       0.6571   0.6949   0.3274     H
H       0.6571   0.8051   0.9226     H
C       0.6628   0.1329   0.9551     C
C       0.6628   0.3671   0.2949     C
C       0.6837   0.1872   0.2331     C
C       0.6837   0.3128   0.0169     C
C       0.6847   0.1377  0.71696     C
C       0.6847   0.3623  0.53304     C
C       0.6872   0.6837   0.9831     C
C       0.6872   0.8163   0.2669     C
H       0.6949   0.1571   0.5774     H
H       0.6949   0.3429   0.6726     H
C       0.6952   0.7235    0.751     C
C       0.6952   0.7765    0.499     C
H       0.7179   0.0532   0.1806     H
H       0.7179   0.4468   0.0694     H
C       0.7235   0.1952    0.001     C
C       0.7235   0.3048    0.249     C
N       0.7421   0.1255   0.1907     N
N       0.7421   0.3745   0.0593     N
N       0.7579   0.1255   0.5593     N
N       0.7579   0.3745   0.6907     N
C       0.7765   0.1952    0.749     C
C       0.7765   0.3048    0.501     C
H       0.7821   0.0532   0.5694     H
H       0.7821   0.4468   0.6806     H
C       0.8048   0.7235    0.999     C
C       0.8048   0.7765    0.251     C
H       0.8051   0.1571   0.1726     H
H       0.8051   0.3429   0.0774     H
C       0.8128   0.6837   0.7669     C
C       0.8128   0.8163   0.4831     C
C       0.8153   0.1377  0.03304     C
C       0.8153   0.3623  0.21696     C
C       0.8163   0.1872   0.5169     C
C       0.8163   0.3128   0.7331     C
C       0.8372   0.1329   0.7949     C
C       0.8372   0.3671   0.4551     C
H       0.8429   0.6949   0.4226     H
H       0.8429   0.8051   0.8274     H
O       0.8546   0.5929  0.73985     O
O       0.8546   0.9071  0.51015     O
C       0.8623   0.6847  0.28304     C
C       0.8623   0.8153  0.96696     C
C       0.8671   0.6628   0.0449     C
C       0.8671   0.8372   0.2051     C
N       0.8745   0.7421   0.8093     N
N       0.8745   0.7579   0.4407     N
N       0.8879   0.0927  0.06203     N
N       0.8879   0.4073  0.18797     N
N       0.8894   0.0851    0.833     N
N       0.8894   0.4149    0.417     N
O       0.9071   0.1454  0.48985     O
O       0.9071   0.3546  0.76015     O
N       0.9073   0.6121  0.31203     N
N       0.9073   0.8879  0.93797     N
N       0.9149   0.6106    0.083     N
N       0.9149   0.8894    0.167     N
H       0.9468   0.7179   0.8194     H
H       0.9468   0.7821   0.4306     H
