data_I
_chemical_name_common  '/home/zhangsd/repos/MofS-CGCNN/ML/data/SSD/clean_cifs/QOQWOK01_clean'
_cell_length_a  9.84570
_cell_length_b 19.49370
_cell_length_c 16.74550
_cell_angle_alpha 90.00000
_cell_angle_beta  94.34800
_cell_angle_gamma 90.00000
_space_group_name_H-M_alt      'P 1'


loop_
_space_group_symop_operation_xyz
  'x, y, z' 

loop_
_atom_site_label
_atom_site_fract_x
_atom_site_fract_y
_atom_site_fract_z
_atom_site_type_symbol
Mn         0.0      0.0      0.5    Mn
Mn         0.0      0.5      0.0    Mn
H       0.0078   0.6172   0.8366     H
H       0.0078   0.8828   0.3366     H
C       0.0174   0.1726   0.3236     C
C       0.0174   0.3274   0.8236     C
H       0.0422   0.2085   0.7482     H
H       0.0422   0.2915   0.2482     H
C       0.0428   0.1194   0.3771     C
C       0.0428   0.3806   0.8771     C
C       0.0471   0.7017   0.7724     C
C       0.0471   0.7983   0.2724     C
N       0.0546   0.5866   0.0878     N
N       0.0546   0.9134   0.5878     N
C       0.0769   0.6466   0.8233     C
C       0.0769   0.8534   0.3233     C
H       0.0894   0.1935   0.3002     H
H       0.0894   0.3065   0.8002     H
C       0.1141   0.6951   0.1954     C
C       0.1141   0.8049   0.6954     C
H       0.1327    0.106   0.3891     H
H       0.1327    0.394   0.8891     H
O       0.1441  0.07255   0.5582     O
O       0.1441  0.42745   0.0582     O
C       0.1465   0.7466   0.7517     C
C       0.1465   0.7534   0.2517     C
O       0.1502  0.53341  0.91974     O
O       0.1502  0.96659  0.41974     O
C       0.1813   0.6078   0.1055     C
C       0.1813   0.8922   0.6055     C
H       0.2056   0.2068   0.5779     H
H       0.2056   0.2932   0.0779     H
C        0.209   0.6356   0.8541     C
C        0.209   0.8644   0.3541     C
C       0.2139   0.6612   0.1571     C
C       0.2139   0.8388   0.6571     C
C       0.2438   0.5746   0.9079     C
C       0.2438   0.9254   0.4079     C
H       0.2515   0.5855   0.0819     H
H       0.2515   0.9145   0.5819     H
C       0.2556    0.199   0.6264     C
C       0.2556    0.301   0.1264     C
H       0.2609   0.2023   0.1611     H
H       0.2609   0.2977   0.6611     H
C       0.2621   0.0733   0.5913     C
C       0.2621   0.4267   0.0913     C
C       0.2768   0.7367   0.7858     C
C       0.2768   0.7633   0.2858     C
C       0.2869   0.2464    0.177     C
C       0.2869   0.2536    0.677     C
C       0.2968   0.1333   0.6462     C
C       0.2968   0.3667   0.1462     C
H       0.3043   0.6747   0.1663     H
H       0.3043   0.8253   0.6663     H
C       0.3077   0.6817   0.8363     C
C       0.3077   0.8183   0.3363     C
H       0.3451   0.7325   0.2747     H
H       0.3451   0.7675   0.7747     H
O       0.3523  0.02906  0.58453     O
O       0.3523  0.47094  0.08453     O
C       0.3563   0.2438   0.7511     C
C       0.3563   0.2562   0.2511     C
O       0.3646  0.57037  0.93503     O
O       0.3646  0.92963  0.43503     O
C       0.3702   0.1234   0.7193     C
C       0.3702   0.3766   0.2193     C
C       0.3862   0.1984   0.3076     C
C       0.3862   0.3016   0.8076     C
H       0.3874   0.1219   0.2269     H
H       0.3874   0.3781   0.7269     H
H       0.3954   0.2479   0.9111     H
H       0.3954   0.2521   0.4111     H
H       0.3965   0.6758   0.8583     H
H       0.3965   0.8242   0.3583     H
C       0.3966   0.1769   0.7716     C
C       0.3966   0.3231   0.2716     C
C       0.3984   0.1316   0.2813     C
C       0.3984   0.3684   0.7813     C
H       0.4022   0.0797   0.7331     H
H       0.4022   0.4203   0.2331     H
C       0.4038   0.2084   0.3898     C
C       0.4038   0.2916   0.8898     C
C       0.4267   0.0794   0.3354     C
C       0.4267   0.4206   0.8354     C
H       0.4333   0.0349   0.3159     H
H       0.4333   0.4651   0.8159     H
C       0.4338   0.1532   0.4398     C
C       0.4338   0.3468   0.9398     C
H       0.4419   0.1685   0.8214     H
H       0.4419   0.3315   0.3214     H
N        0.445  0.08905   0.4142     N
N        0.445  0.41095   0.9142     N
H        0.447   0.1614   0.4945     H
H        0.447   0.3386   0.9945     H
Mn         0.5      0.0      0.5    Mn
Mn         0.5      0.5      0.0    Mn
H        0.553   0.6614   0.0055     H
H        0.553   0.8386   0.5055     H
N        0.555  0.58905   0.0858     N
N        0.555  0.91095   0.5858     N
H       0.5581   0.6685   0.6786     H
H       0.5581   0.8315   0.1786     H
C       0.5662   0.6532   0.0602     C
C       0.5662   0.8468   0.5602     C
H       0.5667   0.5349   0.1841     H
H       0.5667   0.9651   0.6841     H
C       0.5733   0.5794   0.1646     C
C       0.5733   0.9206   0.6646     C
C       0.5962   0.7084   0.1102     C
C       0.5962   0.7916   0.6102     C
H       0.5978   0.5797   0.7669     H
H       0.5978   0.9203   0.2669     H
C       0.6016   0.6316   0.2187     C
C       0.6016   0.8684   0.7187     C
C       0.6034   0.6769   0.7284     C
C       0.6034   0.8231   0.2284     C
H       0.6035   0.1758   0.6417     H
H       0.6035   0.3242   0.1417     H
H       0.6046   0.7479   0.5889     H
H       0.6046   0.7521   0.0889     H
H       0.6126   0.6219   0.2731     H
H       0.6126   0.8781   0.7731     H
C       0.6138   0.6984   0.1924     C
C       0.6138   0.8016   0.6924     C
C       0.6298   0.6234   0.7807     C
C       0.6298   0.8766   0.2807     C
O       0.6354  0.07037  0.56497     O
O       0.6354  0.42963  0.06497     O
C       0.6437   0.7438   0.7489     C
C       0.6437   0.7562   0.2489     C
O       0.6477  0.52906  0.91547     O
O       0.6477  0.97094  0.41547     O
H       0.6549   0.2325   0.2253     H
H       0.6549   0.2675   0.7253     H
C       0.6923   0.1817   0.6637     C
C       0.6923   0.3183   0.1637     C
H       0.6957   0.1747   0.3337     H
H       0.6957   0.3253   0.8337     H
C       0.7032   0.6333   0.8538     C
C       0.7032   0.8667   0.3538     C
C       0.7131   0.7464    0.323     C
C       0.7131   0.7536    0.823     C
C       0.7232   0.2367   0.7142     C
C       0.7232   0.2633   0.2142     C
C       0.7379   0.5733   0.9087     C
C       0.7379   0.9267   0.4087     C
H       0.7391   0.7023   0.3389     H
H       0.7391   0.7977   0.8389     H
C       0.7444    0.699   0.8736     C
C       0.7444    0.801   0.3736     C
H       0.7485   0.0855   0.4181     H
H       0.7485   0.4145   0.9181     H
C       0.7562   0.0746   0.5921     C
C       0.7562   0.4254   0.0921     C
C       0.7861   0.1612   0.3429     C
C       0.7861   0.3388   0.8429     C
C        0.791   0.1356   0.6459     C
C        0.791   0.3644   0.1459     C
H       0.7944   0.7068   0.9221     H
H       0.7944   0.7932   0.4221     H
C       0.8187   0.1078   0.3945     C
C       0.8187   0.3922   0.8945     C
O       0.8498  0.03341  0.58026     O
O       0.8498  0.46659  0.08026     O
C       0.8535   0.2466   0.7483     C
C       0.8535   0.2534   0.2483     C
O       0.8559  0.57255   0.9418     O
O       0.8559  0.92745   0.4418     O
H       0.8673    0.606   0.1109     H
H       0.8673    0.894   0.6109     H
C       0.8859   0.1951   0.3046     C
C       0.8859   0.3049   0.8046     C
H       0.9106   0.6935   0.1998     H
H       0.9106   0.8065   0.6998     H
C       0.9231   0.1466   0.6767     C
C       0.9231   0.3534   0.1767     C
N       0.9454   0.0866   0.4122     N
N       0.9454   0.4134   0.9122     N
C       0.9529   0.2017   0.7276     C
C       0.9529   0.2983   0.2276     C
C       0.9572   0.6194   0.1229     C
C       0.9572   0.8806   0.6229     C
H       0.9578   0.7085   0.7518     H
H       0.9578   0.7915   0.2518     H
C       0.9826   0.6726   0.1764     C
C       0.9826   0.8274   0.6764     C
H       0.9922   0.1172   0.6634     H
H       0.9922   0.3828   0.1634     H
