data_I
_chemical_name_common  '/home/zhangsd/repos/MofS-CGCNN/ML/data/SSD/clean_cifs/QOQWOK_clean'
_cell_length_a  9.78210
_cell_length_b 19.91600
_cell_length_c 16.10470
_cell_angle_alpha 90.00000
_cell_angle_beta  93.58100
_cell_angle_gamma 90.00000
_space_group_name_H-M_alt      'P 1'


loop_
_space_group_symop_operation_xyz
  'x, y, z' 

loop_
_atom_site_label
_atom_site_fract_x
_atom_site_fract_y
_atom_site_fract_z
_atom_site_type_symbol
Mn         0.0      0.0      0.5    Mn
Mn         0.0      0.5      0.0    Mn
H       0.0065   0.6122   0.8274     H
H       0.0065   0.8878   0.3274     H
C       0.0211    0.175   0.3268     C
C       0.0211    0.325   0.8268     C
C       0.0446   0.1217   0.3792     C
C       0.0446   0.3783   0.8792     C
C       0.0447   0.6975   0.7662     C
C       0.0447   0.8025   0.2662     C
H       0.0459   0.2025   0.7579     H
H       0.0459   0.2975   0.2579     H
N       0.0526   0.5875   0.0857     N
N       0.0526   0.9125   0.5857     N
C       0.0761   0.6436   0.8165     C
C       0.0761   0.8564   0.3165     C
H       0.0957   0.1975   0.3041     H
H       0.0957   0.3025   0.8041     H
C       0.1127   0.6961   0.1932     C
C       0.1127   0.8039   0.6932     C
H       0.1368   0.1083   0.3913     H
H       0.1368   0.3917   0.8913     H
C        0.145   0.7459   0.7497     C
C        0.145   0.7541   0.2497     C
O       0.1452   0.0694   0.5622     O
O       0.1452   0.4306   0.0622     O
O       0.1501   0.5301   0.9126     O
O       0.1501   0.9699   0.4126     O
C       0.1802   0.6078   0.1045     C
C       0.1802   0.8922   0.6045     C
H       0.1974   0.1997   0.5789     H
H       0.1974   0.3003   0.0789     H
C       0.2073   0.6339   0.8517     C
C       0.2073   0.8661   0.3517     C
C       0.2139    0.661   0.1564     C
C       0.2139    0.839   0.6564     C
C       0.2425    0.572   0.9039     C
C       0.2425    0.928   0.4039     C
H       0.2525   0.5842   0.0808     H
H       0.2525   0.9158   0.5808     H
C       0.2528   0.1937    0.629     C
C       0.2528   0.3063    0.129     C
H        0.259    0.208   0.1598     H
H        0.259    0.292   0.6598     H
C       0.2628     0.07   0.5969     C
C       0.2628     0.43   0.0969     C
C       0.2747   0.7375   0.7883     C
C       0.2747   0.7625   0.2883     C
C       0.2863   0.2484   0.6782     C
C       0.2863   0.2516   0.1782     C
C        0.299   0.1295   0.6514     C
C        0.299   0.3705   0.1514     C
C       0.3056   0.6822   0.8393     C
C       0.3056   0.8178   0.3393     C
H       0.3071   0.6736   0.1667     H
H       0.3071   0.8264   0.6667     H
H       0.3436     0.73     0.28     H
H       0.3436     0.77     0.78     H
O       0.3544   0.0255   0.5913     O
O       0.3544   0.4745   0.0913     O
C       0.3598   0.2409   0.7546     C
C       0.3598   0.2591   0.2546     C
O       0.3647   0.5681   0.9322     O
O       0.3647   0.9319   0.4322     O
C       0.3778   0.1227   0.7254     C
C       0.3778   0.3773   0.2254     C
H       0.3818   0.1269   0.2212     H
H       0.3818   0.3731   0.7212     H
C       0.3883   0.2005   0.3097     C
C       0.3883   0.2995   0.8097     C
H       0.3948   0.6777   0.8656     H
H       0.3948   0.8223   0.3656     H
C       0.3958   0.1351   0.2792     C
C       0.3958   0.3649   0.7792     C
C       0.4042   0.1772    0.777     C
C       0.4042   0.3228    0.277     C
H       0.4089   0.2492    0.921     H
H       0.4089   0.2508    0.421     H
C       0.4124   0.2076   0.3962     C
C       0.4124   0.2924   0.8962     C
H       0.4142     0.08    0.741     H
H       0.4142     0.42    0.241     H
C       0.4233   0.0822   0.3329     C
C       0.4233   0.4178   0.8329     C
H       0.4264   0.0382   0.3104     H
H       0.4264   0.4618   0.8104     H
C       0.4411   0.1522   0.4452     C
C       0.4411   0.3478   0.9452     C
N       0.4459   0.0897   0.4155     N
N       0.4459   0.4103   0.9155     N
H        0.454   0.1707   0.8289     H
H        0.454   0.3293   0.3289     H
H       0.4585   0.1587   0.5033     H
H       0.4585   0.3413   0.0033     H
Mn         0.5      0.0      0.5    Mn
Mn         0.5      0.5      0.0    Mn
H       0.5415   0.6587   0.9967     H
H       0.5415   0.8413   0.4967     H
H        0.546   0.6707   0.6711     H
H        0.546   0.8293   0.1711     H
N       0.5541   0.5897   0.0845     N
N       0.5541   0.9103   0.5845     N
C       0.5589   0.6522   0.0548     C
C       0.5589   0.8478   0.5548     C
H       0.5736   0.5382   0.1896     H
H       0.5736   0.9618   0.6896     H
C       0.5767   0.5822   0.1671     C
C       0.5767   0.9178   0.6671     C
H       0.5858     0.58    0.759     H
H       0.5858     0.92    0.259     H
C       0.5876   0.7076   0.1038     C
C       0.5876   0.7924   0.6038     C
H       0.5911   0.7492    0.579     H
H       0.5911   0.7508    0.079     H
C       0.5958   0.6772    0.723     C
C       0.5958   0.8228    0.223     C
C       0.6042   0.6351   0.2208     C
C       0.6042   0.8649   0.7208     C
H       0.6052   0.1777   0.6344     H
H       0.6052   0.3223   0.1344     H
C       0.6117   0.7005   0.1903     C
C       0.6117   0.7995   0.6903     C
H       0.6182   0.6269   0.2788     H
H       0.6182   0.8731   0.7788     H
C       0.6222   0.6227   0.7746     C
C       0.6222   0.8773   0.2746     C
O       0.6353   0.0681   0.5678     O
O       0.6353   0.4319   0.0678     O
C       0.6402   0.7409   0.7454     C
C       0.6402   0.7591   0.2454     C
O       0.6456   0.5255   0.9087     O
O       0.6456   0.9745   0.4087     O
H       0.6564     0.23     0.22     H
H       0.6564     0.27     0.72     H
H       0.6929   0.1736   0.3333     H
H       0.6929   0.3264   0.8333     H
C       0.6944   0.1822   0.6607     C
C       0.6944   0.3178   0.1607     C
C        0.701   0.6295   0.8486     C
C        0.701   0.8705   0.3486     C
C       0.7137   0.7484   0.8218     C
C       0.7137   0.7516   0.3218     C
C       0.7253   0.2375   0.7117     C
C       0.7253   0.2625   0.2117     C
C       0.7372     0.57   0.9031     C
C       0.7372     0.93   0.4031     C
H        0.741    0.708   0.3402     H
H        0.741    0.792   0.8402     H
C       0.7472   0.6937    0.871     C
C       0.7472   0.8063    0.371     C
H       0.7475   0.0842   0.4192     H
H       0.7475   0.4158   0.9192     H
C       0.7575    0.072   0.5961     C
C       0.7575    0.428   0.0961     C
C       0.7861    0.161   0.3436     C
C       0.7861    0.339   0.8436     C
C       0.7927   0.1339   0.6483     C
C       0.7927   0.3661   0.1483     C
H       0.8026   0.6997   0.9211     H
H       0.8026   0.8003   0.4211     H
C       0.8198   0.1078   0.3955     C
C       0.8198   0.3922   0.8955     C
O       0.8499   0.0301   0.5874     O
O       0.8499   0.4699   0.0874     O
O       0.8548   0.5694   0.9378     O
O       0.8548   0.9306   0.4378     O
C        0.855   0.2459   0.7503     C
C        0.855   0.2541   0.2503     C
H       0.8632   0.6083   0.1087     H
H       0.8632   0.8917   0.6087     H
C       0.8873   0.1961   0.3068     C
C       0.8873   0.3039   0.8068     C
H       0.9043   0.6975   0.1959     H
H       0.9043   0.8025   0.6959     H
C       0.9239   0.1436   0.6835     C
C       0.9239   0.3564   0.1835     C
N       0.9474   0.0875   0.4143     N
N       0.9474   0.4125   0.9143     N
H       0.9541   0.7025   0.7421     H
H       0.9541   0.7975   0.2421     H
C       0.9553   0.1975   0.7338     C
C       0.9553   0.3025   0.2338     C
C       0.9554   0.6217   0.1208     C
C       0.9554   0.8783   0.6208     C
C       0.9789    0.675   0.1732     C
C       0.9789    0.825   0.6732     C
H       0.9935   0.1122   0.6726     H
H       0.9935   0.3878   0.1726     H
