data_I
_chemical_name_common  '/home/zhangsd/repos/MofS-CGCNN/ML/data/SSD/clean_cifs/QOVSUR_clean'
_cell_length_a 19.56390
_cell_length_b 19.56390
_cell_length_c 26.87320
_cell_angle_alpha 90.00000
_cell_angle_beta  90.00000
_cell_angle_gamma 120.00000
_space_group_name_H-M_alt      'P 1'


loop_
_space_group_symop_operation_xyz
  'x, y, z' 

loop_
_atom_site_label
_atom_site_fract_x
_atom_site_fract_y
_atom_site_fract_z
_atom_site_type_symbol
H       0.0004   0.0744    0.428     H
C       0.0004   0.0749  0.39157     C
C       0.0004   0.9255  0.10843     C
H       0.0004    0.926    0.072     H
C       0.0005   0.0747  0.62566     C
H       0.0005   0.0777   0.6617     H
H       0.0005   0.9228   0.8383     H
C       0.0005   0.9258  0.87434     C
H       0.0007   0.1209   0.6125     H
H       0.0007   0.8798   0.8875     H
C       0.0019     0.15  0.37529     C
C       0.0019   0.8519  0.12471     C
C       0.0032   0.2412   0.2004     C
C       0.0032    0.762   0.2996     C
H       0.0056   0.4586    0.349     H
H       0.0056    0.547    0.151     H
Cd     0.01014  0.28993  0.86144    Cd
Cd     0.01014  0.72021  0.63856    Cd
C       0.0113    0.232   0.7487     C
C       0.0113   0.7793   0.7513     C
H       0.0154   0.2236   0.6728     H
H       0.0154   0.7918   0.8272     H
N       0.0303   0.2944  0.27921     N
N       0.0303   0.7359  0.22079     N
H       0.0394   0.3887   0.9741     H
H       0.0394   0.6507   0.5259     H
H       0.0418   0.2114    0.761     H
H       0.0418   0.8304    0.739     H
C       0.0459    0.347  0.24649     C
C       0.0459   0.6989  0.25351     C
C       0.0483   0.4661   0.3683     C
C       0.0483   0.5822   0.1317     C
H       0.0494   0.3949   0.2545     H
H       0.0494   0.6545   0.2455     H
N       0.0567   0.3304  0.20088     N
N       0.0567   0.7263  0.29912     N
C       0.0576   0.3535   0.9788     C
C       0.0576   0.7041   0.5212     C
O      0.05852  0.20255  0.85486     O
O      0.05852  0.85597  0.64514     O
N       0.0593   0.3072  0.94402     N
N       0.0593   0.7521  0.55598     N
O      0.06296  0.21591  0.38453     O
O      0.06296  0.84705  0.11547     O
N       0.0646   0.4098  0.37846     N
N       0.0646   0.6548  0.12154     N
H       0.0719   0.2898   0.1122     H
H       0.0719   0.7821   0.3878     H
C       0.0732   0.3749  0.15621     C
C       0.0732   0.6983  0.34379     C
H        0.074   0.0744    0.072     H
H        0.074   0.9996    0.428     H
C       0.0742   0.0747  0.87434     C
C       0.0742   0.9995  0.62566     C
H       0.0744   0.0004    0.928     H
H       0.0744    0.074    0.572     H
C       0.0745   0.0749  0.10843     C
C       0.0745   0.2615   0.2596     C
C       0.0745    0.813   0.2404     C
C       0.0745   0.9996  0.39157     C
C       0.0747   0.0005  0.12566     C
C       0.0747   0.0742  0.37434     C
C       0.0749   0.0004  0.89157     C
C       0.0749   0.0745  0.60843     C
C       0.0769   0.3396  0.11224     C
C       0.0769   0.7373  0.38776     C
H       0.0772   0.0777   0.8383     H
H       0.0772   0.9995   0.6617     H
H       0.0777   0.0005   0.1617     H
H       0.0777   0.0772   0.3383     H
H       0.0796   0.4726   0.1864     H
H       0.0796    0.607   0.3136     H
C       0.0819   0.4496  0.15666     C
C       0.0819   0.6323  0.34334     C
N        0.086   0.3431  0.02248     N
N        0.086   0.7429  0.47752     N
C       0.0885   0.3817   0.0684     C
C       0.0885   0.7068   0.4316     C
H       0.0897   0.2304   0.2773     H
H       0.0897   0.8593   0.2227     H
C       0.0906   0.2658  0.96703     C
C       0.0906   0.8248  0.53297     C
C       0.0912    0.282   0.2117     C
C       0.0912   0.8092   0.2883     C
C       0.0941   0.4892  0.11247     C
C       0.0941   0.6049  0.38753     C
C       0.0979   0.4561   0.0676     C
C       0.0979   0.6418   0.4324     C
H        0.099   0.2283   0.9513     H
H        0.099   0.8707   0.5487     H
N       0.0998   0.5346  0.38858     N
N       0.0998   0.5652  0.11142     N
H       0.1066   0.4835   0.0379     H
H       0.1066   0.6231   0.4621     H
C       0.1075   0.2866  0.01495     C
C       0.1075   0.8209  0.48505     C
H       0.1191    0.268   0.1899     H
H       0.1191   0.8511   0.3101     H
H       0.1202   0.1209   0.8875     H
H       0.1202   0.9993   0.6125     H
H       0.1209   0.0007   0.1125     H
H       0.1209   0.1202   0.3875     H
C       0.1246   0.4416    0.411     C
C       0.1246    0.683    0.089     C
H       0.1289   0.2671    0.038     H
H       0.1289   0.8618    0.462     H
H       0.1293   0.2283   0.5487     H
H       0.1293    0.901   0.9513     H
N       0.1302    0.388   0.8368     N
N       0.1302   0.7422   0.6632     N
H       0.1333   0.4889   0.8482     H
H       0.1333   0.6444   0.6518     H
H       0.1382   0.2671    0.462     H
H       0.1382   0.8711    0.038     H
H       0.1407   0.2304   0.2227     H
H       0.1407   0.9103   0.2773     H
H       0.1436   0.3278   0.6866     H
H       0.1436   0.8158   0.8134     H
O      0.14403  0.20255  0.64514     O
O      0.14403  0.94148  0.85486     O
H       0.1468   0.4146   0.4262     H
H       0.1468   0.7322   0.0738     H
C       0.1481     0.15  0.12471     C
C       0.1481   0.9981  0.37529     C
C       0.1484   0.5193   0.4186     C
C       0.1484   0.6291   0.0814     C
H       0.1489    0.268   0.3101     H
H       0.1489   0.8809   0.1899     H
C         0.15   0.0019  0.87529     C
C         0.15   0.1481  0.62471     C
O      0.15295  0.21591  0.11547     O
O      0.15295  0.93704  0.38453     O
H       0.1586   0.4572   0.7111     H
H       0.1586   0.7014   0.7889     H
C        0.161   0.4642    0.838     C
C        0.161   0.6968    0.662     C
H       0.1696   0.2114    0.739     H
H       0.1696   0.9582    0.761     H
C       0.1752   0.2658  0.53297     C
C       0.1752   0.9094  0.96703     C
C       0.1791   0.2866  0.48505     C
C       0.1791   0.8925  0.01495     C
H       0.1842   0.3278   0.8134     H
H       0.1842   0.8564   0.6866     H
C        0.187   0.2615   0.2404     C
C        0.187   0.9255   0.2596     C
C        0.188   0.3767   0.8177     C
C        0.188   0.8113   0.6823     C
H       0.1885   0.5544   0.4395     H
H       0.1885   0.6341   0.0605     H
C       0.1887   0.3767   0.6823     C
C       0.1887    0.812   0.8177     C
C       0.1908    0.282   0.2883     C
C       0.1908   0.9088   0.2117     C
C       0.1951   0.4483   0.6945     C
C       0.1951   0.7468   0.8055     C
H       0.1972   0.5853   0.6791     H
H       0.1972   0.6119   0.8209     H
O      0.20255  0.05852  0.35486     O
O      0.20255  0.14403  0.14514     O
H       0.2082   0.2236   0.8272     H
H       0.2082   0.9846   0.6728     H
H       0.2114   0.0418    0.261     H
H       0.2114   0.1696    0.239     H
O      0.21591  0.06296  0.88453     O
O      0.21591  0.15295  0.61547     O
H       0.2179   0.2898   0.3878     H
H       0.2179   0.9281   0.1122     H
C       0.2207    0.232   0.7513     C
C       0.2207   0.9887   0.7487     C
H       0.2236   0.0154   0.1728     H
H       0.2236   0.2082   0.3272     H
H       0.2283    0.099   0.4513     H
H       0.2283   0.1293   0.0487     H
H       0.2304   0.0897   0.7773     H
H       0.2304   0.1407   0.7227     H
C        0.232   0.0113   0.2487     C
C        0.232   0.2207   0.2513     C
N       0.2357   0.5034   0.8234     N
N       0.2357   0.7323   0.6766     N
C        0.238   0.2412   0.2996     C
C        0.238   0.9968   0.2004     C
C       0.2412   0.0032   0.7004     C
C       0.2412    0.238   0.7996     C
N       0.2479   0.3072  0.55598     N
N       0.2479   0.9407  0.94402     N
C       0.2517   0.6178   0.6777     C
C       0.2517   0.6339   0.8223     C
C       0.2532   0.4483   0.8055     C
C       0.2532   0.8049   0.6945     C
N       0.2571   0.3431  0.47752     N
N       0.2571    0.914  0.02248     N
N       0.2578    0.388   0.6632     N
N       0.2578   0.8698   0.8368     N
C       0.2615   0.0745   0.7596     C
C       0.2615    0.187   0.7404     C
C       0.2627   0.3396  0.38776     C
C       0.2627   0.9231  0.11224     C
N       0.2641   0.2944  0.22079     N
N       0.2641   0.9697  0.27921     N
C       0.2658   0.0906  0.46703     C
C       0.2658   0.1752  0.03297     C
H       0.2671   0.1289    0.538     H
H       0.2671   0.1382    0.962     H
N       0.2677   0.5034   0.6766     N
N       0.2677   0.7643   0.8234     N
H       0.2678   0.4146   0.0738     H
H       0.2678   0.8532   0.4262     H
H        0.268   0.1191   0.6899     H
H        0.268   0.1489   0.8101     H
N       0.2737   0.3304  0.29912     N
N       0.2737   0.9433  0.20088     N
Cd     0.27979  0.28993  0.63856    Cd
Cd     0.27979  0.98986  0.86144    Cd
C        0.282   0.0912   0.7117     C
C        0.282   0.1908   0.7883     C
C       0.2855    0.586   0.8233     C
C       0.2855   0.6995   0.6767     C
C       0.2866   0.1075  0.51495     C
C       0.2866   0.1791  0.98505     C
H       0.2898   0.0719   0.6122     H
H       0.2898   0.2179   0.8878     H
Cd     0.28993  0.01014  0.36144    Cd
Cd     0.28993  0.27979  0.13856    Cd
C       0.2932   0.3817   0.4316     C
C       0.2932   0.9115   0.0684     C
N       0.2944   0.0303  0.77921     N
N       0.2944   0.2641  0.72079     N
C       0.2959   0.3535   0.5212     C
C       0.2959   0.9424   0.9788     C
H       0.2986   0.4572   0.7889     H
H       0.2986   0.8414   0.7111     H
C       0.3005    0.586   0.6767     C
C       0.3005   0.7145   0.8233     C
C       0.3011    0.347  0.25351     C
C       0.3011   0.9541  0.24649     C
C       0.3017   0.3749  0.34379     C
C       0.3017   0.9268  0.15621     C
C       0.3032   0.4642    0.662     C
C       0.3032    0.839    0.838     C
N       0.3072   0.0593  0.44402     N
N       0.3072   0.2479  0.05598     N
C        0.317   0.4416    0.089     C
C        0.317   0.8754    0.411     C
H       0.3278   0.1436   0.1866     H
H       0.3278   0.1842   0.3134     H
N       0.3304   0.0567  0.70088     N
N       0.3304   0.2737  0.79912     N
C       0.3396   0.0769  0.61224     C
C       0.3396   0.2627  0.88776     C
N       0.3431    0.086  0.52248     N
N       0.3431   0.2571  0.97752     N
N       0.3452   0.4098  0.12154     N
N       0.3452   0.9354  0.37846     N
H       0.3455   0.3949   0.2455     H
H       0.3455   0.9506   0.2545     H
C        0.347   0.0459  0.74649     C
C        0.347   0.3011  0.75351     C
H       0.3493   0.3887   0.5259     H
H       0.3493   0.9606   0.9741     H
C       0.3535   0.0576   0.4788     C
C       0.3535   0.2959   0.0212     C
H       0.3556   0.4889   0.6518     H
H       0.3556   0.8667   0.8482     H
C       0.3582   0.4561   0.4324     C
C       0.3582   0.9021   0.0676     C
H       0.3659   0.5544   0.0605     H
H       0.3659   0.8115   0.4395     H
C       0.3661   0.6178   0.8223     C
C       0.3661   0.7483   0.6777     C
C       0.3677   0.4496  0.34334     C
C       0.3677   0.9181  0.15666     C
C       0.3709   0.5193   0.0814     C
C       0.3709   0.8516   0.4186     C
C       0.3749   0.0732  0.65621     C
C       0.3749   0.3017  0.84379     C
C       0.3767    0.188   0.3177     C
C       0.3767   0.1887   0.1823     C
H       0.3769   0.4835   0.4621     H
H       0.3769   0.8934   0.0379     H
C       0.3817   0.0885   0.5684     C
C       0.3817   0.2932   0.9316     C
C       0.3822   0.6339   0.6777     C
C       0.3822   0.7483   0.8223     C
N        0.388   0.1302   0.3368     N
N        0.388   0.2578   0.1632     N
H       0.3881   0.5853   0.8209     H
H       0.3881   0.8028   0.6791     H
H       0.3887   0.0394   0.4741     H
H       0.3887   0.3493   0.0259     H
H        0.393   0.4726   0.3136     H
H        0.393   0.9204   0.1864     H
H       0.3949   0.0494   0.7545     H
H       0.3949   0.3455   0.7455     H
C       0.3951   0.4892  0.38753     C
C       0.3951   0.9059  0.11247     C
N       0.4098   0.0646  0.87846     N
N       0.4098   0.3452  0.62154     N
C        0.414   0.6995   0.8233     C
C        0.414   0.7145   0.6767     C
H       0.4146   0.1468   0.9262     H
H       0.4146   0.2678   0.5738     H
H       0.4147   0.6119   0.6791     H
H       0.4147   0.8028   0.8209     H
C       0.4178   0.4661   0.1317     C
C       0.4178   0.9517   0.3683     C
N       0.4348   0.5346  0.11142     N
N       0.4348   0.9002  0.38858     N
C       0.4416   0.1246    0.911     C
C       0.4416    0.317    0.589     C
H       0.4456   0.6341   0.4395     H
H       0.4456   0.8115   0.0605     H
C       0.4483   0.1951   0.1945     C
C       0.4483   0.2532   0.3055     C
C       0.4496   0.0819  0.65666     C
C       0.4496   0.3677  0.84334     C
H        0.453   0.4586    0.151     H
H        0.453   0.9944    0.349     H
C       0.4561   0.0979   0.5676     C
C       0.4561   0.3582   0.9324     C
H       0.4572   0.1586   0.2111     H
H       0.4572   0.2986   0.2889     H
H       0.4586   0.0056    0.849     H
H       0.4586    0.453    0.651     H
C       0.4642    0.161    0.338     C
C       0.4642   0.3032    0.162     C
N       0.4654   0.5652  0.38858     N
N       0.4654   0.9002  0.11142     N
C       0.4661   0.0483   0.8683     C
C       0.4661   0.4178   0.6317     C
H       0.4726   0.0796   0.6864     H
H       0.4726    0.393   0.8136     H
C       0.4807   0.6291   0.4186     C
C       0.4807   0.8516   0.0814     C
H       0.4835   0.1066   0.5379     H
H       0.4835   0.3769   0.9621     H
H       0.4889   0.1333   0.3482     H
H       0.4889   0.3556   0.1518     H
C       0.4892   0.0941  0.61247     C
C       0.4892   0.3951  0.88753     C
N       0.4966   0.7323   0.8234     N
N       0.4966   0.7643   0.6766     N
N       0.5034   0.2357   0.3234     N
N       0.5034   0.2677   0.1766     N
C       0.5108   0.6049  0.11247     C
C       0.5108   0.9059  0.38753     C
H       0.5111   0.6444   0.8482     H
H       0.5111   0.8667   0.6518     H
H       0.5165   0.6231   0.0379     H
H       0.5165   0.8934   0.4621     H
C       0.5193   0.1484   0.9186     C
C       0.5193   0.3709   0.5814     C
H       0.5274    0.607   0.1864     H
H       0.5274   0.9204   0.3136     H
C       0.5339   0.5822   0.3683     C
C       0.5339   0.9517   0.1317     C
N       0.5346   0.0998  0.88858     N
N       0.5346   0.4348  0.61142     N
C       0.5358   0.6968    0.838     C
C       0.5358    0.839    0.662     C
H       0.5414    0.547    0.349     H
H       0.5414   0.9944    0.151     H
H       0.5428   0.7014   0.7111     H
H       0.5428   0.8414   0.7889     H
C       0.5439   0.6418   0.0676     C
C       0.5439   0.9021   0.4324     C
H        0.547   0.0056    0.651     H
H        0.547   0.5414    0.849     H
C       0.5504   0.6323  0.15666     C
C       0.5504   0.9181  0.34334     C
C       0.5517   0.7468   0.6945     C
C       0.5517   0.8049   0.8055     C
H       0.5544   0.1885   0.9395     H
H       0.5544   0.3659   0.5605     H
C       0.5584    0.683    0.411     C
C       0.5584   0.8754    0.089     C
N       0.5652   0.0998  0.61142     N
N       0.5652   0.4654  0.88858     N
C       0.5822   0.0483   0.6317     C
C       0.5822   0.5339   0.8683     C
H       0.5853   0.1972   0.1791     H
H       0.5853   0.3881   0.3209     H
H       0.5854   0.7322   0.4262     H
H       0.5854   0.8532   0.0738     H
C        0.586   0.2855   0.3233     C
C        0.586   0.3005   0.1767     C
N       0.5902   0.6548  0.37846     N
N       0.5902   0.9354  0.12154     N
C       0.6049   0.0941  0.88753     C
C       0.6049   0.5108  0.61247     C
H       0.6051   0.6545   0.2545     H
H       0.6051   0.9506   0.2455     H
H        0.607   0.0796   0.8136     H
H        0.607   0.5274   0.6864     H
H       0.6113   0.6507   0.9741     H
H       0.6113   0.9606   0.5259     H
H       0.6119   0.1972   0.3209     H
H       0.6119   0.4147   0.1791     H
N        0.612   0.7422   0.8368     N
N        0.612   0.8698   0.6632     N
C       0.6178   0.2517   0.1777     C
C       0.6178   0.3661   0.3223     C
C       0.6183   0.7068   0.0684     C
C       0.6183   0.9115   0.4316     C
H       0.6231   0.1066   0.9621     H
H       0.6231   0.5165   0.5379     H
C       0.6233   0.8113   0.8177     C
C       0.6233    0.812   0.6823     C
C       0.6251   0.6983  0.15621     C
C       0.6251   0.9268  0.34379     C
C       0.6291   0.1484   0.5814     C
C       0.6291   0.4807   0.9186     C
C       0.6323   0.0819  0.84334     C
C       0.6323   0.5504  0.65666     C
C       0.6339   0.2517   0.3223     C
C       0.6339   0.3822   0.1777     C
H       0.6341   0.1885   0.5605     H
H       0.6341   0.4456   0.9395     H
C       0.6418   0.0979   0.9324     C
C       0.6418   0.5439   0.5676     C
H       0.6444   0.1333   0.1518     H
H       0.6444   0.5111   0.3482     H
C       0.6465   0.7041   0.9788     C
C       0.6465   0.9424   0.5212     C
H       0.6507   0.0394   0.0259     H
H       0.6507   0.6113   0.4741     H
C        0.653   0.6989  0.24649     C
C        0.653   0.9541  0.25351     C
H       0.6545   0.0494   0.7455     H
H       0.6545   0.6051   0.7545     H
N       0.6548   0.0646  0.62154     N
N       0.6548   0.5902  0.87846     N
N       0.6569   0.7429  0.02248     N
N       0.6569    0.914  0.47752     N
C       0.6604   0.7373  0.11224     C
C       0.6604   0.9231  0.38776     C
N       0.6696   0.7263  0.20088     N
N       0.6696   0.9433  0.29912     N
H       0.6722   0.8158   0.6866     H
H       0.6722   0.8564   0.8134     H
C        0.683   0.1246    0.589     C
C        0.683   0.5584    0.911     C
N       0.6928   0.7521  0.94402     N
N       0.6928   0.9407  0.55598     N
C       0.6968    0.161    0.162     C
C       0.6968   0.5358    0.338     C
C       0.6983   0.0732  0.84379     C
C       0.6983   0.6251  0.65621     C
C       0.6989   0.0459  0.75351     C
C       0.6989    0.653  0.74649     C
C       0.6995   0.2855   0.1767     C
C       0.6995    0.414   0.3233     C
H       0.7014   0.1586   0.2889     H
H       0.7014   0.5428   0.2111     H
C       0.7041   0.0576   0.0212     C
C       0.7041   0.6465   0.4788     C
N       0.7056   0.7359  0.27921     N
N       0.7056   0.9697  0.22079     N
C       0.7068   0.0885   0.9316     C
C       0.7068   0.6183   0.5684     C
Cd     0.71007  0.72021  0.86144    Cd
Cd     0.71007  0.98986  0.63856    Cd
H       0.7102   0.7821   0.1122     H
H       0.7102   0.9281   0.3878     H
C       0.7134   0.8209  0.01495     C
C       0.7134   0.8925  0.48505     C
C       0.7145   0.3005   0.3233     C
C       0.7145    0.414   0.1767     C
C        0.718   0.8092   0.2117     C
C        0.718   0.9088   0.2883     C
Cd     0.72021  0.01014  0.13856    Cd
Cd     0.72021  0.71007  0.36144    Cd
N       0.7263   0.0567  0.79912     N
N       0.7263   0.6696  0.70088     N
H        0.732   0.8511   0.1899     H
H        0.732   0.8809   0.3101     H
H       0.7322   0.1468   0.5738     H
H       0.7322   0.5854   0.9262     H
N       0.7323   0.2357   0.1766     N
N       0.7323   0.4966   0.3234     N
H       0.7329   0.8618    0.038     H
H       0.7329   0.8711    0.462     H
C       0.7342   0.8248  0.96703     C
C       0.7342   0.9094  0.53297     C
N       0.7359   0.0303  0.72079     N
N       0.7359   0.7056  0.77921     N
C       0.7373   0.0769  0.88776     C
C       0.7373   0.6604  0.61224     C
C       0.7385    0.813   0.2596     C
C       0.7385   0.9255   0.2404     C
N       0.7422   0.1302   0.1632     N
N       0.7422    0.612   0.3368     N
N       0.7429    0.086  0.97752     N
N       0.7429   0.6569  0.52248     N
C       0.7468   0.1951   0.3055     C
C       0.7468   0.5517   0.1945     C
C       0.7483   0.3661   0.1777     C
C       0.7483   0.3822   0.3223     C
N       0.7521   0.0593  0.05598     N
N       0.7521   0.6928  0.44402     N
C       0.7588    0.762   0.2004     C
C       0.7588   0.9968   0.2996     C
C        0.762   0.0032   0.7996     C
C        0.762   0.7588   0.7004     C
N       0.7643   0.2677   0.3234     N
N       0.7643   0.4966   0.1766     N
C        0.768   0.7793   0.7487     C
C        0.768   0.9887   0.7513     C
H       0.7696   0.8593   0.2773     H
H       0.7696   0.9103   0.2227     H
H       0.7717   0.8707   0.9513     H
H       0.7717    0.901   0.5487     H
H       0.7764   0.7918   0.6728     H
H       0.7764   0.9846   0.8272     H
C       0.7793   0.0113   0.2513     C
C       0.7793    0.768   0.2487     C
H       0.7821   0.0719   0.8878     H
H       0.7821   0.7102   0.6122     H
O      0.78409  0.84705  0.38453     O
O      0.78409  0.93704  0.11547     O
H       0.7886   0.8304    0.761     H
H       0.7886   0.9582    0.739     H
H       0.7918   0.0154   0.3272     H
H       0.7918   0.7764   0.1728     H
O      0.79745  0.85597  0.85486     O
O      0.79745  0.94148  0.64514     O
H       0.8028   0.3881   0.1791     H
H       0.8028   0.4147   0.3209     H
C       0.8049   0.2532   0.1945     C
C       0.8049   0.5517   0.3055     C
C       0.8092   0.0912   0.7883     C
C       0.8092    0.718   0.7117     C
C       0.8113    0.188   0.1823     C
C       0.8113   0.6233   0.3177     C
H       0.8115   0.3659   0.9395     H
H       0.8115   0.4456   0.5605     H
C        0.812   0.1887   0.3177     C
C        0.812   0.6233   0.1823     C
C        0.813   0.0745   0.7404     C
C        0.813   0.7385   0.7596     C
H       0.8158   0.1436   0.3134     H
H       0.8158   0.6722   0.1866     H
C       0.8209   0.1075  0.98505     C
C       0.8209   0.7134  0.51495     C
C       0.8248   0.0906  0.03297     C
C       0.8248   0.7342  0.46703     C
H       0.8304   0.0418    0.239     H
H       0.8304   0.7886    0.261     H
C        0.839   0.3032    0.338     C
C        0.839   0.5358    0.162     C
H       0.8414   0.2986   0.2111     H
H       0.8414   0.5428   0.2889     H
O      0.84705  0.06296  0.61547     O
O      0.84705  0.78409  0.88453     O
C         0.85   0.8519  0.37529     C
C         0.85   0.9981  0.12471     C
H       0.8511   0.1191   0.8101     H
H       0.8511    0.732   0.6899     H
C       0.8516   0.3709   0.9186     C
C       0.8516   0.4807   0.5814     C
C       0.8519   0.0019  0.62471     C
C       0.8519     0.85  0.87529     C
H       0.8532   0.2678   0.9262     H
H       0.8532   0.5854   0.5738     H
O      0.85597  0.05852  0.14514     O
O      0.85597  0.79745  0.35486     O
H       0.8564   0.1842   0.1866     H
H       0.8564   0.6722   0.3134     H
H       0.8593   0.0897   0.7227     H
H       0.8593   0.7696   0.7773     H
H       0.8618   0.1289    0.962     H
H       0.8618   0.7329    0.538     H
H       0.8667   0.3556   0.3482     H
H       0.8667   0.5111   0.1518     H
N       0.8698   0.2578   0.3368     N
N       0.8698    0.612   0.1632     N
H       0.8707    0.099   0.0487     H
H       0.8707   0.7717   0.4513     H
H       0.8711   0.1382    0.538     H
H       0.8711   0.7329    0.962     H
C       0.8754    0.317    0.911     C
C       0.8754   0.5584    0.589     C
H       0.8791   0.8798   0.6125     H
H       0.8791   0.9993   0.8875     H
H       0.8798   0.0007   0.3875     H
H       0.8798   0.8791   0.1125     H
H       0.8809   0.1489   0.6899     H
H       0.8809    0.732   0.8101     H
C       0.8925   0.1791  0.51495     C
C       0.8925   0.7134  0.98505     C
H       0.8934   0.3769   0.5379     H
H       0.8934   0.5165   0.9621     H
N       0.9002   0.4348  0.88858     N
N       0.9002   0.4654  0.61142     N
H        0.901   0.1293   0.4513     H
H        0.901   0.7717   0.0487     H
C       0.9021   0.3582   0.5676     C
C       0.9021   0.5439   0.9324     C
C       0.9059   0.3951  0.61247     C
C       0.9059   0.5108  0.88753     C
C       0.9088   0.1908   0.7117     C
C       0.9088    0.718   0.7883     C
C       0.9094   0.1752  0.46703     C
C       0.9094   0.7342  0.03297     C
H       0.9103   0.1407   0.7773     H
H       0.9103   0.7696   0.7227     H
C       0.9115   0.2932   0.5684     C
C       0.9115   0.6183   0.9316     C
N        0.914   0.2571  0.52248     N
N        0.914   0.6569  0.97752     N
C       0.9181   0.3677  0.65666     C
C       0.9181   0.5504  0.84334     C
H       0.9204    0.393   0.6864     H
H       0.9204   0.5274   0.8136     H
H       0.9223   0.9228   0.6617     H
H       0.9223   0.9995   0.8383     H
H       0.9228   0.0005   0.3383     H
H       0.9228   0.9223   0.1617     H
C       0.9231   0.2627  0.61224     C
C       0.9231   0.6604  0.88776     C
C       0.9251   0.9255  0.39157     C
C       0.9251   0.9996  0.10843     C
C       0.9253   0.9258  0.62566     C
C       0.9253   0.9995  0.87434     C
C       0.9255   0.0004  0.60843     C
C       0.9255    0.187   0.7596     C
C       0.9255   0.7385   0.7404     C
C       0.9255   0.9251  0.89157     C
H       0.9256    0.926    0.428     H
H       0.9256   0.9996    0.072     H
C       0.9258   0.0005  0.37434     C
C       0.9258   0.9253  0.12566     C
H        0.926   0.0004    0.572     H
H        0.926   0.9256    0.928     H
C       0.9268   0.3017  0.65621     C
C       0.9268   0.6251  0.84379     C
H       0.9281   0.2179   0.6122     H
H       0.9281   0.7102   0.8878     H
N       0.9354   0.3452  0.87846     N
N       0.9354   0.5902  0.62154     N
O      0.93704  0.15295  0.88453     O
O      0.93704  0.78409  0.61547     O
N       0.9407   0.2479  0.44402     N
N       0.9407   0.6928  0.05598     N
O      0.94148  0.14403  0.35486     O
O      0.94148  0.79745  0.14514     O
C       0.9424   0.2959   0.4788     C
C       0.9424   0.6465   0.0212     C
N       0.9433   0.2737  0.70088     N
N       0.9433   0.6696  0.79912     N
H       0.9506   0.3455   0.7545     H
H       0.9506   0.6051   0.7455     H
C       0.9517   0.4178   0.8683     C
C       0.9517   0.5339   0.6317     C
C       0.9541   0.3011  0.74649     C
C       0.9541    0.653  0.75351     C
H       0.9582   0.1696    0.261     H
H       0.9582   0.7886    0.239     H
H       0.9606   0.3493   0.4741     H
H       0.9606   0.6113   0.0259     H
N       0.9697   0.2641  0.77921     N
N       0.9697   0.7056  0.72079     N
H       0.9846   0.2082   0.1728     H
H       0.9846   0.7764   0.3272     H
C       0.9887   0.2207   0.2487     C
C       0.9887    0.768   0.2513     C
Cd     0.98986  0.27979  0.36144    Cd
Cd     0.98986  0.71007  0.13856    Cd
H       0.9944    0.453    0.849     H
H       0.9944   0.5414    0.651     H
C       0.9968    0.238   0.7004     C
C       0.9968   0.7588   0.7996     C
C       0.9981   0.1481  0.87529     C
C       0.9981     0.85  0.62471     C
H       0.9993   0.1202   0.1125     H
H       0.9993   0.8791   0.3875     H
C       0.9995   0.0742  0.12566     C
H       0.9995   0.0772   0.1617     H
H       0.9995   0.9223   0.3383     H
C       0.9995   0.9253  0.37434     C
H       0.9996    0.074    0.928     H
C       0.9996   0.0745  0.89157     C
C       0.9996   0.9251  0.60843     C
H       0.9996   0.9256    0.572     H
