data_I
_chemical_name_common  '/home/zhangsd/repos/MofS-CGCNN/ML/data/SSD/clean_cifs/QOXNIB_clean'
_cell_length_a 12.01600
_cell_length_b 12.16700
_cell_length_c 13.85000
_cell_angle_alpha 90.00000
_cell_angle_beta  90.00000
_cell_angle_gamma 90.00000
_space_group_name_H-M_alt      'P 1'


loop_
_space_group_symop_operation_xyz
  'x, y, z' 

loop_
_atom_site_label
_atom_site_fract_x
_atom_site_fract_y
_atom_site_fract_z
_atom_site_type_symbol
N       0.0109   0.2521   0.2595     N
N       0.0109   0.2521   0.7405     N
Cu     0.03088  0.16643   0.3828    Cu
Cu     0.03088  0.16643   0.6172    Cu
C       0.0475    0.661   0.1367     C
C       0.0475    0.661   0.8633     C
O       0.0615   0.0894      0.5     O
N       0.0634   0.3427    0.133     N
N       0.0634   0.3427    0.867     N
N       0.0816   0.7173   0.2141     N
N       0.0816   0.7173   0.7859     N
N       0.0931   0.7567   0.4519     N
N       0.0931   0.7567   0.5481     N
H       0.0946   0.6288   0.0916     H
H       0.0946   0.6288   0.9084     H
N       0.0971   0.2868   0.2109     N
N       0.0971   0.2868   0.7891     N
H       0.1108   0.0417      0.5     H
N       0.1241   0.9539   0.3138     N
N       0.1241   0.9539   0.6862     N
N       0.1314   0.0609   0.3127     N
N       0.1314   0.0609   0.6873     N
H       0.1695    0.495   0.3069     H
H       0.1695    0.495   0.6931     H
H       0.1844   0.1637      0.0     H
N       0.1895   0.7181   0.4199     N
N       0.1895   0.7181   0.5801     N
N       0.2086   0.9142   0.2624     N
N       0.2086   0.9142   0.7376     N
N       0.2199   0.0927   0.2609     N
N       0.2199   0.0927   0.7391     N
C       0.2334   0.4995   0.2692     C
C       0.2334   0.4995   0.7308     C
Cu     0.24059  0.75267  0.25195    Cu
Cu     0.24059  0.75267  0.74805    Cu
C       0.2447   0.6943      0.5     C
C       0.2553   0.1943      0.0     C
Cu     0.25941  0.25267  0.24805    Cu
Cu     0.25941  0.25267  0.75195    Cu
C       0.2666   0.9995   0.2308     C
C       0.2666   0.9995   0.7692     C
N       0.2801   0.5927   0.2391     N
N       0.2801   0.5927   0.7609     N
N       0.2914   0.4142   0.2376     N
N       0.2914   0.4142   0.7624     N
N       0.3105   0.2181   0.0801     N
N       0.3105   0.2181   0.9199     N
H       0.3156   0.6637      0.5     H
H       0.3305    0.995   0.1931     H
H       0.3305    0.995   0.8069     H
N       0.3686   0.5609   0.1873     N
N       0.3686   0.5609   0.8127     N
N       0.3759   0.4539   0.1862     N
N       0.3759   0.4539   0.8138     N
H       0.3892   0.5417      0.0     H
N       0.4029   0.7868   0.2891     N
N       0.4029   0.7868   0.7109     N
H       0.4054   0.1288   0.4084     H
H       0.4054   0.1288   0.5916     H
N       0.4069   0.2567   0.0481     N
N       0.4069   0.2567   0.9519     N
N       0.4184   0.2173   0.2859     N
N       0.4184   0.2173   0.7141     N
N       0.4366   0.8427    0.367     N
N       0.4366   0.8427    0.633     N
O       0.4385   0.5894      0.0     O
C       0.4525    0.161   0.3633     C
C       0.4525    0.161   0.6367     C
Cu     0.46912  0.66643   0.1172    Cu
Cu     0.46912  0.66643   0.8828    Cu
N       0.4891   0.7521   0.2405     N
N       0.4891   0.7521   0.7595     N
N       0.5109   0.2479   0.2405     N
N       0.5109   0.2479   0.7595     N
Cu     0.53088  0.33357   0.1172    Cu
Cu     0.53088  0.33357   0.8828    Cu
C       0.5475    0.839   0.3633     C
C       0.5475    0.839   0.6367     C
O       0.5615   0.4106      0.0     O
N       0.5634   0.1573    0.367     N
N       0.5634   0.1573    0.633     N
N       0.5816   0.7827   0.2859     N
N       0.5816   0.7827   0.7141     N
N       0.5931   0.7433   0.0481     N
N       0.5931   0.7433   0.9519     N
H       0.5946   0.8712   0.4084     H
H       0.5946   0.8712   0.5916     H
N       0.5971   0.2132   0.2891     N
N       0.5971   0.2132   0.7109     N
H       0.6108   0.4583      0.0     H
N       0.6241   0.5461   0.1862     N
N       0.6241   0.5461   0.8138     N
N       0.6314   0.4391   0.1873     N
N       0.6314   0.4391   0.8127     N
H       0.6695    0.005   0.1931     H
H       0.6695    0.005   0.8069     H
H       0.6844   0.3363      0.5     H
N       0.6895   0.7819   0.0801     N
N       0.6895   0.7819   0.9199     N
N       0.7086   0.5858   0.2376     N
N       0.7086   0.5858   0.7624     N
N       0.7199   0.4073   0.2391     N
N       0.7199   0.4073   0.7609     N
C       0.7334   0.0005   0.2308     C
C       0.7334   0.0005   0.7692     C
Cu     0.74059  0.74733  0.24805    Cu
Cu     0.74059  0.74733  0.75195    Cu
C       0.7447   0.8057      0.0     C
C       0.7553   0.3057      0.5     C
Cu     0.75941  0.24733  0.25195    Cu
Cu     0.75941  0.24733  0.74805    Cu
C       0.7666   0.5005   0.2692     C
C       0.7666   0.5005   0.7308     C
N       0.7801   0.9073   0.2609     N
N       0.7801   0.9073   0.7391     N
N       0.7914   0.0858   0.2624     N
N       0.7914   0.0858   0.7376     N
N       0.8105   0.2819   0.4199     N
N       0.8105   0.2819   0.5801     N
H       0.8156   0.8363      0.0     H
H       0.8305    0.505   0.3069     H
H       0.8305    0.505   0.6931     H
N       0.8686   0.9391   0.3127     N
N       0.8686   0.9391   0.6873     N
N       0.8759   0.0461   0.3138     N
N       0.8759   0.0461   0.6862     N
H       0.8892   0.9583      0.5     H
N       0.9029   0.7132   0.2109     N
N       0.9029   0.7132   0.7891     N
H       0.9054   0.3712   0.0916     H
H       0.9054   0.3712   0.9084     H
N       0.9069   0.2433   0.4519     N
N       0.9069   0.2433   0.5481     N
N       0.9184   0.2827   0.2141     N
N       0.9184   0.2827   0.7859     N
N       0.9366   0.6573    0.133     N
N       0.9366   0.6573    0.867     N
O       0.9385   0.9106      0.5     O
C       0.9525    0.339   0.1367     C
C       0.9525    0.339   0.8633     C
Cu     0.96912  0.83357   0.3828    Cu
Cu     0.96912  0.83357   0.6172    Cu
N       0.9891   0.7479   0.2595     N
N       0.9891   0.7479   0.7405     N
