data_I
_chemical_name_common  '/home/zhangsd/repos/MofS-CGCNN/ML/data/SSD/clean_cifs/QUJKOX_clean'
_cell_length_a 12.79050
_cell_length_b 25.91520
_cell_length_c 10.63290
_cell_angle_alpha 90.00000
_cell_angle_beta  92.47200
_cell_angle_gamma 90.00000
_space_group_name_H-M_alt      'P 1'


loop_
_space_group_symop_operation_xyz
  'x, y, z' 

loop_
_atom_site_label
_atom_site_fract_x
_atom_site_fract_y
_atom_site_fract_z
_atom_site_type_symbol
C      0.01033  0.14233   0.2637     C
C      0.01033  0.35767   0.7637     C
Cl     0.01225  0.23579  0.95197    Cl
Cl     0.01225  0.26421  0.45197    Cl
C      0.01822  0.66857   0.3605     C
C      0.01822  0.83143   0.8605     C
C      0.04474   0.2067   0.0945     C
C      0.04474   0.2933   0.5945     C
O      0.05583  0.60876  0.20084     O
O      0.05583  0.89124  0.70084     O
Cl     0.09637  0.05797   0.0434    Cl
Cl     0.09637  0.44203   0.5434    Cl
C      0.10228  0.15478   0.3286     C
C      0.10228  0.34522   0.8286     C
O      0.10341   0.6519  0.41493     O
O      0.10341   0.8481  0.91493     O
Cl     0.13611  0.12364  0.46854    Cl
Cl     0.13611  0.37636  0.96854    Cl
C      0.13646  0.22418   0.1645     C
C      0.13646  0.27582   0.6645     C
O      0.14826  0.53871  0.40415     O
O      0.14826  0.96129  0.90415     O
C      0.16701  0.05186   0.9092     C
C      0.16701  0.44814   0.4092     C
C      0.16762  0.19508   0.2883     C
C      0.16762  0.30492   0.7883     C
C      0.18098  0.00388   0.8582     C
C      0.18098  0.49612   0.3582     C
Fe     0.18568  0.60255  0.31279    Fe
Fe     0.18568  0.89745  0.81279    Fe
O      0.19298   0.2399   0.6347     O
O      0.19298   0.2601   0.1347     O
O      0.20177  0.14099  0.89732     O
O      0.20177  0.35901  0.39732     O
C      0.20992  0.09708   0.8552     C
C      0.20992  0.40292   0.3552     C
C      0.23866  0.50192   0.2371     C
C      0.23866  0.99808   0.7371     C
O      0.24442  0.54828   0.1963     O
O      0.24442  0.95172   0.6963     O
O      0.24837  0.20978  0.34559     O
O      0.24837  0.29022  0.84559     O
O      0.25931  0.65923  0.22236     O
O      0.25931  0.84077  0.72236     O
C      0.27217  0.09087   0.7332     C
C      0.27217  0.40913   0.2332     C
C       0.2811  0.04065   0.6805     C
C       0.2811  0.45935   0.1805     C
Na     0.30866  0.20602  0.81686    Na
Na     0.30866  0.29398  0.31686    Na
O      0.30997  0.13053  0.68911     O
O      0.30997  0.36947  0.18911     O
O      0.31686   0.6087  0.42345     O
O      0.31686   0.8913  0.92345     O
C      0.34115  0.67699   0.2812     C
C      0.34115  0.82301   0.7812     C
Na     0.34799  0.18826  0.52611    Na
Na     0.34799  0.31174  0.02611    Na
Cl     0.35072  0.03308  0.54576    Cl
Cl     0.35072  0.46692  0.04576    Cl
Cl     0.35156  0.74535   0.6163    Cl
Cl     0.35156  0.75465   0.1163    Cl
C      0.37797   0.6456    0.395     C
C      0.37797   0.8544    0.895     C
C      0.39462  0.72032   0.2477     C
C      0.39462  0.77968   0.7477     C
O      0.39816  0.22084  0.00642     O
O      0.39816  0.27916  0.50642     O
O      0.46183  0.22417   0.7059     O
O      0.46183  0.27583   0.2059     O
C      0.47103  0.65775   0.4585     C
C      0.47103  0.84225   0.9585     C
C      0.47437  0.20395   0.0688     C
C      0.47437  0.29605   0.5688     C
C      0.48632  0.73698   0.3169     C
C      0.48632  0.76302   0.8169     C
Cl     0.48633  0.12087  0.91402    Cl
Cl     0.48633  0.37913  0.41402    Cl
Cl     0.51367  0.62087  0.58598    Cl
Cl     0.51367  0.87913  0.08598    Cl
C      0.51368  0.23698   0.1831     C
C      0.51368  0.26302   0.6831     C
C      0.52563  0.70395   0.4312     C
C      0.52563  0.79605   0.9312     C
C      0.52897  0.15775   0.0415     C
C      0.52897  0.34225   0.5415     C
O      0.53817  0.72417   0.7941     O
O      0.53817  0.77583   0.2941     O
O      0.60184  0.72084  0.49358     O
O      0.60184  0.77916  0.99358     O
C      0.60538  0.22032   0.2523     C
C      0.60538  0.27968   0.7523     C
C      0.62203   0.1456    0.105     C
C      0.62203   0.3544    0.605     C
Cl     0.64844  0.24535   0.8837    Cl
Cl     0.64844  0.25465   0.3837    Cl
Cl     0.64928  0.53308  0.95424    Cl
Cl     0.64928  0.96692  0.45424    Cl
Na     0.65201  0.68826  0.97389    Na
Na     0.65201  0.81174  0.47389    Na
C      0.65885  0.17699   0.2188     C
C      0.65885  0.32301   0.7188     C
O      0.68314   0.1087  0.07655     O
O      0.68314   0.3913  0.57655     O
O      0.69003  0.63053  0.81089     O
O      0.69003  0.86947  0.31089     O
Na     0.69134  0.70602  0.68314    Na
Na     0.69134  0.79398  0.18314    Na
C       0.7189  0.54065   0.8195     C
C       0.7189  0.95935   0.3195     C
C      0.72783  0.59087   0.7668     C
C      0.72783  0.90913   0.2668     C
O      0.74069  0.15923  0.27764     O
O      0.74069  0.34077  0.77764     O
O      0.75163  0.70978  0.15441     O
O      0.75163  0.79022  0.65441     O
O      0.75558  0.04828   0.3037     O
O      0.75558  0.45172   0.8037     O
C      0.76134  0.00192   0.2629     C
C      0.76134  0.49808   0.7629     C
C      0.79008  0.59708   0.6448     C
C      0.79008  0.90292   0.1448     C
O      0.79823  0.64099  0.60268     O
O      0.79823  0.85901  0.10268     O
O      0.80702   0.7399   0.8653     O
O      0.80702   0.7601   0.3653     O
Fe     0.81432  0.10255  0.18721    Fe
Fe     0.81432  0.39745  0.68721    Fe
C      0.81902  0.50388   0.6418     C
C      0.81902  0.99612   0.1418     C
C      0.83238  0.69508   0.2117     C
C      0.83238  0.80492   0.7117     C
C      0.83299  0.55186   0.5908     C
C      0.83299  0.94814   0.0908     C
O      0.85174  0.03871  0.09585     O
O      0.85174  0.46129  0.59585     O
C      0.86354  0.72418   0.3355     C
C      0.86354  0.77582   0.8355     C
Cl     0.86389  0.62364  0.03146    Cl
Cl     0.86389  0.87636  0.53146    Cl
O      0.89659   0.1519  0.08507     O
O      0.89659   0.3481  0.58507     O
C      0.89772  0.65478   0.1714     C
C      0.89772  0.84522   0.6714     C
Cl     0.90363  0.55797   0.4566    Cl
Cl     0.90363  0.94203   0.9566    Cl
O      0.94417  0.10876  0.29916     O
O      0.94417  0.39124  0.79916     O
C      0.95526   0.7067   0.4055     C
C      0.95526   0.7933   0.9055     C
C      0.98178  0.16857   0.1395     C
C      0.98178  0.33143   0.6395     C
Cl     0.98775  0.73579  0.54803    Cl
Cl     0.98775  0.76421  0.04803    Cl
C      0.98967  0.64233   0.2363     C
C      0.98967  0.85767   0.7363     C
