data_I
_chemical_name_common  '/home/zhangsd/repos/MofS-CGCNN/ML/data/SSD/clean_cifs/RAFMUH_clean'
_cell_length_a  9.66730
_cell_length_b  9.66730
_cell_length_c 14.86000
_cell_angle_alpha 90.00000
_cell_angle_beta  90.00000
_cell_angle_gamma 120.00000
_space_group_name_H-M_alt      'P 1'


loop_
_space_group_symop_operation_xyz
  'x, y, z' 

loop_
_atom_site_label
_atom_site_fract_x
_atom_site_fract_y
_atom_site_fract_z
_atom_site_type_symbol
O       0.0048   0.2239  0.56011     O
O       0.0048   0.7809  0.27322     O
Zn     0.02038  0.51019  0.41667    Zn
O       0.0837   0.3781  0.96233     O
O       0.0837   0.7056    0.871     O
O       0.1358   0.5206  0.52621     O
O       0.1358   0.6152  0.30712     O
P      0.15488  0.39157  0.57313     P
P      0.15488  0.76331   0.2602     P
B       0.1639   0.3278     0.75     B
B       0.1639   0.8361  0.08333     B
O       0.1793   0.4342  0.67541     O
O       0.1793   0.7451  0.15792     O
O       0.2191   0.2239  0.93989     O
O       0.2191   0.9952  0.89345     O
O       0.2239   0.0048  0.10655     O
O       0.2239   0.2191  0.72678     O
P      0.23669  0.39157  0.92687     P
P      0.23669  0.84512  0.90647     P
O       0.2549   0.4342  0.82459     O
O       0.2549   0.8207  0.00875     O
O       0.2944   0.3781  0.53767     O
O       0.2944   0.9163  0.29566     O
B       0.3278   0.1639  0.91667     B
O       0.3781   0.0837  0.70434     O
O       0.3781   0.2944    0.129     O
O       0.3848   0.5206  0.97379     O
O       0.3848   0.8642  0.85955     O
P      0.39157  0.15488  0.09353     P
P      0.39157  0.23669   0.7398     P
O       0.4342   0.1793  0.99125     O
O       0.4342   0.2549  0.84208     O
O       0.4794   0.6152  0.19288     O
O       0.4794   0.8642  0.64045     O
Zn     0.48981  0.51019  0.08333    Zn
Zn     0.48981  0.97962     0.75    Zn
Zn     0.51019  0.02038     0.25    Zn
Zn     0.51019  0.48981  0.58333    Zn
O       0.5206   0.1358  0.14045     O
O       0.5206   0.3848  0.69288     O
O       0.5658   0.7451  0.34208     O
O       0.5658   0.8207  0.49125     O
P      0.60843  0.76331   0.2398     P
P      0.60843  0.84512  0.59353     P
O       0.6152   0.1358  0.35955     O
O       0.6152   0.4794  0.47379     O
O       0.6219   0.7056    0.629     O
O       0.6219   0.9163  0.20434     O
B       0.6722   0.8361  0.41667     B
O       0.7056   0.0837  0.79566     O
O       0.7056   0.6219  0.03767     O
O       0.7451   0.1793  0.50875     O
O       0.7451   0.5658  0.32459     O
P      0.76331  0.15488  0.40647     P
P      0.76331  0.60843  0.42687     P
O       0.7761   0.7809  0.22678     O
O       0.7761   0.9952  0.60655     O
O       0.7809   0.0048  0.39345     O
O       0.7809   0.7761  0.43989     O
O       0.8207   0.2549  0.65792     O
O       0.8207   0.5658  0.17541     O
B       0.8361   0.1639  0.58333     B
B       0.8361   0.6722     0.25     B
P      0.84512  0.23669   0.7602     P
P      0.84512  0.60843  0.07313     P
O       0.8642   0.3848  0.80712     O
O       0.8642   0.4794  0.02621     O
O       0.9163   0.2944    0.371     O
O       0.9163   0.6219  0.46233     O
Zn     0.97962  0.48981  0.91667    Zn
O       0.9952   0.2191  0.77322     O
O       0.9952   0.7761  0.06011     O
