data_I
_chemical_name_common  '/home/zhangsd/repos/MofS-CGCNN/ML/data/SSD/clean_cifs/RAHMAP_clean'
_cell_length_a 10.17630
_cell_length_b 11.15980
_cell_length_c 14.85570
_cell_angle_alpha 90.00000
_cell_angle_beta  107.03500
_cell_angle_gamma 90.00000
_space_group_name_H-M_alt      'P 1'


loop_
_space_group_symop_operation_xyz
  'x, y, z' 

loop_
_atom_site_label
_atom_site_fract_x
_atom_site_fract_y
_atom_site_fract_z
_atom_site_type_symbol
O       0.0125   0.3655   0.4156     O
O       0.0125   0.6345   0.9156     O
Cu     0.03066  0.25026      0.0    Cu
Cu     0.03066  0.74974      0.5    Cu
C       0.0369    0.228   0.2985     C
C       0.0369    0.772   0.7985     C
C       0.0422   0.0119   0.2967     C
C       0.0422   0.9881   0.7967     C
O       0.0599   0.1156   0.9244     O
O       0.0599   0.8844   0.4244     O
C       0.0668   0.3481   0.3488     C
C       0.0668   0.6519   0.8488     C
C       0.0799   0.1199   0.3446     C
C       0.0799   0.8801   0.8446     C
C       0.0876   0.1057    0.847     C
C       0.0876   0.8943    0.347     C
O       0.1329   0.4235   0.3213     O
O       0.1329   0.5765   0.8213     O
O       0.1443   0.1816   0.8095     O
O       0.1443   0.8184   0.3095     O
H       0.1447   0.4872   0.0412     H
H       0.1447   0.5128   0.5412     H
O       0.1491   0.1722   0.5086     O
O       0.1491   0.8278   0.0086     O
C       0.1807    0.119   0.4436     C
C       0.1807    0.881   0.9436     C
N       0.2134   0.3291   0.0181     N
N       0.2134   0.6709   0.5181     N
C       0.2188   0.4488   0.0291     C
C       0.2188   0.5512   0.5291     C
O        0.293   0.0676   0.4537     O
O        0.293   0.9324   0.9537     O
C       0.3253   0.2758   0.0052     C
C       0.3253   0.7242   0.5052     C
H       0.3257   0.4005   0.5309     H
H       0.3257   0.5995   0.0309     H
H       0.3259   0.1928   0.9996     H
H       0.3259   0.8072   0.4996     H
C       0.3279   0.4832   0.5233     C
C       0.3279   0.5168   0.0233     C
C       0.4391   0.3392      0.0     C
C       0.4391   0.6608      0.5     C
C       0.4416   0.4642   0.0063     C
C       0.4416   0.5358   0.5063     C
H       0.4853   0.2984   0.5078     H
H       0.4853   0.7016   0.0078     H
H       0.5147   0.2984   0.9922     H
H       0.5147   0.7016   0.4922     H
C       0.5584   0.4642   0.4937     C
C       0.5584   0.5358   0.9937     C
C       0.5609   0.3392      0.5     C
C       0.5609   0.6608      0.0     C
C       0.6721   0.4832   0.9767     C
C       0.6721   0.5168   0.4767     C
H       0.6741   0.1928   0.5004     H
H       0.6741   0.8072   0.0004     H
H       0.6743   0.4005   0.9691     H
H       0.6743   0.5995   0.4691     H
C       0.6747   0.2758   0.4948     C
C       0.6747   0.7242   0.9948     C
O        0.707   0.0676   0.0463     O
O        0.707   0.9324   0.5463     O
C       0.7812   0.4488   0.4709     C
C       0.7812   0.5512   0.9709     C
N       0.7866   0.3291   0.4819     N
N       0.7866   0.6709   0.9819     N
C       0.8193    0.119   0.0564     C
C       0.8193    0.881   0.5564     C
O       0.8509   0.1722   0.9914     O
O       0.8509   0.8278   0.4914     O
H       0.8553   0.4872   0.4588     H
H       0.8553   0.5128   0.9588     H
O       0.8557   0.1816   0.6905     O
O       0.8557   0.8184   0.1905     O
O       0.8671   0.4235   0.1787     O
O       0.8671   0.5765   0.6787     O
C       0.9124   0.1057    0.653     C
C       0.9124   0.8943    0.153     C
C       0.9201   0.1199   0.1554     C
C       0.9201   0.8801   0.6554     C
C       0.9332   0.3481   0.1512     C
C       0.9332   0.6519   0.6512     C
O       0.9401   0.1156   0.5756     O
O       0.9401   0.8844   0.0756     O
C       0.9578   0.0119   0.2033     C
C       0.9578   0.9881   0.7033     C
C       0.9631    0.228   0.2015     C
C       0.9631    0.772   0.7015     C
Cu     0.96934  0.25026      0.5    Cu
Cu     0.96934  0.74974      0.0    Cu
O       0.9875   0.3655   0.0844     O
O       0.9875   0.6345   0.5844     O
