data_I
_chemical_name_common  '/home/zhangsd/repos/MofS-CGCNN/ML/data/SSD/clean_cifs/RANNUS_clean'
_cell_length_a 10.39120
_cell_length_b 11.87230
_cell_length_c 11.87900
_cell_angle_alpha 82.37900
_cell_angle_beta  87.72500
_cell_angle_gamma 81.66600
_space_group_name_H-M_alt      'P 1'


loop_
_space_group_symop_operation_xyz
  'x, y, z' 

loop_
_atom_site_label
_atom_site_fract_x
_atom_site_fract_y
_atom_site_fract_z
_atom_site_type_symbol
O       0.0109   0.1536   0.4208     O
Nd     0.01896  0.92262  0.76071    Nd
O       0.0559   0.8589   0.9603     O
O       0.0817   0.0731    0.624     O
O        0.106   0.9297   0.1466     O
P      0.11861  0.11678  0.50462     P
P       0.1537  0.89256  0.03464     P
O       0.1791   0.6694   0.5317     O
H       0.1799   0.0846   0.9765     H
H       0.1804   0.6711   0.4625     H
O       0.1981   0.2194   0.5115     O
O       0.2001   0.7843   0.7409     O
O       0.2017     0.01   0.8362     O
H       0.2025   0.2564   0.4484     H
H       0.2026   0.9268   0.4846     H
O       0.2044   0.0098     0.33     O
C       0.2257   0.0126   0.9541     C
C       0.2277   0.9999   0.4488     C
H       0.2431   0.0515   0.7887     H
H       0.2441   0.7316   0.0432     H
H       0.2451   0.9466   0.3131     H
O       0.2609   0.5705   0.7799     O
O       0.2666   0.7906     0.06     O
H       0.2966    0.455     0.56     H
P      0.29801  0.68335  0.72194     P
C       0.3056   0.6801   0.5686     C
H       0.3288   0.7537   0.5321     H
H       0.3462   0.1184   0.0926     H
H       0.3578   0.9302    0.638     H
C       0.3689   0.0071   0.9762     C
C       0.3695   0.0004   0.4739     C
C       0.3782   0.4733   0.5358     C
C       0.4048   0.5858   0.5321     C
C       0.4078   0.0707   0.0554     C
C       0.4146   0.9583   0.5822     C
H       0.4266   0.0709     0.32     H
H       0.4351   0.8943   0.8675     H
O       0.4356   0.6988   0.7553     O
H       0.4487   0.6697   0.8212     H
C       0.4557   0.0421   0.3926     C
H       0.4562   0.3141   0.5052     H
C        0.461   0.9368   0.9208     C
C       0.4743   0.3888   0.5031     C
C       0.5257   0.6112   0.4969     C
C        0.539   0.0632   0.0792     C
H       0.5438   0.6859   0.4948     H
C       0.5443   0.9579   0.6074     C
H       0.5513   0.3303   0.1788     H
O       0.5644   0.3012   0.2447     O
H       0.5649   0.1057   0.1325     H
H       0.5734   0.9291     0.68     H
C       0.5854   0.0417   0.4178     C
C       0.5922   0.9293   0.9446     C
C       0.5952   0.4142   0.4679     C
C       0.6218   0.5267   0.4642     C
C       0.6305   0.9996   0.5261     C
C       0.6311   0.9929   0.0238     C
H       0.6422   0.0698    0.362     H
H       0.6538   0.8816   0.9074     H
H       0.6712   0.2463   0.4679     H
C       0.6944   0.3199   0.4314     C
P      0.70199  0.31665  0.27806     P
H       0.7034    0.545     0.44     H
O       0.7334   0.2094     0.94     O
O       0.7391   0.4295   0.2201     O
H       0.7549   0.0534   0.6869     H
H       0.7559   0.2684   0.9568     H
H       0.7569   0.9485   0.2113     H
C       0.7723   0.0001   0.5512     C
C       0.7743   0.9874   0.0459     C
O       0.7956   0.9902     0.67     O
H       0.7974   0.0732   0.5154     H
H       0.7975   0.7436   0.5516     H
O       0.7983     0.99   0.1638     O
O       0.7999   0.2157   0.2591     O
O       0.8019   0.7806   0.4885     O
H       0.8196   0.3289   0.5375     H
H       0.8201   0.9154   0.0235     H
O       0.8209   0.3306   0.4683     O
P       0.8463  0.10744  0.96536     P
P      0.88139  0.88322  0.49538     P
O        0.894   0.0703   0.8534     O
O       0.9183   0.9269    0.376     O
O       0.9441   0.1411   0.0397     O
Nd     0.98104  0.07738  0.23929    Nd
O       0.9891   0.8464   0.5792     O
