data_I
_chemical_name_common  '/home/zhangsd/repos/MofS-CGCNN/ML/data/SSD/clean_cifs/RANPAA_clean'
_cell_length_a 10.35000
_cell_length_b 11.94000
_cell_length_c 12.75000
_cell_angle_alpha 104.97000
_cell_angle_beta  90.47000
_cell_angle_gamma 93.06000
_space_group_name_H-M_alt      'P 1'


loop_
_space_group_symop_operation_xyz
  'x, y, z' 

loop_
_atom_site_label
_atom_site_fract_x
_atom_site_fract_y
_atom_site_fract_z
_atom_site_type_symbol
La     0.00066  0.27267  0.07942    La
O       0.0286   0.5154   0.8688     O
H       0.0393   0.2988   0.8832     H
O        0.045   0.0974    0.146     O
H       0.0553   0.8679   0.0077     H
O        0.092   0.3322   0.9346     O
O       0.0961   0.8787   0.0651     O
H       0.1137   0.7442   0.5951     H
P       0.1348   0.4516   0.8989     P
P       0.1425   0.0092   0.1055     P
O       0.1493   0.7176   0.7737     O
O       0.1513   0.6843   0.5723     O
O       0.1719   0.5121   0.6469     O
H       0.1897    0.008   0.9277     H
H       0.1947   0.5459   0.0769     H
P       0.1996   0.6411   0.6688     P
O       0.2102   0.6662   0.9979     O
O        0.212   0.1727   0.0102     O
H       0.2217   0.7108   0.0614     H
H       0.2263   0.1859   0.9489     H
O       0.2271   0.4144   0.8006     O
C       0.2296   0.0515   0.9973     C
C       0.2296   0.5526   0.0074     C
O       0.2429   0.0149   0.2002     O
H       0.3485   0.8671    0.896     H
H       0.3593   0.4095   0.0955     H
C       0.3713   0.5277   0.0066     C
C       0.3715   0.0252   0.9969     C
C       0.3741   0.6663   0.6748     C
H       0.4041   0.6529   0.4615     H
H       0.4058   0.6556    0.744     H
C        0.409   0.9209    0.938     C
O       0.4097   0.7828   0.6717     O
C       0.4159   0.4461    0.057     C
H       0.4297   0.6342   0.9163     H
H       0.4348   0.1773   0.0996     H
C       0.4389   0.5764   0.5807     C
C        0.442   0.5899   0.4768     C
C       0.4582   0.5797   0.9504     C
C       0.4609   0.1058   0.0594     C
H       0.4888   0.7924   0.6733     H
H       0.4983   0.5204   0.3256     H
C       0.4997   0.4876   0.6038     C
C       0.5003   0.5124   0.3962     C
H       0.5017   0.4796   0.6744     H
H       0.5112   0.2076   0.3267     H
C       0.5391   0.8942   0.9406     C
C       0.5418   0.4203   0.0496     C
C        0.558   0.4101   0.5232     C
C       0.5611   0.4236   0.4193     C
H       0.5652   0.8227   0.9004     H
H       0.5703   0.3658   0.0837     H
C       0.5841   0.5539    0.943     C
O       0.5903   0.2172   0.3283     O
C        0.591   0.0791    0.062     C
H       0.5942   0.3444    0.256     H
H       0.5959   0.3471   0.5385     H
C       0.6259   0.3337   0.3252     C
C       0.6285   0.9748   0.0031     C
C       0.6287   0.4723   0.9934     C
H       0.6407   0.5905   0.9045     H
H       0.6515   0.1329    0.104     H
O       0.7571   0.9851   0.7998     O
C       0.7704   0.4474   0.9926     C
C       0.7704   0.9485   0.0027     C
O       0.7729   0.5856   0.1994     O
H       0.7737   0.8141   0.0511     H
H       0.7783   0.2892   0.9386     H
O        0.788   0.8273   0.9898     O
O       0.7898   0.3338   0.0021     O
P       0.8004   0.3589   0.3312     P
H       0.8053   0.4541   0.9231     H
H       0.8103    0.992   0.0723     H
O       0.8281   0.4879   0.3531     O
O       0.8487   0.3157   0.4277     O
O       0.8507   0.2824   0.2263     O
P       0.8575   0.9908   0.8945     P
P       0.8652   0.5484   0.1011     P
H       0.8863   0.2558   0.4049     H
O       0.9039   0.1213   0.9349     O
O        0.908   0.6678   0.0654     O
H       0.9447   0.1321   0.9923     H
O        0.955   0.9026    0.854     O
H       0.9607   0.7012   0.1168     H
O       0.9714   0.4846   0.1312     O
La     0.99934  0.72733  0.92058    La
