data_I
_chemical_name_common  '/home/zhangsd/repos/MofS-CGCNN/ML/data/SSD/clean_cifs/RARYOZ_clean'
_cell_length_a 12.22750
_cell_length_b 14.43250
_cell_length_c 28.84300
_cell_angle_alpha 90.00000
_cell_angle_beta  90.00000
_cell_angle_gamma 90.00000
_space_group_name_H-M_alt      'P 1'


loop_
_space_group_symop_operation_xyz
  'x, y, z' 

loop_
_atom_site_label
_atom_site_fract_x
_atom_site_fract_y
_atom_site_fract_z
_atom_site_type_symbol
C       0.0161   0.1564   0.1699     C
C       0.0161   0.3436   0.6699     C
O       0.0246    0.078   0.0742     O
O       0.0246    0.422   0.5742     O
C       0.0252   0.1055   0.6199     C
C       0.0252   0.3945   0.1199     C
O       0.0277   0.5287    0.789     O
O       0.0277   0.9713    0.289     O
O       0.0468   0.7409   0.3414     O
O       0.0468   0.7591   0.8414     O
C       0.0523   0.2493    0.654     C
C       0.0523   0.2507    0.154     C
C       0.0683   0.0992   0.0374     C
C       0.0683   0.4008   0.5374     C
C        0.069   0.1989   0.0225     C
C        0.069   0.3011   0.5225     C
C       0.0755   0.1207   0.4931     C
C       0.0755   0.3793   0.9931     C
H        0.079   0.0598   0.4827     H
H        0.079   0.4402   0.9827     H
O       0.0868   0.1099   0.1933     O
O       0.0868   0.3901   0.6933     O
C       0.1124   0.5904    0.392     C
C       0.1124   0.9096    0.892     C
O       0.1214   0.0424   0.0125     O
O       0.1214   0.4576   0.5125     O
H        0.124   0.1225   0.8388     H
H        0.124   0.3775   0.3388     H
Gd     0.12612  0.60966  0.84294    Gd
Gd     0.12612  0.89034  0.34294    Gd
C       0.1341   0.0806   0.6318     C
C       0.1341   0.4194   0.1318     C
C       0.1467   0.1815     0.83     C
C       0.1467   0.3185     0.33     C
O       0.1491   0.0223   0.3895     O
O       0.1491   0.4777   0.8895     O
H       0.1496   0.2392   0.8958     H
H       0.1496   0.2608   0.3958     H
O       0.1521   0.6194   0.4296     O
O       0.1521   0.8806   0.9296     O
H       0.1527   0.1558   0.7622     H
H       0.1527   0.3442   0.2622     H
N       0.1555   0.2274   0.6664     N
N       0.1555   0.2726   0.1664     N
C       0.1628   0.2478   0.3647     C
C       0.1628   0.2522   0.8647     C
H       0.1634   0.0234   0.6237     H
H       0.1634   0.4766   0.1237     H
C       0.1647   0.2014   0.7844     C
C       0.1647   0.2986   0.2844     C
C       0.1654   0.2499   0.5252     C
C       0.1654   0.2501   0.0252     C
C        0.168   0.1614   0.5127     C
C        0.168   0.3386   0.0127     C
O       0.1716   0.5612   0.3599     O
O       0.1716   0.9388   0.8599     O
C       0.1945   0.1465   0.6561     C
C       0.1945   0.3535   0.1561     C
C       0.1974   0.1623   0.3517     C
C       0.1974   0.3377   0.8517     C
N       0.1989   0.2156    0.271     N
N       0.1989   0.2844    0.771     N
H       0.1993   0.0222   0.1198     H
H       0.1993   0.4778   0.6198     H
C       0.2138   0.1482   0.3036     C
C       0.2138   0.3518   0.8036     C
C       0.2165   0.0893   0.3866     C
C       0.2165   0.4107   0.8866     C
H       0.2289   0.2219    0.036     H
H       0.2289   0.2781    0.536     H
H       0.2313   0.1267   0.5169     H
H       0.2313   0.3733   0.0169     H
Co     0.24012  0.17043   0.2029    Co
Co     0.24012  0.32957   0.7029    Co
C       0.2539   0.0594   0.2839     C
C       0.2539   0.4406   0.7839     C
O       0.2597   0.5111   0.8087     O
O       0.2597   0.9889   0.3087     O
H       0.2654   0.1318   0.6652     H
H       0.2654   0.3682   0.1652     H
C       0.2729   0.0373   0.1166     C
C       0.2729   0.4627   0.6166     C
O       0.2863   0.0595   0.2418     O
O       0.2863   0.4405   0.7418     O
O       0.2915   0.7449   0.5188     O
O       0.2915   0.7551   0.0188     O
O       0.2936   0.0975   0.4136     O
O       0.2936   0.4025   0.9136     O
H       0.2966   0.5522   0.5672     H
H       0.2966   0.9478   0.0672     H
O       0.3015   0.6628   0.8576     O
O       0.3015   0.8372   0.3576     O
N       0.3144   0.1046   0.1444     N
N       0.3144   0.3954   0.6444     N
Co     0.32519  0.61966  0.03679    Co
Co     0.32519  0.88034  0.53679    Co
C       0.3304   0.5077   0.5856     C
C       0.3304   0.9923   0.0856     C
Gd     0.33997   0.5733   0.4067    Gd
Gd     0.33997   0.9267   0.9067    Gd
H       0.3412    0.716   0.6088     H
H       0.3412    0.784   0.1088     H
O        0.344   0.7343   0.4108     O
O        0.344   0.7657   0.9108     O
H        0.351    0.693    0.686     H
H        0.351    0.807    0.186     H
C       0.3526    0.733   0.1279     C
C       0.3526    0.767   0.6279     C
O       0.3547   0.6145   0.4867     O
O       0.3547   0.8855   0.9867     O
N       0.3582   0.6512   0.1082     N
N       0.3582   0.8488   0.6082     N
O       0.3613   0.0191   0.7402     O
O       0.3613   0.4809   0.2402     O
C       0.3621   0.7485   0.1734     C
C       0.3621   0.7515   0.6734     C
C       0.3672    0.697   0.5011     C
C       0.3672    0.803   0.0011     C
C       0.3689     0.71   0.8798     C
C       0.3689     0.79   0.3798     C
O       0.3809   0.0037   0.5628     O
O       0.3809   0.4963   0.0628     O
C       0.3897   0.6725   0.2012     C
C       0.3897   0.8275   0.7012     C
O       0.3899   0.2365   0.1992     O
O       0.3899   0.2635   0.6992     O
C       0.3899    0.582   0.1323     C
C       0.3899    0.918   0.6323     C
H       0.3968   0.6798   0.2331     H
H       0.3968   0.8202   0.7331     H
C       0.4066   0.5851   0.1808     C
C       0.4066   0.9149   0.6808     C
C       0.4105   0.0086   0.6048     C
C       0.4105   0.4914   0.1048     C
O       0.4209   0.6296   0.3369     O
O       0.4209   0.8704   0.8369     O
C       0.4228   0.1231     0.14     C
C       0.4228   0.3769     0.64     C
C       0.4322   0.5058   0.2136     C
C       0.4322   0.9942   0.7136     C
C       0.4429   0.0102   0.0797     C
C       0.4429   0.4898   0.5797     C
O       0.4487   0.0807   0.6238     O
O       0.4487   0.4193   0.1238     O
C       0.4576   0.2079   0.1678     C
C       0.4576   0.2921   0.6678     C
C       0.4786   0.7416   0.4955     C
C       0.4786   0.7584   0.9955     C
N       0.4798   0.6688    0.011     N
N       0.4798   0.8312    0.511     N
H       0.4815   0.5636   0.8961     H
H       0.4815   0.9364   0.3961     H
C       0.4843   0.6895   0.8683     C
C       0.4843   0.8105   0.3683     C
H       0.4845   0.5196   0.5572     H
H       0.4845   0.9804   0.0572     H
C       0.4894   0.0775   0.1107     C
C       0.4894   0.4225   0.6107     C
C       0.5161   0.6564   0.3301     C
C       0.5161   0.8436   0.8301     C
O       0.5246    0.578   0.4258     O
O       0.5246    0.922   0.9258     O
C       0.5252   0.6055   0.8801     C
C       0.5252   0.8945   0.3801     C
O       0.5277   0.0287    0.711     O
O       0.5277   0.4713    0.211     O
O       0.5468   0.2409   0.1586     O
O       0.5468   0.2591   0.6586     O
C       0.5523   0.7493    0.846     C
C       0.5523   0.7507    0.346     C
C       0.5683   0.5992   0.4626     C
C       0.5683   0.9008   0.9626     C
C        0.569   0.6989   0.4775     C
C        0.569   0.8011   0.9775     C
C       0.5755   0.6207   0.0069     C
C       0.5755   0.8793   0.5069     C
H        0.579   0.5598   0.0173     H
H        0.579   0.9402   0.5173     H
O       0.5868   0.6099   0.3067     O
O       0.5868   0.8901   0.8067     O
C       0.6124   0.0904    0.108     C
C       0.6124   0.4096    0.608     C
O       0.6214   0.5424   0.4875     O
O       0.6214   0.9576   0.9875     O
H        0.624   0.6225   0.6612     H
H        0.624   0.8775   0.1612     H
Gd     0.62612  0.10966  0.65706    Gd
Gd     0.62612  0.39034  0.15706    Gd
C       0.6341   0.5806   0.8682     C
C       0.6341   0.9194   0.3682     C
C       0.6467   0.6815     0.67     C
C       0.6467   0.8185     0.17     C
O       0.6491   0.5223   0.1105     O
O       0.6491   0.9777   0.6105     O
H       0.6496   0.7392   0.6042     H
H       0.6496   0.7608   0.1042     H
O       0.6521   0.1194   0.0704     O
O       0.6521   0.3806   0.5704     O
H       0.6527   0.6558   0.7378     H
H       0.6527   0.8442   0.2378     H
N       0.6555   0.7274   0.8336     N
N       0.6555   0.7726   0.3336     N
C       0.6628   0.7478   0.1353     C
C       0.6628   0.7522   0.6353     C
H       0.6634   0.5234   0.8763     H
H       0.6634   0.9766   0.3763     H
C       0.6647   0.7014   0.7156     C
C       0.6647   0.7986   0.2156     C
C       0.6654   0.7499   0.9748     C
C       0.6654   0.7501   0.4748     C
C        0.668   0.6614   0.9873     C
C        0.668   0.8386   0.4873     C
O       0.6716   0.0612   0.1401     O
O       0.6716   0.4388   0.6401     O
C       0.6945   0.6465   0.8439     C
C       0.6945   0.8535   0.3439     C
C       0.6974   0.6623   0.1483     C
C       0.6974   0.8377   0.6483     C
N       0.6989   0.7156    0.229     N
N       0.6989   0.7844    0.729     N
H       0.6993   0.5222   0.3802     H
H       0.6993   0.9778   0.8802     H
C       0.7138   0.6482   0.1964     C
C       0.7138   0.8518   0.6964     C
C       0.7165   0.5893   0.1134     C
C       0.7165   0.9107   0.6134     C
H       0.7289   0.7219    0.464     H
H       0.7289   0.7781    0.964     H
H       0.7313   0.6267   0.9831     H
H       0.7313   0.8733   0.4831     H
Co     0.74012  0.67043   0.2971    Co
Co     0.74012  0.82957   0.7971    Co
C       0.7539   0.5594   0.2161     C
C       0.7539   0.9406   0.7161     C
O       0.7597   0.0111   0.6913     O
O       0.7597   0.4889   0.1913     O
H       0.7654   0.6318   0.8348     H
H       0.7654   0.8682   0.3348     H
C       0.7729   0.5373   0.3834     C
C       0.7729   0.9627   0.8834     C
O       0.7863   0.5595   0.2582     O
O       0.7863   0.9405   0.7582     O
O       0.7915   0.2449   0.9812     O
O       0.7915   0.2551   0.4812     O
O       0.7936   0.5975   0.0864     O
O       0.7936   0.9025   0.5864     O
H       0.7966   0.0522   0.9328     H
H       0.7966   0.4478   0.4328     H
O       0.8015   0.1628   0.6424     O
O       0.8015   0.3372   0.1424     O
N       0.8144   0.6046   0.3556     N
N       0.8144   0.8954   0.8556     N
Co     0.82519  0.11966  0.46321    Co
Co     0.82519  0.38034  0.96321    Co
C       0.8304   0.0077   0.9144     C
C       0.8304   0.4923   0.4144     C
Gd     0.83997   0.0733   0.0933    Gd
Gd     0.83997   0.4267   0.5933    Gd
H       0.8412    0.216   0.8912     H
H       0.8412    0.284   0.3912     H
O        0.844   0.2343   0.0892     O
O        0.844   0.2657   0.5892     O
H        0.851    0.193    0.814     H
H        0.851    0.307    0.314     H
C       0.8526    0.233   0.3721     C
C       0.8526    0.267   0.8721     C
O       0.8547   0.1145   0.0133     O
O       0.8547   0.3855   0.5133     O
N       0.8582   0.1512   0.3918     N
N       0.8582   0.3488   0.8918     N
O       0.8613   0.5191   0.7598     O
O       0.8613   0.9809   0.2598     O
C       0.8621   0.2485   0.3266     C
C       0.8621   0.2515   0.8266     C
C       0.8672    0.197   0.9989     C
C       0.8672    0.303   0.4989     C
C       0.8689     0.21   0.6202     C
C       0.8689     0.29   0.1202     C
O       0.8809   0.5037   0.9372     O
O       0.8809   0.9963   0.4372     O
C       0.8897   0.1725   0.2988     C
C       0.8897   0.3275   0.7988     C
C       0.8899    0.082   0.3677     C
C       0.8899    0.418   0.8677     C
O       0.8899   0.7365   0.3008     O
O       0.8899   0.7635   0.8008     O
H       0.8968   0.1798   0.2669     H
H       0.8968   0.3202   0.7669     H
C       0.9066   0.0851   0.3192     C
C       0.9066   0.4149   0.8192     C
C       0.9105   0.5086   0.8952     C
C       0.9105   0.9914   0.3952     C
O       0.9209   0.1296   0.1631     O
O       0.9209   0.3704   0.6631     O
C       0.9228   0.6231     0.36     C
C       0.9228   0.8769     0.86     C
C       0.9322   0.0058   0.2864     C
C       0.9322   0.4942   0.7864     C
C       0.9429   0.5102   0.4203     C
C       0.9429   0.9898   0.9203     C
O       0.9487   0.5807   0.8762     O
O       0.9487   0.9193   0.3762     O
C       0.9576   0.7079   0.3322     C
C       0.9576   0.7921   0.8322     C
C       0.9786   0.2416   0.0045     C
C       0.9786   0.2584   0.5045     C
N       0.9798   0.1688    0.489     N
N       0.9798   0.3312    0.989     N
H       0.9815   0.0636   0.6039     H
H       0.9815   0.4364   0.1039     H
C       0.9843   0.1895   0.6317     C
C       0.9843   0.3105   0.1317     C
H       0.9845   0.0196   0.9428     H
H       0.9845   0.4804   0.4428     H
C       0.9894   0.5775   0.3893     C
C       0.9894   0.9225   0.8893     C
