data_I
_chemical_name_common  '/home/zhangsd/repos/MofS-CGCNN/ML/data/SSD/clean_cifs/RAYLAG_clean'
_cell_length_a 16.57640
_cell_length_b 16.57640
_cell_length_c 25.25040
_cell_angle_alpha 90.00000
_cell_angle_beta  90.00000
_cell_angle_gamma 120.00000
_space_group_name_H-M_alt      'P 1'


loop_
_space_group_symop_operation_xyz
  'x, y, z' 

loop_
_atom_site_label
_atom_site_fract_x
_atom_site_fract_y
_atom_site_fract_z
_atom_site_type_symbol
C      0.01076  0.39514  0.99515     C
C      0.01076  0.61562  0.33818     C
H       0.0131   0.4258  0.49017     H
H       0.0131   0.5873  0.84317     H
H       0.0217    0.385  0.21283     H
H       0.0217   0.6367   0.1205     H
C      0.03472  0.39946  0.24854     C
C      0.03472  0.63526  0.08479     C
C      0.03647  0.39577  0.04675     C
C      0.03647   0.6407  0.28658     C
C      0.03728  0.48838  0.55636     C
C      0.03728   0.5489  0.77698     C
C       0.0527   0.4455  0.51931     C
C       0.0527   0.6072  0.81403     C
H       0.0555    0.417   0.9685     H
H       0.0555   0.6385  0.36483     H
C      0.08286  0.44445  0.35093     C
C      0.08286  0.63841   0.9824     C
H       0.0991   0.4574  0.38643     H
H       0.0991   0.6417   0.9469     H
C       0.1018   0.5197  0.59341     C
H       0.1018   0.5413  0.71467     H
H       0.1018   0.5605  0.61867     H
C       0.1018   0.5821  0.73993     C
O      0.11517  0.37875  0.14157     O
O      0.11517  0.73642  0.19176     O
H        0.122   0.2617  0.86227     H
H        0.122   0.8603  0.47107     H
C      0.12381   0.4604  0.26495     C
C      0.12381  0.66341  0.06838     C
C       0.1245   0.4271   0.5202     C
C       0.1245   0.6974  0.81314     C
N      0.12774  0.42469  0.05803     N
N      0.12774  0.70305   0.2753     N
H       0.1354   0.4014  0.49017     H
H       0.1354    0.734  0.84317     H
H       0.1397   0.2617   0.8044     H
H       0.1397    0.878  0.52893     H
N      0.14587  0.29174  0.83333     N
N      0.14587  0.85412      0.5     N
N      0.14901  0.48346  0.31521     N
N      0.14901  0.66555  0.01812     N
C      0.16325  0.41176  0.10297     C
C      0.16325  0.75149  0.23036     C
H       0.1672   0.4548   0.0333     H
H       0.1672   0.7124  0.30003     H
H       0.1698   0.4875  0.23913     H
H       0.1698   0.6823   0.0942     H
C      0.17007   0.4942  0.59629     C
C      0.17007  0.67587  0.73705     C
C      0.17873  0.44414  0.56149     C
C      0.17873  0.73459  0.77185     C
H       0.1796   0.4054   0.9108     H
H       0.1796   0.7742  0.42253     H
C      0.19464  0.38928  0.83333     C
C      0.19464  0.80536      0.5     C
C      0.20428  0.43767   0.8794     C
C      0.20428  0.76661  0.45393     C
H       0.2109   0.5148  0.62487     H
H       0.2109   0.6961  0.70847     H
H       0.2258   0.4054  0.75587     H
H       0.2258   0.8204  0.57747     H
O      0.23239  0.54005   0.9724     O
O      0.23239  0.69234  0.36093     O
C      0.23339  0.43767  0.78727     C
C      0.23339  0.79572  0.54607     C
C      0.24851  0.41176   0.5637     C
C      0.24851  0.83675  0.76964     C
C      0.25094  0.53496   0.8792     C
C      0.25094  0.71598  0.45413     C
C       0.2585  0.58513  0.93037     C
C       0.2585  0.67337  0.40296     C
H       0.2617    0.122  0.13773     H
H       0.2617   0.1397   0.1956     H
O      0.26358  0.37875   0.5251     O
O      0.26358  0.88483  0.80824     O
C      0.26541  0.44414  0.10518     C
C      0.26541  0.82127  0.22815     C
H        0.266   0.4014   0.1765     H
H        0.266   0.8646  0.15683     H
C      0.28402  0.53496  0.78747     C
C      0.28402  0.74906  0.54587     C
Zn     0.28598  0.57196  0.33333    Zn
Zn     0.28598  0.71403      0.0    Zn
H       0.2876   0.4548  0.63337     H
H       0.2876   0.8328  0.69997     H
O      0.29071  0.62064  0.40506     O
O      0.29071  0.67007  0.92827     O
C      0.29116  0.58232  0.83333     C
C      0.29116  0.70884      0.5     C
N      0.29175  0.14588  0.16667     N
N      0.29695  0.42469  0.60864     N
N      0.29695  0.87226   0.7247     N
C       0.3026   0.4271  0.14647     C
C       0.3026   0.8755  0.18686     C
H       0.3039   0.5148   0.0418     H
H       0.3039   0.7891  0.29153     H
O      0.30766  0.54005  0.69427     O
O      0.30766  0.76761  0.63907     O
H       0.3177   0.4875  0.42753     H
H       0.3177   0.8302   0.9058     H
H       0.3236   0.6472  0.83333     H
H       0.3236   0.6764      0.5     H
C      0.32413   0.4942  0.07038     C
C      0.32413  0.82993  0.26295     C
C      0.32663  0.58513   0.7363     C
C      0.32663   0.7415  0.59704     C
O      0.32993  0.62064   0.2616     O
O      0.32993  0.70929  0.07173     O
N      0.33445  0.48346  0.35145     N
N      0.33445  0.85099  0.98188     N
C      0.33659   0.4604  0.40171     C
C      0.33659  0.87619  0.93162     C
H       0.3528   0.6764  0.16667     H
H       0.3583   0.4574  0.28023     H
H       0.3583   0.9009   0.0531     H
C       0.3593  0.39577  0.61992     C
C       0.3593  0.96353  0.71342     C
H       0.3615    0.417  0.69817     H
H       0.3615   0.9445  0.63517     H
C      0.36159  0.44445  0.31573     C
C      0.36159  0.91714   0.0176     C
H       0.3633    0.385  0.45383     H
H       0.3633   0.9783   0.8795     H
C      0.36474  0.39946  0.41812     C
C      0.36474  0.96528  0.91521     C
O      0.37875  0.11517  0.85843     O
O      0.37875  0.26358   0.4749     O
O      0.37936  0.67007   0.7384     O
O      0.37936  0.70929  0.59494     O
C      0.38438  0.39514  0.67152     C
C      0.38438  0.98924  0.66182     C
H        0.385   0.0217  0.78717     H
H        0.385   0.3633  0.54617     H
C      0.38928  0.19464  0.16667     C
C       0.3928   0.4455  0.14736     C
C       0.3928   0.9473  0.18597     C
C      0.39514  0.01076  0.00485     C
C      0.39514  0.38438  0.32848     C
C      0.39577  0.03647  0.95325     C
C      0.39577   0.3593  0.38008     C
C      0.39946  0.03472  0.75146     C
C      0.39946  0.36474  0.58188     C
H       0.4014   0.1354  0.50983     H
H       0.4014    0.266   0.8235     H
H       0.4054   0.1796   0.0892     H
H       0.4054   0.2258  0.24413     H
C      0.41176  0.16325  0.89703     C
C      0.41176  0.24851   0.4363     C
H       0.4127   0.4258   0.1765     H
H       0.4127   0.9869  0.15683     H
C      0.41487  0.67337   0.2637     C
C      0.41487   0.7415  0.06963     C
H        0.417   0.0555   0.0315     H
H        0.417   0.3615  0.30183     H
C      0.41768  0.70884  0.16667     C
C       0.4179   0.5197  0.07326     C
C       0.4179   0.8982  0.26007     C
N      0.42469  0.12774  0.94197     N
N      0.42469  0.29695  0.39136     N
H       0.4258   0.0131  0.50983     H
H       0.4258   0.4127   0.8235     H
C       0.4271   0.1245   0.4798     C
C       0.4271   0.3026  0.85353     C
Zn     0.42805  0.71403  0.66667    Zn
C      0.43767  0.20428   0.1206     C
C      0.43767  0.23339  0.21273     C
H       0.4395   0.5413    0.952     H
H       0.4395   0.8982  0.38133     H
C      0.44414  0.17873  0.43851     C
C      0.44414  0.26541  0.89482     C
C      0.44445  0.08286  0.64907     C
C      0.44445  0.36159  0.68427     C
C       0.4455   0.0527  0.48069     C
C       0.4455   0.3928  0.85264     C
C       0.4511  0.48838  0.11031     C
C       0.4511  0.96272  0.22302     C
H       0.4548   0.1672   0.9667     H
H       0.4548   0.2876  0.36663     H
H       0.4574   0.0991  0.61357     H
H       0.4574   0.3583  0.71977     H
H       0.4587   0.5605    0.048     H
H       0.4587   0.8982  0.28533     H
O      0.45995  0.69234  0.30573     O
O      0.45995  0.76761   0.0276     O
C       0.4604  0.12381  0.73505     C
C       0.4604  0.33659  0.59829     C
C      0.46504  0.71598  0.21253     C
C      0.46504  0.74906   0.1208     C
C       0.4803   0.5821  0.92674     C
C       0.4803   0.8982  0.40659     C
N      0.48346  0.14901  0.68479     N
N      0.48346  0.33445  0.64855     N
H       0.4852   0.6961   0.9582     H
H       0.4852   0.7891  0.37513     H
H       0.4875   0.1698  0.76087     H
H       0.4875   0.3177  0.57247     H
C      0.48838  0.03728  0.44364     C
C      0.48838   0.4511  0.88969     C
C       0.4942  0.17007  0.40371     C
C       0.4942  0.32413  0.92962     C
C       0.5058  0.67587  0.92962     C
C       0.5058  0.82993  0.40371     C
C      0.51162   0.5489  0.88969     C
C      0.51162  0.96272  0.44364     C
H       0.5125   0.6823  0.57247     H
H       0.5125   0.8302  0.76087     H
H       0.5148   0.2109  0.37513     H
H       0.5148   0.3039   0.9582     H
N      0.51654  0.66555  0.64855     N
N      0.51654  0.85099  0.68479     N
C       0.5197   0.1018  0.40659     C
C       0.5197   0.4179  0.92674     C
C      0.53496  0.25094   0.1208     C
C      0.53496  0.28402  0.21253     C
C       0.5396  0.66341  0.59829     C
C       0.5396  0.87619  0.73505     C
O      0.54005  0.23239   0.0276     O
O      0.54005  0.30766  0.30573     O
H       0.5413   0.1018  0.28533     H
H       0.5413   0.4395    0.048     H
H       0.5426   0.6417  0.71977     H
H       0.5426   0.9009  0.61357     H
H       0.5452   0.7124  0.36663     H
H       0.5452   0.8328   0.9667     H
C       0.5489  0.03728  0.22302     C
C       0.5489  0.51162  0.11031     C
C       0.5545   0.6072  0.85264     C
C       0.5545   0.9473  0.48069     C
C      0.55555  0.63841  0.68427     C
C      0.55555  0.91714  0.64907     C
C      0.55586  0.73459  0.89482     C
C      0.55586  0.82127  0.43851     C
H       0.5605   0.1018  0.38133     H
H       0.5605   0.4587    0.952     H
C      0.56233  0.76661  0.21273     C
C      0.56233  0.79572   0.1206     C
Zn     0.57195  0.28597  0.66667    Zn
C       0.5729   0.6974  0.85353     C
C       0.5729   0.8755   0.4798     C
H       0.5742   0.5873   0.8235     H
H       0.5742   0.9869  0.50983     H
N      0.57531  0.70305  0.39136     N
N      0.57531  0.87226  0.94197     N
C       0.5821   0.1018  0.26007     C
C       0.5821   0.4803  0.07326     C
C      0.58232  0.29116  0.16667     C
H        0.583   0.6385  0.30183     H
H        0.583   0.9445   0.0315     H
C      0.58513   0.2585  0.06963     C
C      0.58513  0.32663   0.2637     C
H       0.5873   0.0131  0.15683     H
H       0.5873   0.5742   0.1765     H
C      0.58824  0.75149   0.4363     C
C      0.58824  0.83675  0.89703     C
H       0.5946   0.7742  0.24413     H
H       0.5946   0.8204   0.0892     H
H       0.5986    0.734   0.8235     H
H       0.5986   0.8646  0.50983     H
C      0.60054  0.63526  0.58188     C
C      0.60054  0.96528  0.75146     C
C      0.60423   0.6407  0.38008     C
C      0.60423  0.96353  0.95325     C
C      0.60486  0.61562  0.32848     C
C      0.60486  0.98924  0.00485     C
C       0.6072   0.0527  0.18597     C
C       0.6072   0.5545  0.14736     C
C      0.61072  0.80536  0.16667     C
H        0.615   0.6367  0.54617     H
H        0.615   0.9783  0.78717     H
C      0.61562  0.01076  0.66182     C
C      0.61562  0.60486  0.67152     C
O      0.62064  0.29071  0.59494     O
O      0.62064  0.32993   0.7384     O
O      0.62125  0.73642   0.4749     O
O      0.62125  0.88483  0.85843     O
C      0.63526  0.03472  0.91521     C
C      0.63526  0.60054  0.41812     C
H       0.6367   0.0217   0.8795     H
H       0.6367    0.615  0.45383     H
C      0.63841  0.08286   0.0176     C
C      0.63841  0.55555  0.31573     C
H       0.6385   0.0555  0.63517     H
H       0.6385    0.583  0.69817     H
C       0.6407  0.03647  0.71342     C
C       0.6407  0.60423  0.61992     C
H       0.6417   0.0991   0.0531     H
H       0.6417   0.5426  0.28023     H
H       0.6472   0.3236  0.16667     H
C      0.66341  0.12381  0.93162     C
C      0.66341   0.5396  0.40171     C
N      0.66555  0.14901  0.98188     N
N      0.66555  0.51654  0.35145     N
O      0.67007  0.29071  0.07173     O
O      0.67007  0.37936   0.2616     O
C      0.67337   0.2585  0.59704     C
C      0.67337  0.41487   0.7363     C
C      0.67587  0.17007  0.26295     C
C      0.67587   0.5058  0.07038     C
H       0.6764   0.3236      0.5     H
H       0.6764   0.3528  0.83333     H
H       0.6823   0.1698   0.9058     H
H       0.6823   0.5125  0.42753     H
O      0.69234  0.23239  0.63907     O
O      0.69234  0.45995  0.69427     O
H       0.6961   0.2109  0.29153     H
H       0.6961   0.4852   0.0418     H
C       0.6974   0.1245  0.18686     C
C       0.6974   0.5729  0.14647     C
N      0.70305  0.12774   0.7247     N
N      0.70305  0.57531  0.60864     N
N      0.70825  0.85412  0.16667     N
C      0.70884  0.29116      0.5     C
C      0.70884  0.41768  0.83333     C
O      0.70929  0.32993  0.92827     O
O      0.70929  0.37936  0.40506     O
H       0.7124   0.1672  0.69997     H
H       0.7124   0.5452  0.63337     H
Zn     0.71402  0.28597      0.0    Zn
Zn     0.71402  0.42804  0.33333    Zn
C      0.71598  0.25094  0.54587     C
C      0.71598  0.46504  0.78747     C
H        0.734   0.1354  0.15683     H
H        0.734   0.5986   0.1765     H
C      0.73459  0.17873  0.22815     C
C      0.73459  0.55586  0.10518     C
O      0.73642  0.11517  0.80824     O
O      0.73642  0.62125   0.5251     O
H       0.7383   0.8603   0.1956     H
H       0.7383    0.878  0.13773     H
C       0.7415  0.32663  0.40296     C
C       0.7415  0.41487  0.93037     C
C      0.74906  0.28402  0.45413     C
C      0.74906  0.46504   0.8792     C
C      0.75149  0.16325  0.76964     C
C      0.75149  0.58824   0.5637     C
C      0.76661  0.20428  0.54607     C
C      0.76661  0.56233  0.78727     C
O      0.76761  0.30766  0.36093     O
O      0.76761  0.45995   0.9724     O
H       0.7742   0.1796  0.57747     H
H       0.7742   0.5946  0.75587     H
H       0.7891   0.3039  0.70847     H
H       0.7891   0.4852  0.62487     H
C      0.79572  0.23339  0.45393     C
C      0.79572  0.56233   0.8794     C
C      0.80536  0.19464      0.5     C
C      0.80536  0.61072  0.83333     C
H       0.8204   0.2258  0.42253     H
H       0.8204   0.5946   0.9108     H
C      0.82127  0.26541  0.77185     C
C      0.82127  0.55586  0.56149     C
C      0.82993  0.32413  0.73705     C
C      0.82993   0.5058  0.59629     C
H       0.8302   0.3177   0.0942     H
H       0.8302   0.5125  0.23913     H
H       0.8328   0.2876  0.30003     H
H       0.8328   0.5452   0.0333     H
C      0.83675  0.24851  0.23036     C
C      0.83675  0.58824  0.10297     C
N      0.85099  0.33445  0.01812     N
N      0.85099  0.51654  0.31521     N
N      0.85413  0.14588      0.5     N
N      0.85413  0.70826  0.83333     N
H       0.8603    0.122  0.52893     H
H       0.8603   0.7383   0.8044     H
H       0.8646    0.266  0.84317     H
H       0.8646   0.5986  0.49017     H
N      0.87226  0.29695   0.2753     N
N      0.87226  0.57531  0.05803     N
C       0.8755   0.3026  0.81314     C
C       0.8755   0.5729   0.5202     C
C      0.87619  0.33659  0.06838     C
C      0.87619   0.5396  0.26495     C
H        0.878   0.1397  0.47107     H
H        0.878   0.7383  0.86227     H
O      0.88483  0.26358  0.19176     O
O      0.88483  0.62125  0.14157     O
C       0.8982   0.4179  0.73993     C
H       0.8982   0.4395  0.61867     H
H       0.8982   0.4587  0.71467     H
C       0.8982   0.4803  0.59341     C
H       0.9009   0.3583   0.9469     H
H       0.9009   0.5426  0.38643     H
C      0.91714  0.36159   0.9824     C
C      0.91714  0.55555  0.35093     C
H       0.9445   0.3615  0.36483     H
H       0.9445    0.583   0.9685     H
C       0.9473   0.3928  0.81403     C
C       0.9473   0.5545  0.51931     C
C      0.96272   0.4511  0.77698     C
C      0.96272  0.51162  0.55636     C
C      0.96353   0.3593  0.28658     C
C      0.96353  0.60423  0.04675     C
C      0.96528  0.36474  0.08479     C
C      0.96528  0.60054  0.24854     C
H       0.9783   0.3633   0.1205     H
H       0.9783    0.615  0.21283     H
H       0.9869   0.4127  0.84317     H
H       0.9869   0.5742  0.49017     H
C      0.98924  0.38438  0.33818     C
C      0.98924  0.60486  0.99515     C
