data_I
_chemical_name_common  '/home/zhangsd/repos/MofS-CGCNN/ML/data/SSD/clean_cifs/REYBAA_clean'
_cell_length_a  8.15800
_cell_length_b 17.41800
_cell_length_c 17.55800
_cell_angle_alpha 90.00000
_cell_angle_beta  98.28000
_cell_angle_gamma 90.00000
_space_group_name_H-M_alt      'P 1'


loop_
_space_group_symop_operation_xyz
  'x, y, z' 

loop_
_atom_site_label
_atom_site_fract_x
_atom_site_fract_y
_atom_site_fract_z
_atom_site_type_symbol
C       0.0024   0.0773   0.2112     C
C       0.0025   0.4631   0.0685     C
H       0.0058   0.8335   0.4137     H
H       0.0059   0.4377   0.1154     H
H       0.0176   0.6657   0.5541     H
C       0.0286    0.943   0.1887     C
N       0.0329   0.1268   0.8367     N
C       0.0354   0.6815   0.6052     C
H       0.0509   0.2721   0.9747     H
C       0.0527   0.8732   0.5232     C
C        0.057   0.3386   0.8396     C
H       0.0658   0.8799   0.7889     H
C       0.0686   0.9927   0.8117     C
N       0.0703   0.2566   0.2906     N
O       0.0733    0.704   0.1593     O
C       0.0733    0.726   0.7538     C
O       0.0803   0.3776   0.7837     O
C       0.0838   0.8339   0.4579     C
H       0.0856   0.7402   0.8053     H
C       0.0863   0.2797   0.3643     C
O       0.0905   0.0877   0.4703     O
O       0.0961   0.2189   0.1098     O
H       0.1277   0.5302   0.2473     H
C       0.1372   0.5413   0.9842     C
C       0.1382    0.504    0.054     C
C       0.1509   0.2978   0.9752     C
H       0.1509   0.9028   0.6317     H
O       0.1603   0.7532   0.3301     O
N       0.1672   0.0859   0.2336     N
C       0.1711   0.8756   0.5885     C
H       0.1747   0.0654   0.5784     H
C       0.1808   0.3372   0.9115     C
H       0.1822   0.9962   0.8273     H
H       0.1847   0.2688   0.3962     H
C       0.1865   0.6658   0.6514     C
N       0.1896   0.1293   0.8793     N
C       0.1984   0.9517   0.2146     C
H       0.2007   0.1788   0.7386     H
C       0.2023   0.6887   0.7281     C
C       0.2165   0.0876   0.5343     C
H       0.2308   0.4096   0.2824     H
C       0.2312   0.2528   0.1108     C
H       0.2314   0.5068   0.0912     H
C       0.2317   0.7956   0.4596     C
C       0.2405   0.5249    0.264     C
Zn     0.24581  0.69417  0.24826    Zn
H        0.249   0.6398   0.9529     H
H        0.251   0.1398   0.5471     H
Zn     0.25419  0.19417  0.25174    Zn
C       0.2595   0.0249    0.236     C
C       0.2683   0.2956   0.0404     C
H       0.2686   0.0068   0.4088     H
C       0.2688   0.7528   0.3892     C
H       0.2692   0.9096   0.2176     H
C       0.2835   0.5876   0.9657     C
C       0.2977   0.1887   0.7719     C
H       0.2993   0.6788   0.7614     H
C       0.3016   0.4517   0.2854     C
N       0.3104   0.6293   0.6207     N
C       0.3135   0.1658   0.8486     C
H       0.3153   0.7688   0.1038     H
H       0.3178   0.4962   0.6727     H
C       0.3192   0.8372   0.5885     C
H       0.3253   0.5654   0.9216     H
C       0.3289   0.3756   0.9115     C
N       0.3328   0.5859   0.2664     N
O       0.3397   0.2532   0.1699     O
H       0.3491   0.4028   0.8683     H
C       0.3491   0.7978   0.5248     C
C       0.3618    0.004    0.446     C
C       0.3628   0.0413   0.5158     C
H       0.3723   0.0302   0.2527     H
O       0.4039   0.7189   0.3902     O
O       0.4095   0.5877   0.0297     O
C       0.4137   0.7797   0.1357     C
H       0.4144   0.2402   0.6947     H
C       0.4162   0.3339   0.0421     C
O       0.4197   0.8776   0.7163     O
O       0.4267    0.204   0.3407     O
C       0.4267    0.226   0.7462     C
N       0.4297   0.7566   0.2094     N
C       0.4314   0.4927   0.6883     C
H       0.4342   0.3799   0.7111     H
C        0.443   0.8386   0.6604     C
C       0.4473   0.3732   0.9768     C
H       0.4491   0.7721   0.5253     H
C       0.4646   0.1815   0.8948     C
N       0.4671   0.6268   0.6633     N
C       0.4714    0.443   0.3113     C
H       0.4824   0.1657   0.9459     H
H       0.4941   0.9377   0.3846     H
H       0.4942   0.3335   0.0863     H
C       0.4975   0.9631   0.4315     C
C       0.4976   0.5773   0.2888     C
C       0.5024   0.4227   0.7112     C
C       0.5025   0.0369   0.5685     C
H       0.5058   0.6665   0.9137     H
H       0.5059   0.0623   0.6154     H
H       0.5176   0.8343   0.0541     H
C       0.5286    0.557   0.6887     C
N       0.5329   0.3732   0.3367     N
C       0.5354   0.8185   0.1052     C
H       0.5509   0.2279   0.4747     H
C       0.5527   0.6268   0.0232     C
C        0.557   0.1614   0.3396     C
H       0.5658   0.6201   0.2889     H
C       0.5686   0.5073   0.3117     C
N       0.5703   0.2434   0.7906     N
C       0.5733    0.774   0.2538     C
O       0.5733    0.796   0.6593     O
O       0.5803   0.1224   0.2837     O
C       0.5838   0.6661   0.9579     C
H       0.5856   0.7598   0.3053     H
C       0.5863   0.2203   0.8643     C
O       0.5905   0.4123   0.9703     O
O       0.5961   0.2811   0.6098     O
H       0.6277   0.9698   0.7473     H
C       0.6372   0.9587   0.4842     C
C       0.6382    0.996    0.554     C
C       0.6509   0.2022   0.4752     C
H       0.6509   0.5972   0.1317     H
O       0.6603   0.7468   0.8301     O
N       0.6672   0.4141   0.7336     N
C       0.6711   0.6244   0.0885     C
H       0.6747   0.4346   0.0784     H
C       0.6808   0.1628   0.4115     C
H       0.6822   0.5038   0.3273     H
H       0.6847   0.2312   0.8962     H
C       0.6865   0.8342   0.1514     C
N       0.6896   0.3707   0.3793     N
C       0.6984   0.5483   0.7146     C
H       0.7007   0.3212   0.2386     H
C       0.7023   0.8113   0.2281     C
C       0.7165   0.4124   0.0343     C
H       0.7308   0.0904   0.7824     H
C       0.7312   0.2472   0.6108     C
H       0.7314   0.9932   0.5912     H
C       0.7317   0.7044   0.9596     C
C       0.7405   0.9751    0.764     C
Zn     0.74581  0.80583  0.74826    Zn
H        0.749   0.8602   0.4529     H
H        0.751   0.3602   0.0471     H
Zn     0.75419  0.30583  0.75174    Zn
C       0.7595   0.4751    0.736     C
C       0.7683   0.2044   0.5404     C
H       0.7686   0.4932   0.9088     H
C       0.7688   0.7472   0.8892     C
H       0.7692   0.5904   0.7176     H
C       0.7835   0.9124   0.4657     C
C       0.7977   0.3113   0.2719     C
H       0.7993   0.8212   0.2614     H
C       0.8016   0.0483   0.7854     C
N       0.8104   0.8707   0.1207     N
C       0.8135   0.3342   0.3486     C
H       0.8153   0.7312   0.6038     H
H       0.8178   0.0038   0.1727     H
C       0.8192   0.6628   0.0885     C
H       0.8253   0.9346   0.4216     H
C       0.8289   0.1244   0.4115     C
N       0.8328   0.9141   0.7664     N
O       0.8397   0.2468   0.6699     O
H       0.8491   0.0972   0.3683     H
C       0.8491   0.7022   0.0248     C
C       0.8618    0.496    0.946     C
C       0.8628   0.4587   0.0158     C
H       0.8723   0.4698   0.7527     H
O       0.9039   0.7811   0.8902     O
O       0.9095   0.9123   0.5297     O
C       0.9137   0.7203   0.6357     C
H       0.9144   0.2598   0.1947     H
C       0.9162   0.1661   0.5421     C
O       0.9197   0.6224   0.2163     O
C       0.9267    0.274   0.2462     C
O       0.9267    0.296   0.8407     O
N       0.9297   0.7434   0.7094     N
C       0.9314   0.0073   0.1883     C
H       0.9342   0.1201   0.2111     H
C        0.943   0.6614   0.1604     C
C       0.9473   0.1268   0.4768     C
H       0.9491   0.7279   0.0253     H
C       0.9646   0.3185   0.3948     C
N       0.9671   0.8732   0.1633     N
C       0.9714    0.057   0.8113     C
H       0.9824   0.3343   0.4459     H
H       0.9941   0.5623   0.8846     H
H       0.9942   0.1665   0.5863     H
C       0.9975   0.5369   0.9315     C
C       0.9976   0.9227   0.7888     C
