data_I
_chemical_name_common  '/home/zhangsd/repos/MofS-CGCNN/ML/data/SSD/clean_cifs/REYJEM_clean'
_cell_length_a 12.26200
_cell_length_b 13.57200
_cell_length_c 24.93400
_cell_angle_alpha 90.00000
_cell_angle_beta  90.00000
_cell_angle_gamma 90.00000
_space_group_name_H-M_alt      'P 1'


loop_
_space_group_symop_operation_xyz
  'x, y, z' 

loop_
_atom_site_label
_atom_site_fract_x
_atom_site_fract_y
_atom_site_fract_z
_atom_site_type_symbol
C          0.0   0.4747     0.25     C
C          0.0   0.5253     0.75     C
O       0.0026   0.1247  0.06703     O
O       0.0026   0.8753  0.93297     O
H       0.0035   0.3002   0.6113     H
H       0.0035   0.6998   0.3887     H
In     0.00587      0.0      0.5    In
H       0.0256   0.3575   0.1944     H
H       0.0256   0.6425   0.8056     H
O       0.0279   0.1491  0.55333     O
O       0.0279   0.8509  0.44667     O
C       0.0352   0.3995   0.2958     C
C       0.0352   0.6005   0.7042     C
O       0.0493   0.4146   0.8129     O
O       0.0493   0.5854   0.1871     O
H       0.0497   0.2662   0.3651     H
H       0.0497   0.7338   0.6349     H
H       0.0594   0.4348   0.3274     H
H       0.0594   0.5652   0.6726     H
C       0.0634   0.2834   0.8737     C
C       0.0634   0.7166   0.1263     C
C       0.0781    0.134   0.9379     C
C       0.0781    0.866   0.0621     C
C       0.0888   0.1063   0.4204     C
C       0.0888   0.8937   0.5796     C
C       0.0941   0.4669   0.7693     C
C       0.0941   0.5331   0.2307     C
C       0.1065   0.2318   0.3489     C
C       0.1065   0.7682   0.6511     C
C       0.1073   0.3441   0.8272     C
C       0.1073   0.6559   0.1728     C
O       0.1185   0.0711   0.9531     O
O       0.1185   0.9289   0.0469     O
C         0.12   0.2041   0.8943     C
C         0.12   0.7959   0.1057     C
H       0.1205   0.4224   0.7418     H
H       0.1205   0.5776   0.2582     H
O       0.1234   0.3413   0.2737     O
O       0.1234   0.6587   0.7263     O
O       0.1394   0.0418   0.4496     O
O       0.1394   0.9582   0.5504     O
C        0.145   0.1446   0.3717     C
C        0.145   0.8554   0.6283     C
C       0.1521   0.2663   0.3031     C
C       0.1521   0.7337   0.6969     C
H       0.1534   0.4907   0.2192     H
H       0.1534   0.5093   0.7808     H
C       0.2028   0.3118   0.8065     C
C       0.2028   0.6882   0.1935     C
C       0.2243   0.1784   0.8758     C
C       0.2243   0.8216   0.1242     C
C       0.2249   0.0949   0.3492     C
C       0.2249   0.9051   0.6508     C
C       0.2351   0.2067   0.2786     C
H       0.2351   0.3458   0.7782     H
H       0.2351   0.6542   0.2218     H
C       0.2351   0.7933   0.7214     C
H       0.2521    0.039   0.3661     H
H       0.2521    0.961   0.6339     H
C       0.2574   0.2209    0.829     C
C       0.2574   0.7791    0.171     C
H       0.2658   0.2265   0.2463     H
H       0.2658   0.7735   0.7537     H
C       0.2685    0.124   0.3016     C
C       0.2685    0.876   0.6984     C
H       0.2686   0.1347   0.8945     H
H       0.2686   0.8653   0.1055     H
C       0.3526    0.181    0.799     C
C       0.3526    0.819    0.201     C
C       0.3571   0.0389   0.2794     C
C       0.3571   0.9611   0.7206     C
O       0.3764   0.2123    0.743     O
O       0.3764   0.7877    0.257     O
O       0.3884   0.0825   0.2307     O
O       0.3884   0.9175   0.7693     O
O       0.3997   0.0065   0.6973     O
O       0.3997   0.9935   0.3027     O
O       0.4177   0.1242   0.8246     O
O       0.4177   0.8758   0.1754     O
In         0.5  0.08757     0.75    In
In         0.5  0.91243     0.25    In
O       0.5823   0.1242   0.6754     O
O       0.5823   0.8758   0.3246     O
O       0.6003   0.0065   0.8027     O
O       0.6003   0.9935   0.1973     O
O       0.6116   0.0825   0.2693     O
O       0.6116   0.9175   0.7307     O
O       0.6236   0.2123    0.757     O
O       0.6236   0.7877    0.243     O
C       0.6429   0.0389   0.2206     C
C       0.6429   0.9611   0.7794     C
C       0.6474    0.181    0.701     C
C       0.6474    0.819    0.299     C
H       0.7314   0.1347   0.6055     H
H       0.7314   0.8653   0.3945     H
C       0.7315    0.124   0.1984     C
C       0.7315    0.876   0.8016     C
H       0.7342   0.2265   0.2537     H
H       0.7342   0.7735   0.7463     H
C       0.7426   0.2209    0.671     C
C       0.7426   0.7791    0.329     C
H       0.7479    0.039   0.1339     H
H       0.7479    0.961   0.8661     H
C       0.7649   0.2067   0.2214     C
H       0.7649   0.3458   0.7218     H
H       0.7649   0.6542   0.2782     H
C       0.7649   0.7933   0.7786     C
C       0.7751   0.0949   0.1508     C
C       0.7751   0.9051   0.8492     C
C       0.7757   0.1784   0.6242     C
C       0.7757   0.8216   0.3758     C
C       0.7972   0.3118   0.6935     C
C       0.7972   0.6882   0.3065     C
H       0.8466   0.4907   0.2808     H
H       0.8466   0.5093   0.7192     H
C       0.8479   0.2663   0.1969     C
C       0.8479   0.7337   0.8031     C
C        0.855   0.1446   0.1283     C
C        0.855   0.8554   0.8717     C
O       0.8606   0.0418   0.0504     O
O       0.8606   0.9582   0.9496     O
O       0.8766   0.3413   0.2263     O
O       0.8766   0.6587   0.7737     O
H       0.8795   0.4224   0.7582     H
H       0.8795   0.5776   0.2418     H
C         0.88   0.2041   0.6057     C
C         0.88   0.7959   0.3943     C
O       0.8815   0.0711   0.5469     O
O       0.8815   0.9289   0.4531     O
C       0.8927   0.3441   0.6728     C
C       0.8927   0.6559   0.3272     C
C       0.8935   0.2318   0.1511     C
C       0.8935   0.7682   0.8489     C
C       0.9059   0.4669   0.7307     C
C       0.9059   0.5331   0.2693     C
C       0.9112   0.1063   0.0796     C
C       0.9112   0.8937   0.9204     C
C       0.9219    0.134   0.5621     C
C       0.9219    0.866   0.4379     C
C       0.9366   0.2834   0.6263     C
C       0.9366   0.7166   0.3737     C
H       0.9406   0.4348   0.1726     H
H       0.9406   0.5652   0.8274     H
H       0.9503   0.2662   0.1349     H
H       0.9503   0.7338   0.8651     H
O       0.9507   0.4146   0.6871     O
O       0.9507   0.5854   0.3129     O
C       0.9648   0.3995   0.2042     C
C       0.9648   0.6005   0.7958     C
O       0.9721   0.1491  0.94667     O
O       0.9721   0.8509  0.05333     O
H       0.9744   0.3575   0.3056     H
H       0.9744   0.6425   0.6944     H
In     0.99413      0.0      0.0    In
H       0.9965   0.3002   0.8887     H
H       0.9965   0.6998   0.1113     H
O       0.9974   0.1247  0.43297     O
O       0.9974   0.8753  0.56703     O
