data_I
_chemical_name_common  '/home/zhangsd/repos/MofS-CGCNN/ML/data/SSD/clean_cifs/REYPES_clean'
_cell_length_a 39.49120
_cell_length_b 23.79840
_cell_length_c  8.91310
_cell_angle_alpha 90.00000
_cell_angle_beta  90.00000
_cell_angle_gamma 90.00000
_space_group_name_H-M_alt      'P 1'


loop_
_space_group_symop_operation_xyz
  'x, y, z' 

loop_
_atom_site_label
_atom_site_fract_x
_atom_site_fract_y
_atom_site_fract_z
_atom_site_type_symbol
N       0.0081    0.522    0.992     N
N       0.0081    0.978    0.492     N
H       0.0093   0.0122   0.7784     H
H       0.0093   0.4878   0.2784     H
C       0.0101    0.553   0.1312     C
C       0.0101    0.947   0.6312     C
C       0.0114   0.5266   0.2691     C
C       0.0114   0.9734   0.7691     C
C       0.0149   0.6111   0.1182     C
C       0.0149   0.8889   0.6182     C
H       0.0158   0.6289   0.0254     H
H       0.0158   0.8711   0.5254     H
C      0.01604   0.5609   0.3923     C
C      0.01604   0.9391   0.8923     C
H       0.0172   0.5439   0.4861     H
H       0.0172   0.9561   0.9861     H
O      0.01752   0.1165   0.8104     O
O      0.01752   0.3835   0.3104     O
C       0.0181   0.6404   0.2506     C
C       0.0181   0.8596   0.7506     C
N       0.0189   0.6164   0.3862     N
N       0.0189   0.8836   0.8862     N
H       0.0198   0.6793   0.2454     H
H       0.0198   0.8207   0.7454     H
Zn     0.02164  0.66373  0.58594    Zn
Zn     0.02164  0.83627  0.08594    Zn
N      0.02384   0.2107   0.9681     N
N      0.02384   0.2893   0.4681     N
N      0.03159   0.2435   0.5427     N
N      0.03159   0.2565   0.0427     N
C      0.04535   0.1403   0.7958     C
C      0.04535   0.3597   0.2958     C
C      0.04995   0.1935   0.8837     C
C      0.04995   0.3065   0.3837     C
O      0.06057   0.6152   0.6888     O
O      0.06057   0.8848   0.1888     O
N      0.06355     0.23   0.5104     N
N      0.06355     0.27   0.0104     N
N      0.06616   0.7082   0.5269     N
N      0.06616   0.7918   0.0269     N
O      0.06954   0.1228   0.7168     O
O      0.06954   0.3772   0.2168     O
C      0.07548   0.2318   0.9101     C
C      0.07548   0.2682   0.4101     C
N      0.07551   0.7464   0.9474     N
N      0.07551   0.7536   0.4474     N
H       0.0777   0.1652   0.2333     H
H       0.0777   0.3348   0.7333     H
H       0.0787   0.1075   0.0292     H
H       0.0787   0.3925   0.5292     H
C        0.081    0.127   0.2492     C
C        0.081    0.373   0.7492     C
H       0.0818   0.5279    0.251     H
H       0.0818   0.9721    0.751     H
C        0.082    0.093    0.125     C
C        0.082    0.407    0.625     C
N      0.08426   0.1101   0.3883     N
N      0.08426   0.3899   0.8883     N
C       0.0866   0.0558   0.4039     C
C       0.0866   0.4442   0.9039     C
H       0.0867   0.0418   0.5013     H
H       0.0867   0.4582   0.0013     H
C       0.0879   0.0375   0.1469     C
C       0.0879   0.4625   0.6469     C
C      0.08838   0.6405   0.7055     C
C      0.08838   0.8595   0.2055     C
C       0.0887   0.0174   0.2891     C
C       0.0887   0.4826   0.7891     C
H       0.0907   0.5209   0.8084     H
H       0.0907   0.9791   0.3084     H
N      0.09071   0.0035   0.0135     N
N      0.09071   0.4965   0.5135     N
C      0.09349   0.6915    0.611     C
C      0.09349   0.8085    0.111     C
H       0.0936   0.5829    0.044     H
H       0.0936   0.9171    0.544     H
C       0.0992   0.5543   0.2537     C
C       0.0992   0.9457   0.7537     C
Zn     0.09973  0.16724  0.57154    Zn
Zn     0.09973  0.33276  0.07154    Zn
C       0.1067   0.5872   0.1299     C
C       0.1067   0.9128   0.6299     C
N      0.10747   0.7341   0.9771     N
N      0.10747   0.7659   0.4771     N
C      0.11096   0.2428   0.8525     C
C      0.11096   0.2572   0.3525     C
O      0.11159   0.6236   0.7921     O
O      0.11159   0.8764   0.2921     O
N      0.11463   0.5287   0.5173     N
N      0.11463   0.9713   0.0173     N
C       0.1186   0.5621   0.3824     C
C       0.1186   0.9379   0.8824     C
C      0.11932   0.7285   0.5776     C
C      0.11932   0.7715   0.0776     C
O      0.12195   0.2144   0.7461     O
O      0.12195   0.2856   0.2461     O
O       0.1268   0.2178   0.4159     O
O       0.1268   0.2822   0.9159     O
H        0.127    0.085   0.7978     H
H        0.127    0.415   0.2978     H
N      0.13153   0.6244   0.1277     N
N      0.13153   0.8756   0.6277     N
N      0.14292    0.114   0.6064     N
N      0.14292    0.386   0.1064     N
Zn     0.14428  0.67038  0.91948    Zn
Zn     0.14428  0.82962  0.41948    Zn
C       0.1443   0.5995   0.3824     C
C       0.1443   0.9005   0.8824     C
C       0.1451   0.0837   0.7307     C
C       0.1451   0.4163   0.2307     C
C       0.1502   0.6302   0.2516     C
C       0.1502   0.8698   0.7516     C
C      0.15499   0.7371   0.6277     C
C      0.15499   0.7629   0.1277     C
H       0.1576   0.6047   0.4672     H
H       0.1576   0.8953   0.9672     H
H       0.1614   0.5575   0.7677     H
H       0.1614   0.9425   0.2677     H
O      0.16681   0.7095   0.7345     O
O      0.16681   0.7905   0.2345     O
H       0.1672   0.1321    0.425     H
H       0.1672   0.3679    0.925     H
H        0.168   0.6559   0.2507     H
H        0.168   0.8441   0.7507     H
C       0.1684   0.1117   0.5138     C
C       0.1684   0.3883   0.0138     C
O      0.17185   0.7262   0.0567     O
O      0.17185   0.7738   0.5567     O
C       0.1724   0.0507   0.7661     C
C       0.1724   0.4493   0.2661     C
H       0.1725   0.0294   0.8536     H
H       0.1725   0.4706   0.3536     H
C       0.1827   0.5668   0.8048     C
C       0.1827   0.9332   0.3048     C
N      0.18584   0.6126   0.8926     N
N      0.18584   0.8874   0.3926     N
C       0.1974   0.0804   0.5413     C
C       0.1974   0.4196   0.0413     C
C       0.1996   0.0496   0.6699     C
C       0.1996   0.4504   0.1699     C
H       0.2071    0.502   0.7071     H
H       0.2071    0.998   0.2071     H
C       0.2099   0.5334    0.768     C
C       0.2099   0.9666    0.268     C
H       0.2152   0.0805   0.4727     H
H       0.2152   0.4195   0.9727     H
C      0.21619   0.6257   0.9444     C
C      0.21619   0.8743   0.4444     C
H       0.2184   0.6575   0.0045     H
H       0.2184   0.8425   0.5045     H
N      0.22774   0.5162   0.2978     N
N      0.22774   0.9838   0.7978     N
N      0.23017   0.0176   0.6934     N
N      0.23017   0.4824   0.1934     N
H       0.2345    0.605   0.4523     H
H       0.2345    0.895   0.9523     H
C      0.24174   0.5476   0.8239     C
C      0.24174   0.9524   0.3239     C
C       0.2446   0.5945   0.9133     C
C       0.2446   0.9055   0.4133     C
C       0.2554   0.5945   0.4133     C
C       0.2554   0.9055   0.9133     C
C      0.25826   0.5476   0.3239     C
C      0.25826   0.9524   0.8239     C
H       0.2655    0.605   0.9523     H
H       0.2655    0.895   0.4523     H
N      0.26983   0.0176   0.1934     N
N      0.26983   0.4824   0.6934     N
N      0.27226   0.5162   0.7978     N
N      0.27226   0.9838   0.2978     N
H       0.2816   0.6575   0.5045     H
H       0.2816   0.8425   0.0045     H
C      0.28381   0.6257   0.4444     C
C      0.28381   0.8743   0.9444     C
H       0.2848   0.0805   0.9727     H
H       0.2848   0.4195   0.4727     H
C       0.2901   0.5334    0.268     C
C       0.2901   0.9666    0.768     C
H       0.2929    0.502   0.2071     H
H       0.2929    0.998   0.7071     H
C       0.3004   0.0496   0.1699     C
C       0.3004   0.4504   0.6699     C
C       0.3026   0.0804   0.0413     C
C       0.3026   0.4196   0.5413     C
N      0.31416   0.6126   0.3926     N
N      0.31416   0.8874   0.8926     N
C       0.3173   0.5668   0.3048     C
C       0.3173   0.9332   0.8048     C
H       0.3275   0.0294   0.3536     H
H       0.3275   0.4706   0.8536     H
C       0.3276   0.0507   0.2661     C
C       0.3276   0.4493   0.7661     C
O      0.32815   0.7262   0.5567     O
O      0.32815   0.7738   0.0567     O
C       0.3316   0.1117   0.0138     C
C       0.3316   0.3883   0.5138     C
H        0.332   0.6559   0.7507     H
H        0.332   0.8441   0.2507     H
H       0.3328   0.1321    0.925     H
H       0.3328   0.3679    0.425     H
O      0.33319   0.7095   0.2345     O
O      0.33319   0.7905   0.7345     O
H       0.3386   0.5575   0.2677     H
H       0.3386   0.9425   0.7677     H
H       0.3424   0.6047   0.9672     H
H       0.3424   0.8953   0.4672     H
C      0.34501   0.7371   0.1277     C
C      0.34501   0.7629   0.6277     C
C       0.3498   0.6302   0.7516     C
C       0.3498   0.8698   0.2516     C
C       0.3549   0.0837   0.2307     C
C       0.3549   0.4163   0.7307     C
C       0.3557   0.5995   0.8824     C
C       0.3557   0.9005   0.3824     C
Zn     0.35572  0.67038  0.41948    Zn
Zn     0.35572  0.82962  0.91948    Zn
N      0.35708    0.114   0.1064     N
N      0.35708    0.386   0.6064     N
N      0.36847   0.6244   0.6277     N
N      0.36847   0.8756   0.1277     N
H        0.373    0.085   0.2978     H
H        0.373    0.415   0.7978     H
O       0.3732   0.2178   0.9159     O
O       0.3732   0.2822   0.4159     O
O      0.37805   0.2144   0.2461     O
O      0.37805   0.2856   0.7461     O
C      0.38068   0.7285   0.0776     C
C      0.38068   0.7715   0.5776     C
C       0.3814   0.5621   0.8824     C
C       0.3814   0.9379   0.3824     C
N      0.38537   0.5287   0.0173     N
N      0.38537   0.9713   0.5173     N
O      0.38841   0.6236   0.2921     O
O      0.38841   0.8764   0.7921     O
C      0.38904   0.2428   0.3525     C
C      0.38904   0.2572   0.8525     C
N      0.39253   0.7341   0.4771     N
N      0.39253   0.7659   0.9771     N
C       0.3933   0.5872   0.6299     C
C       0.3933   0.9128   0.1299     C
Zn     0.40027  0.16724  0.07154    Zn
Zn     0.40027  0.33276  0.57154    Zn
C       0.4008   0.5543   0.7537     C
C       0.4008   0.9457   0.2537     C
H       0.4064   0.5829    0.544     H
H       0.4064   0.9171    0.044     H
C      0.40651   0.6915    0.111     C
C      0.40651   0.8085    0.611     C
N      0.40929   0.0035   0.5135     N
N      0.40929   0.4965   0.0135     N
H       0.4093   0.5209   0.3084     H
H       0.4093   0.9791   0.8084     H
C       0.4113   0.0174   0.7891     C
C       0.4113   0.4826   0.2891     C
C      0.41162   0.6405   0.2055     C
C      0.41162   0.8595   0.7055     C
C       0.4121   0.0375   0.6469     C
C       0.4121   0.4625   0.1469     C
H       0.4133   0.0418   0.0013     H
H       0.4133   0.4582   0.5013     H
C       0.4134   0.0558   0.9039     C
C       0.4134   0.4442   0.4039     C
N      0.41574   0.1101   0.8883     N
N      0.41574   0.3899   0.3883     N
C        0.418    0.093    0.625     C
C        0.418    0.407    0.125     C
H       0.4182   0.5279    0.751     H
H       0.4182   0.9721    0.251     H
C        0.419    0.127   0.7492     C
C        0.419    0.373   0.2492     C
H       0.4213   0.1075   0.5292     H
H       0.4213   0.3925   0.0292     H
H       0.4223   0.1652   0.7333     H
H       0.4223   0.3348   0.2333     H
N      0.42449   0.7464   0.4474     N
N      0.42449   0.7536   0.9474     N
C      0.42452   0.2318   0.4101     C
C      0.42452   0.2682   0.9101     C
O      0.43046   0.1228   0.2168     O
O      0.43046   0.3772   0.7168     O
N      0.43384   0.7082   0.0269     N
N      0.43384   0.7918   0.5269     N
N      0.43645     0.23   0.0104     N
N      0.43645     0.27   0.5104     N
O      0.43943   0.6152   0.1888     O
O      0.43943   0.8848   0.6888     O
C      0.45005   0.1935   0.3837     C
C      0.45005   0.3065   0.8837     C
C      0.45465   0.1403   0.2958     C
C      0.45465   0.3597   0.7958     C
N      0.46841   0.2435   0.0427     N
N      0.46841   0.2565   0.5427     N
N      0.47616   0.2107   0.4681     N
N      0.47616   0.2893   0.9681     N
Zn     0.47836  0.66373  0.08594    Zn
Zn     0.47836  0.83627  0.58594    Zn
H       0.4802   0.6793   0.7454     H
H       0.4802   0.8207   0.2454     H
N       0.4811   0.6164   0.8862     N
N       0.4811   0.8836   0.3862     N
C       0.4819   0.6404   0.7506     C
C       0.4819   0.8596   0.2506     C
O      0.48248   0.1165   0.3104     O
O      0.48248   0.3835   0.8104     O
H       0.4828   0.5439   0.9861     H
H       0.4828   0.9561   0.4861     H
C      0.48396   0.5609   0.8923     C
C      0.48396   0.9391   0.3923     C
H       0.4842   0.6289   0.5254     H
H       0.4842   0.8711   0.0254     H
C       0.4851   0.6111   0.6182     C
C       0.4851   0.8889   0.1182     C
C       0.4886   0.5266   0.7691     C
C       0.4886   0.9734   0.2691     C
C       0.4899    0.553   0.6312     C
C       0.4899    0.947   0.1312     C
H       0.4907   0.0122   0.2784     H
H       0.4907   0.4878   0.7784     H
N       0.4919    0.522    0.492     N
N       0.4919    0.978    0.992     N
N       0.5081    0.022    0.008     N
N       0.5081    0.478    0.508     N
H       0.5093   0.5122   0.2216     H
H       0.5093   0.9878   0.7216     H
C       0.5101    0.053   0.8688     C
C       0.5101    0.447   0.3688     C
C       0.5114   0.0266   0.7309     C
C       0.5114   0.4734   0.2309     C
C       0.5149   0.1111   0.8818     C
C       0.5149   0.3889   0.3818     C
H       0.5158   0.1289   0.9746     H
H       0.5158   0.3711   0.4746     H
C      0.51604   0.0609   0.6077     C
C      0.51604   0.4391   0.1077     C
H       0.5172   0.0439   0.5139     H
H       0.5172   0.4561   0.0139     H
O      0.51752   0.6165   0.1896     O
O      0.51752   0.8835   0.6896     O
C       0.5181   0.1404   0.7494     C
C       0.5181   0.3596   0.2494     C
N       0.5189   0.1164   0.6138     N
N       0.5189   0.3836   0.1138     N
H       0.5198   0.1793   0.7546     H
H       0.5198   0.3207   0.2546     H
Zn     0.52164  0.16373  0.41406    Zn
Zn     0.52164  0.33627  0.91406    Zn
N      0.52384   0.7107   0.0319     N
N      0.52384   0.7893   0.5319     N
N      0.53159   0.7435   0.4573     N
N      0.53159   0.7565   0.9573     N
C      0.54535   0.6403   0.2042     C
C      0.54535   0.8597   0.7042     C
C      0.54995   0.6935   0.1163     C
C      0.54995   0.8065   0.6163     C
O      0.56057   0.1152   0.3112     O
O      0.56057   0.3848   0.8112     O
N      0.56355     0.73   0.4896     N
N      0.56355     0.77   0.9896     N
N      0.56616   0.2082   0.4731     N
N      0.56616   0.2918   0.9731     N
O      0.56954   0.6228   0.2832     O
O      0.56954   0.8772   0.7832     O
C      0.57548   0.7318   0.0899     C
C      0.57548   0.7682   0.5899     C
N      0.57551   0.2464   0.0526     N
N      0.57551   0.2536   0.5526     N
H       0.5777   0.6652   0.7667     H
H       0.5777   0.8348   0.2667     H
H       0.5787   0.6075   0.9708     H
H       0.5787   0.8925   0.4708     H
C        0.581    0.627   0.7508     C
C        0.581    0.873   0.2508     C
H       0.5818   0.0279    0.749     H
H       0.5818   0.4721    0.249     H
C        0.582    0.593    0.875     C
C        0.582    0.907    0.375     C
N      0.58426   0.6101   0.6117     N
N      0.58426   0.8899   0.1117     N
C       0.5866   0.5558   0.5961     C
C       0.5866   0.9442   0.0961     C
H       0.5867   0.5418   0.4987     H
H       0.5867   0.9582   0.9987     H
C       0.5879   0.5375   0.8531     C
C       0.5879   0.9625   0.3531     C
C      0.58838   0.1405   0.2945     C
C      0.58838   0.3595   0.7945     C
C       0.5887   0.5174   0.7109     C
C       0.5887   0.9826   0.2109     C
H       0.5907   0.0209   0.1916     H
H       0.5907   0.4791   0.6916     H
N      0.59071   0.5035   0.9865     N
N      0.59071   0.9965   0.4865     N
C      0.59349   0.1915    0.389     C
C      0.59349   0.3085    0.889     C
H       0.5936   0.0829    0.956     H
H       0.5936   0.4171    0.456     H
C       0.5992   0.0543   0.7463     C
C       0.5992   0.4457   0.2463     C
Zn     0.59973  0.66724  0.42846    Zn
Zn     0.59973  0.83276  0.92846    Zn
C       0.6067   0.0872   0.8701     C
C       0.6067   0.4128   0.3701     C
N      0.60747   0.2341   0.0229     N
N      0.60747   0.2659   0.5229     N
C      0.61096   0.7428   0.1475     C
C      0.61096   0.7572   0.6475     C
O      0.61159   0.1236   0.2079     O
O      0.61159   0.3764   0.7079     O
N      0.61463   0.0287   0.4827     N
N      0.61463   0.4713   0.9827     N
C       0.6186   0.0621   0.6176     C
C       0.6186   0.4379   0.1176     C
C      0.61932   0.2285   0.4224     C
C      0.61932   0.2715   0.9224     C
O      0.62195   0.7144   0.2539     O
O      0.62195   0.7856   0.7539     O
O       0.6268   0.7178   0.5841     O
O       0.6268   0.7822   0.0841     O
H        0.627    0.585   0.2022     H
H        0.627    0.915   0.7022     H
N      0.63153   0.1244   0.8723     N
N      0.63153   0.3756   0.3723     N
N      0.64292    0.614   0.3936     N
N      0.64292    0.886   0.8936     N
Zn     0.64428  0.17038  0.08052    Zn
Zn     0.64428  0.32962  0.58052    Zn
C       0.6443   0.0995   0.6176     C
C       0.6443   0.4005   0.1176     C
C       0.6451   0.5837   0.2693     C
C       0.6451   0.9163   0.7693     C
C       0.6502   0.1302   0.7484     C
C       0.6502   0.3698   0.2484     C
C      0.65499   0.2371   0.3723     C
C      0.65499   0.2629   0.8723     C
H       0.6576   0.1047   0.5328     H
H       0.6576   0.3953   0.0328     H
H       0.6614   0.0575   0.2323     H
H       0.6614   0.4425   0.7323     H
O      0.66681   0.2095   0.2655     O
O      0.66681   0.2905   0.7655     O
H       0.6672   0.6321    0.575     H
H       0.6672   0.8679    0.075     H
H        0.668   0.1559   0.7493     H
H        0.668   0.3441   0.2493     H
C       0.6684   0.6117   0.4862     C
C       0.6684   0.8883   0.9862     C
O      0.67185   0.2262   0.9433     O
O      0.67185   0.2738   0.4433     O
C       0.6724   0.5507   0.2339     C
C       0.6724   0.9493   0.7339     C
H       0.6725   0.5294   0.1464     H
H       0.6725   0.9706   0.6464     H
C       0.6827   0.0668   0.1952     C
C       0.6827   0.4332   0.6952     C
N      0.68584   0.1126   0.1074     N
N      0.68584   0.3874   0.6074     N
C       0.6974   0.5804   0.4587     C
C       0.6974   0.9196   0.9587     C
C       0.6996   0.5496   0.3301     C
C       0.6996   0.9504   0.8301     C
H       0.7071    0.002   0.2929     H
H       0.7071    0.498   0.7929     H
C       0.7099   0.0334    0.232     C
C       0.7099   0.4666    0.732     C
H       0.7152   0.5805   0.5273     H
H       0.7152   0.9195   0.0273     H
C      0.71619   0.1257   0.0556     C
C      0.71619   0.3743   0.5556     C
H       0.7184   0.1575   0.9955     H
H       0.7184   0.3425   0.4955     H
N      0.72774   0.0162   0.7022     N
N      0.72774   0.4838   0.2022     N
N      0.73017   0.5176   0.3066     N
N      0.73017   0.9824   0.8066     N
H       0.7345    0.105   0.5477     H
H       0.7345    0.395   0.0477     H
C      0.74174   0.0476   0.1761     C
C      0.74174   0.4524   0.6761     C
C       0.7446   0.0945   0.0867     C
C       0.7446   0.4055   0.5867     C
C       0.7554   0.0945   0.5867     C
C       0.7554   0.4055   0.0867     C
C      0.75826   0.0476   0.6761     C
C      0.75826   0.4524   0.1761     C
H       0.7655    0.105   0.0477     H
H       0.7655    0.395   0.5477     H
N      0.76983   0.5176   0.8066     N
N      0.76983   0.9824   0.3066     N
N      0.77226   0.0162   0.2022     N
N      0.77226   0.4838   0.7022     N
H       0.7816   0.1575   0.4955     H
H       0.7816   0.3425   0.9955     H
C      0.78381   0.1257   0.5556     C
C      0.78381   0.3743   0.0556     C
H       0.7848   0.5805   0.0273     H
H       0.7848   0.9195   0.5273     H
C       0.7901   0.0334    0.732     C
C       0.7901   0.4666    0.232     C
H       0.7929    0.002   0.7929     H
H       0.7929    0.498   0.2929     H
C       0.8004   0.5496   0.8301     C
C       0.8004   0.9504   0.3301     C
C       0.8026   0.5804   0.9587     C
C       0.8026   0.9196   0.4587     C
N      0.81416   0.1126   0.6074     N
N      0.81416   0.3874   0.1074     N
C       0.8173   0.0668   0.6952     C
C       0.8173   0.4332   0.1952     C
H       0.8275   0.5294   0.6464     H
H       0.8275   0.9706   0.1464     H
C       0.8276   0.5507   0.7339     C
C       0.8276   0.9493   0.2339     C
O      0.82815   0.2262   0.4433     O
O      0.82815   0.2738   0.9433     O
C       0.8316   0.6117   0.9862     C
C       0.8316   0.8883   0.4862     C
H        0.832   0.1559   0.2493     H
H        0.832   0.3441   0.7493     H
H       0.8328   0.6321    0.075     H
H       0.8328   0.8679    0.575     H
O      0.83319   0.2095   0.7655     O
O      0.83319   0.2905   0.2655     O
H       0.8386   0.0575   0.7323     H
H       0.8386   0.4425   0.2323     H
H       0.8424   0.1047   0.0328     H
H       0.8424   0.3953   0.5328     H
C      0.84501   0.2371   0.8723     C
C      0.84501   0.2629   0.3723     C
C       0.8498   0.1302   0.2484     C
C       0.8498   0.3698   0.7484     C
C       0.8549   0.5837   0.7693     C
C       0.8549   0.9163   0.2693     C
C       0.8557   0.0995   0.1176     C
C       0.8557   0.4005   0.6176     C
Zn     0.85572  0.17038  0.58052    Zn
Zn     0.85572  0.32962  0.08052    Zn
N      0.85708    0.614   0.8936     N
N      0.85708    0.886   0.3936     N
N      0.86847   0.1244   0.3723     N
N      0.86847   0.3756   0.8723     N
H        0.873    0.585   0.7022     H
H        0.873    0.915   0.2022     H
O       0.8732   0.7178   0.0841     O
O       0.8732   0.7822   0.5841     O
O      0.87805   0.7144   0.7539     O
O      0.87805   0.7856   0.2539     O
C      0.88068   0.2285   0.9224     C
C      0.88068   0.2715   0.4224     C
C       0.8814   0.0621   0.1176     C
C       0.8814   0.4379   0.6176     C
N      0.88537   0.0287   0.9827     N
N      0.88537   0.4713   0.4827     N
O      0.88841   0.1236   0.7079     O
O      0.88841   0.3764   0.2079     O
C      0.88904   0.7428   0.6475     C
C      0.88904   0.7572   0.1475     C
N      0.89253   0.2341   0.5229     N
N      0.89253   0.2659   0.0229     N
C       0.8933   0.0872   0.3701     C
C       0.8933   0.4128   0.8701     C
Zn     0.90027  0.66724  0.92846    Zn
Zn     0.90027  0.83276  0.42846    Zn
C       0.9008   0.0543   0.2463     C
C       0.9008   0.4457   0.7463     C
H       0.9064   0.0829    0.456     H
H       0.9064   0.4171    0.956     H
C      0.90651   0.1915    0.889     C
C      0.90651   0.3085    0.389     C
N      0.90929   0.5035   0.4865     N
N      0.90929   0.9965   0.9865     N
H       0.9093   0.0209   0.6916     H
H       0.9093   0.4791   0.1916     H
C       0.9113   0.5174   0.2109     C
C       0.9113   0.9826   0.7109     C
C      0.91162   0.1405   0.7945     C
C      0.91162   0.3595   0.2945     C
C       0.9121   0.5375   0.3531     C
C       0.9121   0.9625   0.8531     C
H       0.9133   0.5418   0.9987     H
H       0.9133   0.9582   0.4987     H
C       0.9134   0.5558   0.0961     C
C       0.9134   0.9442   0.5961     C
N      0.91574   0.6101   0.1117     N
N      0.91574   0.8899   0.6117     N
C        0.918    0.593    0.375     C
C        0.918    0.907    0.875     C
H       0.9182   0.0279    0.249     H
H       0.9182   0.4721    0.749     H
C        0.919    0.627   0.2508     C
C        0.919    0.873   0.7508     C
H       0.9213   0.6075   0.4708     H
H       0.9213   0.8925   0.9708     H
H       0.9223   0.6652   0.2667     H
H       0.9223   0.8348   0.7667     H
N      0.92449   0.2464   0.5526     N
N      0.92449   0.2536   0.0526     N
C      0.92452   0.7318   0.5899     C
C      0.92452   0.7682   0.0899     C
O      0.93046   0.6228   0.7832     O
O      0.93046   0.8772   0.2832     O
N      0.93384   0.2082   0.9731     N
N      0.93384   0.2918   0.4731     N
N      0.93645     0.73   0.9896     N
N      0.93645     0.77   0.4896     N
O      0.93943   0.1152   0.8112     O
O      0.93943   0.3848   0.3112     O
C      0.95005   0.6935   0.6163     C
C      0.95005   0.8065   0.1163     C
C      0.95465   0.6403   0.7042     C
C      0.95465   0.8597   0.2042     C
N      0.96841   0.7435   0.9573     N
N      0.96841   0.7565   0.4573     N
N      0.97616   0.7107   0.5319     N
N      0.97616   0.7893   0.0319     N
Zn     0.97836  0.16373  0.91406    Zn
Zn     0.97836  0.33627  0.41406    Zn
H       0.9802   0.1793   0.2546     H
H       0.9802   0.3207   0.7546     H
N       0.9811   0.1164   0.1138     N
N       0.9811   0.3836   0.6138     N
C       0.9819   0.1404   0.2494     C
C       0.9819   0.3596   0.7494     C
O      0.98248   0.6165   0.6896     O
O      0.98248   0.8835   0.1896     O
H       0.9828   0.0439   0.0139     H
H       0.9828   0.4561   0.5139     H
C      0.98396   0.0609   0.1077     C
C      0.98396   0.4391   0.6077     C
H       0.9842   0.1289   0.4746     H
H       0.9842   0.3711   0.9746     H
C       0.9851   0.1111   0.3818     C
C       0.9851   0.3889   0.8818     C
C       0.9886   0.0266   0.2309     C
C       0.9886   0.4734   0.7309     C
C       0.9899    0.053   0.3688     C
C       0.9899    0.447   0.8688     C
H       0.9907   0.5122   0.7216     H
H       0.9907   0.9878   0.2216     H
N       0.9919    0.022    0.508     N
N       0.9919    0.478    0.008     N
