data_I
_chemical_name_common  '/home/zhangsd/repos/MofS-CGCNN/ML/data/SSD/clean_cifs/REZXIE01_clean'
_cell_length_a 13.87100
_cell_length_b 13.87100
_cell_length_c 12.66300
_cell_angle_alpha 90.00000
_cell_angle_beta  90.00000
_cell_angle_gamma 120.00000
_space_group_name_H-M_alt      'P 1'


loop_
_space_group_symop_operation_xyz
  'x, y, z' 

loop_
_atom_site_label
_atom_site_fract_x
_atom_site_fract_y
_atom_site_fract_z
_atom_site_type_symbol
C       0.0088    0.516   0.5582     C
C       0.0088    0.516   0.9418     C
C        0.118   0.5934   0.6113     C
C        0.118   0.5934   0.8887     C
O       0.1478   0.6932   0.6356     O
O       0.1478   0.6932   0.8644     O
O       0.1919   0.5705   0.6065     O
O       0.1919   0.5705   0.8935     O
Fe      0.2294    0.516     0.75    Fe
Fe      0.2866   0.7706     0.75    Fe
O       0.3068   0.4546   0.6356     O
O       0.3068   0.4546   0.8644     O
O      0.33333  0.66667     0.75     O
O       0.3786   0.8081   0.6065     O
O       0.3786   0.8081   0.8935     O
C       0.4066   0.5246   0.6113     C
C       0.4066   0.5246   0.8887     C
O       0.4295   0.6214   0.6065     O
O       0.4295   0.6214   0.8935     O
O       0.4546   0.3068   0.1356     O
O       0.4546   0.3068   0.3644     O
C       0.4754    0.882   0.6113     C
C       0.4754    0.882   0.8887     C
C        0.484   0.4928   0.5582     C
C        0.484   0.4928   0.9418     C
Fe       0.484   0.7134     0.75    Fe
C       0.4928    0.484   0.0582     C
C       0.4928    0.484   0.4418     C
C       0.5072   0.9912   0.5582     C
C       0.5072   0.9912   0.9418     C
C        0.516   0.0088   0.0582     C
C        0.516   0.0088   0.4418     C
Fe       0.516   0.2294     0.25    Fe
C       0.5246   0.4066   0.1113     C
C       0.5246   0.4066   0.3887     C
O       0.5454   0.8522   0.6356     O
O       0.5454   0.8522   0.8644     O
O       0.5705   0.1919   0.1065     O
O       0.5705   0.1919   0.3935     O
C       0.5934    0.118   0.1113     C
C       0.5934    0.118   0.3887     C
O       0.6214   0.4295   0.1065     O
O       0.6214   0.4295   0.3935     O
O      0.66667  0.33333     0.25     O
O       0.6932   0.1478   0.1356     O
O       0.6932   0.1478   0.3644     O
Fe      0.7134    0.484     0.25    Fe
Fe      0.7706   0.2866     0.25    Fe
O       0.8081   0.3786   0.1065     O
O       0.8081   0.3786   0.3935     O
O       0.8522   0.5454   0.1356     O
O       0.8522   0.5454   0.3644     O
C        0.882   0.4754   0.1113     C
C        0.882   0.4754   0.3887     C
C       0.9912   0.5072   0.0582     C
C       0.9912   0.5072   0.4418     C
