data_I
_chemical_name_common  '/home/zhangsd/repos/MofS-CGCNN/ML/data/SSD/clean_cifs/RIRDED_clean'
_cell_length_a 26.11300
_cell_length_b 26.11300
_cell_length_c 19.64590
_cell_angle_alpha 90.00000
_cell_angle_beta  90.00000
_cell_angle_gamma 120.00000
_space_group_name_H-M_alt      'P 1'


loop_
_space_group_symop_operation_xyz
  'x, y, z' 

loop_
_atom_site_label
_atom_site_fract_x
_atom_site_fract_y
_atom_site_fract_z
_atom_site_type_symbol
C          0.0   0.3863      0.0     C
C          0.0   0.3863      0.5     C
H          0.0   0.4219      0.0     H
H          0.0   0.4219      0.5     H
H          0.0   0.5781      0.0     H
H          0.0   0.5781      0.5     H
C          0.0   0.6137      0.0     C
C          0.0   0.6137      0.5     C
H       0.0037   0.3226   0.6879     H
H       0.0037   0.3226   0.8121     H
H       0.0037   0.6811   0.6879     H
H       0.0037   0.6811   0.8121     H
C        0.021   0.2274    0.526     C
C        0.021   0.2274    0.974     C
C        0.021   0.7936    0.526     C
C        0.021   0.7936    0.974     C
C       0.0231   0.3199   0.5252     C
C       0.0231   0.3199   0.9748     C
C       0.0231   0.7032   0.5252     C
C       0.0231   0.7032   0.9748     C
O       0.0254   0.4719   0.6448     O
O       0.0254   0.4719   0.8552     O
O       0.0254   0.5535   0.6448     O
O       0.0254   0.5535   0.8552     O
Cl      0.0302    0.174   0.5601    Cl
Cl      0.0302    0.174   0.9399    Cl
Cl      0.0302   0.8562   0.5601    Cl
Cl      0.0302   0.8562   0.9399    Cl
C       0.0326   0.3519    0.715     C
C       0.0326   0.3519    0.785     C
C       0.0326   0.6807    0.715     C
C       0.0326   0.6807    0.785     C
N       0.0372  0.37766   0.5384     N
N       0.0372  0.37766   0.9616     N
N       0.0372  0.65954   0.5384     N
N       0.0372  0.65954   0.9616     N
N       0.0433  0.52165   0.6258     N
N       0.0433  0.52165   0.8742     N
C       0.0455    0.285   0.5501     C
C       0.0455    0.285   0.9499     C
C       0.0455   0.7605   0.5501     C
C       0.0455   0.7605   0.9499     C
H       0.0759   0.2998   0.5819     H
H       0.0759   0.2998   0.9181     H
H       0.0759   0.7761   0.5819     H
H       0.0759   0.7761   0.9181     H
N       0.0798   0.3998   0.6919     N
N       0.0798   0.3998   0.8081     N
N       0.0798     0.68   0.6919     N
N       0.0798     0.68   0.8081     N
C       0.0961  0.54805    0.589     C
C       0.0961  0.54805    0.911     C
Co     0.10261  0.43545  0.59821    Co
Co     0.10261  0.43545  0.90179    Co
Co     0.10261  0.66716  0.59821    Co
Co     0.10261  0.66716  0.90179    Co
C       0.1063   0.4289     0.75     C
C       0.1063   0.6774     0.75     C
H       0.1203   0.4214    0.065     H
H       0.1203   0.4214    0.435     H
H       0.1203   0.6989    0.065     H
H       0.1203   0.6989    0.435     H
N       0.1219   0.5185   0.5676     N
N       0.1219   0.5185   0.9324     N
N       0.1219   0.6034   0.5676     N
N       0.1219   0.6034   0.9324     N
Cl      0.1348   0.4151    0.195    Cl
Cl      0.1348   0.4151    0.305    Cl
Cl      0.1348   0.7197    0.195    Cl
Cl      0.1348   0.7197    0.305    Cl
Cl      0.1438    0.174   0.5601    Cl
Cl      0.1438    0.174   0.9399    Cl
Cl      0.1438   0.9698   0.5601    Cl
Cl      0.1438   0.9698   0.9399    Cl
C       0.1562   0.4219   0.0649     C
C       0.1562   0.4219   0.4351     C
C       0.1562   0.7343   0.0649     C
C       0.1562   0.7343   0.4351     C
N       0.1592    0.483     0.75     N
N       0.1592   0.6762     0.75     N
C       0.1595   0.5523   0.5253     C
C       0.1595   0.5523   0.9747     C
C       0.1595   0.6072   0.5253     C
C       0.1595   0.6072   0.9747     C
N      0.17309  0.43194   0.5637     N
N      0.17309  0.43194   0.9363     N
N      0.17309  0.74115   0.5637     N
N      0.17309  0.74115   0.9363     N
Cl       0.174   0.0302   0.0601    Cl
Cl       0.174   0.0302   0.4399    Cl
Cl       0.174   0.1438   0.0601    Cl
Cl       0.174   0.1438   0.4399    Cl
O      0.17952  0.50623  0.69418     O
O      0.17952  0.50623  0.80582     O
O      0.17952  0.67329  0.69418     O
O      0.17952  0.67329  0.80582     O
C       0.1797   0.4171   0.1229     C
C       0.1797   0.4171   0.3771     C
C       0.1797   0.7626   0.1229     C
C       0.1797   0.7626   0.3771     C
H       0.1833   0.5433   0.0015     H
H       0.1833   0.5433   0.4985     H
H       0.1833     0.64   0.0015     H
H       0.1833     0.64   0.4985     H
C       0.1863   0.4281   0.0034     C
C       0.1863   0.4281   0.4966     C
C       0.1863   0.7582   0.0034     C
C       0.1863   0.7582   0.4966     C
C       0.2064   0.2274    0.526     C
C       0.2064   0.2274    0.974     C
C       0.2064    0.979    0.526     C
C       0.2064    0.979    0.974     C
C      0.21715   0.4343    0.599     C
C      0.21715   0.4343    0.901     C
C      0.21715  0.78285    0.599     C
C      0.21715  0.78285    0.901     C
H       0.2187   0.4374   0.6462     H
H       0.2187   0.4374   0.8538     H
H       0.2187   0.7813   0.6462     H
H       0.2187   0.7813   0.8538     H
H       0.2239   0.2998   0.5819     H
H       0.2239   0.2998   0.9181     H
H       0.2239   0.9241   0.5819     H
H       0.2239   0.9241   0.9181     H
C       0.2274    0.021    0.026     C
C       0.2274    0.021    0.474     C
C       0.2274   0.2064    0.026     C
C       0.2274   0.2064    0.474     C
C       0.2374   0.4171   0.1229     C
C       0.2374   0.4171   0.3771     C
C       0.2374   0.8203   0.1229     C
C       0.2374   0.8203   0.3771     C
C       0.2395    0.285   0.5501     C
C       0.2395    0.285   0.9499     C
C       0.2395   0.9545   0.5501     C
C       0.2395   0.9545   0.9499     C
C       0.2418   0.4281   0.0034     C
C       0.2418   0.4281   0.4966     C
C       0.2418   0.8137   0.0034     C
C       0.2418   0.8137   0.4966     C
N      0.25885  0.43194   0.5637     N
N      0.25885  0.43194   0.9363     N
N      0.25885  0.82691   0.5637     N
N      0.25885  0.82691   0.9363     N
C       0.2657   0.4219   0.0649     C
C       0.2657   0.4219   0.4351     C
C       0.2657   0.8438   0.0649     C
C       0.2657   0.8438   0.4351     C
Cl      0.2803   0.4151    0.195    Cl
Cl      0.2803   0.4151    0.305    Cl
Cl      0.2803   0.8652    0.195    Cl
Cl      0.2803   0.8652    0.305    Cl
C        0.285   0.0455   0.0501     C
C        0.285   0.0455   0.4499     C
C        0.285   0.2395   0.0501     C
C        0.285   0.2395   0.4499     C
C       0.2968   0.3199   0.5252     C
C       0.2968   0.3199   0.9748     C
C       0.2968   0.9769   0.5252     C
C       0.2968   0.9769   0.9748     C
H       0.2998   0.0759   0.0819     H
H       0.2998   0.0759   0.4181     H
H       0.2998   0.2239   0.0819     H
H       0.2998   0.2239   0.4181     H
H       0.3011   0.4214    0.065     H
H       0.3011   0.4214    0.435     H
H       0.3011   0.8797    0.065     H
H       0.3011   0.8797    0.435     H
H       0.3189   0.3226   0.6879     H
H       0.3189   0.3226   0.8121     H
H       0.3189   0.9963   0.6879     H
H       0.3189   0.9963   0.8121     H
C       0.3193   0.3519    0.715     C
C       0.3193   0.3519    0.785     C
C       0.3193   0.9674    0.715     C
C       0.3193   0.9674    0.785     C
C       0.3199   0.0231   0.0252     C
C       0.3199   0.0231   0.4748     C
C       0.3199   0.2968   0.0252     C
C       0.3199   0.2968   0.4748     C
N         0.32   0.3998   0.6919     N
N         0.32   0.3998   0.8081     N
N         0.32   0.9202   0.6919     N
N         0.32   0.9202   0.8081     N
H       0.3226   0.0037   0.1879     H
H       0.3226   0.0037   0.3121     H
H       0.3226   0.3189   0.1879     H
H       0.3226   0.3189   0.3121     H
C       0.3226   0.4289     0.75     C
C       0.3226   0.8937     0.75     C
N       0.3238    0.483     0.75     N
N       0.3238   0.8408     0.75     N
O      0.32671  0.50623  0.69418     O
O      0.32671  0.50623  0.80582     O
O      0.32671  0.82048  0.69418     O
O      0.32671  0.82048  0.80582     O
Co     0.33284  0.43545  0.59821    Co
Co     0.33284  0.43545  0.90179    Co
Co     0.33284  0.89739  0.59821    Co
Co     0.33284  0.89739  0.90179    Co
N      0.34046  0.37766   0.5384     N
N      0.34046  0.37766   0.9616     N
N      0.34046   0.9628   0.5384     N
N      0.34046   0.9628   0.9616     N
C       0.3519   0.0326    0.215     C
C       0.3519   0.0326    0.285     C
C       0.3519   0.3193    0.215     C
C       0.3519   0.3193    0.285     C
H         0.36   0.5433   0.0015     H
H         0.36   0.5433   0.4985     H
H         0.36   0.8167   0.0015     H
H         0.36   0.8167   0.4985     H
N      0.37766   0.0372   0.0384     N
N      0.37766   0.0372   0.4616     N
N      0.37766  0.34046   0.0384     N
N      0.37766  0.34046   0.4616     N
C       0.3863      0.0      0.0     C
C       0.3863      0.0      0.5     C
C       0.3863   0.3863      0.0     C
C       0.3863   0.3863      0.5     C
C       0.3928   0.5523   0.5253     C
C       0.3928   0.5523   0.9747     C
C       0.3928   0.8405   0.5253     C
C       0.3928   0.8405   0.9747     C
N       0.3966   0.5185   0.5676     N
N       0.3966   0.5185   0.9324     N
N       0.3966   0.8781   0.5676     N
N       0.3966   0.8781   0.9324     N
N       0.3998   0.0798   0.1919     N
N       0.3998   0.0798   0.3081     N
N       0.3998     0.32   0.1919     N
N       0.3998     0.32   0.3081     N
Cl      0.4151   0.1348    0.695    Cl
Cl      0.4151   0.1348    0.805    Cl
Cl      0.4151   0.2803    0.695    Cl
Cl      0.4151   0.2803    0.805    Cl
C       0.4171   0.1797   0.6229     C
C       0.4171   0.1797   0.8771     C
C       0.4171   0.2374   0.6229     C
C       0.4171   0.2374   0.8771     C
H       0.4214   0.1203    0.565     H
H       0.4214   0.1203    0.935     H
H       0.4214   0.3011    0.565     H
H       0.4214   0.3011    0.935     H
H       0.4219      0.0      0.0     H
H       0.4219      0.0      0.5     H
C       0.4219   0.1562   0.5649     C
C       0.4219   0.1562   0.9351     C
C       0.4219   0.2657   0.5649     C
C       0.4219   0.2657   0.9351     C
H       0.4219   0.4219      0.0     H
H       0.4219   0.4219      0.5     H
C       0.4281   0.1863   0.5034     C
C       0.4281   0.1863   0.9966     C
C       0.4281   0.2418   0.5034     C
C       0.4281   0.2418   0.9966     C
C       0.4289   0.1063     0.25     C
C       0.4289   0.3226     0.25     C
N      0.43194  0.17309   0.0637     N
N      0.43194  0.17309   0.4363     N
N      0.43194  0.25885   0.0637     N
N      0.43194  0.25885   0.4363     N
C       0.4343  0.21715    0.099     C
C       0.4343  0.21715    0.401     C
Co     0.43545  0.10261  0.09821    Co
Co     0.43545  0.10261  0.40179    Co
Co     0.43545  0.33284  0.09821    Co
Co     0.43545  0.33284  0.40179    Co
H       0.4374   0.2187   0.1462     H
H       0.4374   0.2187   0.3538     H
O       0.4465   0.4719   0.6448     O
O       0.4465   0.4719   0.8552     O
O       0.4465   0.9746   0.6448     O
O       0.4465   0.9746   0.8552     O
C       0.4477   0.6072   0.5253     C
C       0.4477   0.6072   0.9747     C
C       0.4477   0.8405   0.5253     C
C       0.4477   0.8405   0.9747     C
C      0.45195  0.54805    0.589     C
C      0.45195  0.54805    0.911     C
C      0.45195   0.9039    0.589     C
C      0.45195   0.9039    0.911     C
H       0.4567     0.64   0.0015     H
H       0.4567     0.64   0.4985     H
H       0.4567   0.8167   0.0015     H
H       0.4567   0.8167   0.4985     H
O       0.4719   0.0254   0.1448     O
O       0.4719   0.0254   0.3552     O
O       0.4719   0.4465   0.1448     O
O       0.4719   0.4465   0.3552     O
N      0.47835  0.52165   0.6258     N
N      0.47835  0.52165   0.8742     N
N      0.47835   0.9567   0.6258     N
N      0.47835   0.9567   0.8742     N
N       0.4815   0.6034   0.5676     N
N       0.4815   0.6034   0.9324     N
N       0.4815   0.8781   0.5676     N
N       0.4815   0.8781   0.9324     N
N        0.483   0.1592     0.25     N
N        0.483   0.3238     0.25     N
O      0.49377  0.67329  0.69418     O
O      0.49377  0.67329  0.80582     O
O      0.49377  0.82048  0.69418     O
O      0.49377  0.82048  0.80582     O
O      0.50623  0.17952  0.19418     O
O      0.50623  0.17952  0.30582     O
O      0.50623  0.32671  0.19418     O
O      0.50623  0.32671  0.30582     O
N        0.517   0.6762     0.75     N
N        0.517   0.8408     0.75     N
N       0.5185   0.1219   0.0676     N
N       0.5185   0.1219   0.4324     N
N       0.5185   0.3966   0.0676     N
N       0.5185   0.3966   0.4324     N
N      0.52165   0.0433   0.1258     N
N      0.52165   0.0433   0.3742     N
N      0.52165  0.47835   0.1258     N
N      0.52165  0.47835   0.3742     N
O       0.5281   0.5535   0.6448     O
O       0.5281   0.5535   0.8552     O
O       0.5281   0.9746   0.6448     O
O       0.5281   0.9746   0.8552     O
H       0.5433   0.1833   0.5015     H
H       0.5433   0.1833   0.9985     H
H       0.5433     0.36   0.5015     H
H       0.5433     0.36   0.9985     H
C      0.54805   0.0961    0.089     C
C      0.54805   0.0961    0.411     C
C      0.54805  0.45195    0.089     C
C      0.54805  0.45195    0.411     C
C       0.5523   0.1595   0.0253     C
C       0.5523   0.1595   0.4747     C
C       0.5523   0.3928   0.0253     C
C       0.5523   0.3928   0.4747     C
O       0.5535   0.0254   0.1448     O
O       0.5535   0.0254   0.3552     O
O       0.5535   0.5281   0.1448     O
O       0.5535   0.5281   0.3552     O
H       0.5626   0.7813   0.6462     H
H       0.5626   0.7813   0.8538     H
Co     0.56455  0.66716  0.59821    Co
Co     0.56455  0.66716  0.90179    Co
Co     0.56455  0.89739  0.59821    Co
Co     0.56455  0.89739  0.90179    Co
C       0.5657  0.78285    0.599     C
C       0.5657  0.78285    0.901     C
N      0.56806  0.74115   0.5637     N
N      0.56806  0.74115   0.9363     N
N      0.56806  0.82691   0.5637     N
N      0.56806  0.82691   0.9363     N
C       0.5711   0.6774     0.75     C
C       0.5711   0.8937     0.75     C
C       0.5719   0.7582   0.0034     C
C       0.5719   0.7582   0.4966     C
C       0.5719   0.8137   0.0034     C
C       0.5719   0.8137   0.4966     C
H       0.5781      0.0      0.0     H
H       0.5781      0.0      0.5     H
H       0.5781   0.5781      0.0     H
H       0.5781   0.5781      0.5     H
C       0.5781   0.7343   0.0649     C
C       0.5781   0.7343   0.4351     C
C       0.5781   0.8438   0.0649     C
C       0.5781   0.8438   0.4351     C
H       0.5786   0.6989    0.065     H
H       0.5786   0.6989    0.435     H
H       0.5786   0.8797    0.065     H
H       0.5786   0.8797    0.435     H
C       0.5829   0.7626   0.1229     C
C       0.5829   0.7626   0.3771     C
C       0.5829   0.8203   0.1229     C
C       0.5829   0.8203   0.3771     C
Cl      0.5849   0.7197    0.195    Cl
Cl      0.5849   0.7197    0.305    Cl
Cl      0.5849   0.8652    0.195    Cl
Cl      0.5849   0.8652    0.305    Cl
N       0.6002     0.68   0.6919     N
N       0.6002     0.68   0.8081     N
N       0.6002   0.9202   0.6919     N
N       0.6002   0.9202   0.8081     N
N       0.6034   0.1219   0.0676     N
N       0.6034   0.1219   0.4324     N
N       0.6034   0.4815   0.0676     N
N       0.6034   0.4815   0.4324     N
C       0.6072   0.1595   0.0253     C
C       0.6072   0.1595   0.4747     C
C       0.6072   0.4477   0.0253     C
C       0.6072   0.4477   0.4747     C
C       0.6137      0.0      0.0     C
C       0.6137      0.0      0.5     C
C       0.6137   0.6137      0.0     C
C       0.6137   0.6137      0.5     C
N      0.62234  0.65954   0.5384     N
N      0.62234  0.65954   0.9616     N
N      0.62234   0.9628   0.5384     N
N      0.62234   0.9628   0.9616     N
H         0.64   0.1833   0.5015     H
H         0.64   0.1833   0.9985     H
H         0.64   0.4567   0.5015     H
H         0.64   0.4567   0.9985     H
C       0.6481   0.6807    0.715     C
C       0.6481   0.6807    0.785     C
C       0.6481   0.9674    0.715     C
C       0.6481   0.9674    0.785     C
N      0.65954   0.0372   0.0384     N
N      0.65954   0.0372   0.4616     N
N      0.65954  0.62234   0.0384     N
N      0.65954  0.62234   0.4616     N
Co     0.66716  0.10261  0.09821    Co
Co     0.66716  0.10261  0.40179    Co
Co     0.66716  0.56455  0.09821    Co
Co     0.66716  0.56455  0.40179    Co
O      0.67329  0.17952  0.19418     O
O      0.67329  0.17952  0.30582     O
O      0.67329  0.49377  0.19418     O
O      0.67329  0.49377  0.30582     O
N       0.6762   0.1592     0.25     N
N       0.6762    0.517     0.25     N
C       0.6774   0.1063     0.25     C
C       0.6774   0.5711     0.25     C
H       0.6774   0.6811   0.6879     H
H       0.6774   0.6811   0.8121     H
H       0.6774   0.9963   0.6879     H
H       0.6774   0.9963   0.8121     H
N         0.68   0.0798   0.1919     N
N         0.68   0.0798   0.3081     N
N         0.68   0.6002   0.1919     N
N         0.68   0.6002   0.3081     N
C       0.6801   0.7032   0.5252     C
C       0.6801   0.7032   0.9748     C
C       0.6801   0.9769   0.5252     C
C       0.6801   0.9769   0.9748     C
C       0.6807   0.0326    0.215     C
C       0.6807   0.0326    0.285     C
C       0.6807   0.6481    0.215     C
C       0.6807   0.6481    0.285     C
H       0.6811   0.0037   0.1879     H
H       0.6811   0.0037   0.3121     H
H       0.6811   0.6774   0.1879     H
H       0.6811   0.6774   0.3121     H
H       0.6989   0.1203    0.565     H
H       0.6989   0.1203    0.935     H
H       0.6989   0.5786    0.565     H
H       0.6989   0.5786    0.935     H
H       0.7002   0.7761   0.5819     H
H       0.7002   0.7761   0.9181     H
H       0.7002   0.9241   0.5819     H
H       0.7002   0.9241   0.9181     H
C       0.7032   0.0231   0.0252     C
C       0.7032   0.0231   0.4748     C
C       0.7032   0.6801   0.0252     C
C       0.7032   0.6801   0.4748     C
C        0.715   0.7605   0.5501     C
C        0.715   0.7605   0.9499     C
C        0.715   0.9545   0.5501     C
C        0.715   0.9545   0.9499     C
Cl      0.7197   0.1348    0.695    Cl
Cl      0.7197   0.1348    0.805    Cl
Cl      0.7197   0.5849    0.695    Cl
Cl      0.7197   0.5849    0.805    Cl
C       0.7343   0.1562   0.5649     C
C       0.7343   0.1562   0.9351     C
C       0.7343   0.5781   0.5649     C
C       0.7343   0.5781   0.9351     C
N      0.74115  0.17309   0.0637     N
N      0.74115  0.17309   0.4363     N
N      0.74115  0.56806   0.0637     N
N      0.74115  0.56806   0.4363     N
C       0.7582   0.1863   0.5034     C
C       0.7582   0.1863   0.9966     C
C       0.7582   0.5719   0.5034     C
C       0.7582   0.5719   0.9966     C
C       0.7605   0.0455   0.0501     C
C       0.7605   0.0455   0.4499     C
C       0.7605    0.715   0.0501     C
C       0.7605    0.715   0.4499     C
C       0.7626   0.1797   0.6229     C
C       0.7626   0.1797   0.8771     C
C       0.7626   0.5829   0.6229     C
C       0.7626   0.5829   0.8771     C
C       0.7726   0.7936    0.526     C
C       0.7726   0.7936    0.974     C
C       0.7726    0.979    0.526     C
C       0.7726    0.979    0.974     C
H       0.7761   0.0759   0.0819     H
H       0.7761   0.0759   0.4181     H
H       0.7761   0.7002   0.0819     H
H       0.7761   0.7002   0.4181     H
H       0.7813   0.2187   0.1462     H
H       0.7813   0.2187   0.3538     H
H       0.7813   0.5626   0.1462     H
H       0.7813   0.5626   0.3538     H
C      0.78285  0.21715    0.099     C
C      0.78285  0.21715    0.401     C
C      0.78285   0.5657    0.099     C
C      0.78285   0.5657    0.401     C
C       0.7936    0.021    0.026     C
C       0.7936    0.021    0.474     C
C       0.7936   0.7726    0.026     C
C       0.7936   0.7726    0.474     C
C       0.8137   0.2418   0.5034     C
C       0.8137   0.2418   0.9966     C
C       0.8137   0.5719   0.5034     C
C       0.8137   0.5719   0.9966     C
H       0.8167     0.36   0.5015     H
H       0.8167     0.36   0.9985     H
H       0.8167   0.4567   0.5015     H
H       0.8167   0.4567   0.9985     H
C       0.8203   0.2374   0.6229     C
C       0.8203   0.2374   0.8771     C
C       0.8203   0.5829   0.6229     C
C       0.8203   0.5829   0.8771     C
O      0.82048  0.32671  0.19418     O
O      0.82048  0.32671  0.30582     O
O      0.82048  0.49377  0.19418     O
O      0.82048  0.49377  0.30582     O
Cl       0.826   0.8562   0.5601    Cl
Cl       0.826   0.8562   0.9399    Cl
Cl       0.826   0.9698   0.5601    Cl
Cl       0.826   0.9698   0.9399    Cl
N      0.82691  0.25885   0.0637     N
N      0.82691  0.25885   0.4363     N
N      0.82691  0.56806   0.0637     N
N      0.82691  0.56806   0.4363     N
C       0.8405   0.3928   0.0253     C
C       0.8405   0.3928   0.4747     C
C       0.8405   0.4477   0.0253     C
C       0.8405   0.4477   0.4747     C
N       0.8408   0.3238     0.25     N
N       0.8408    0.517     0.25     N
C       0.8438   0.2657   0.5649     C
C       0.8438   0.2657   0.9351     C
C       0.8438   0.5781   0.5649     C
C       0.8438   0.5781   0.9351     C
Cl      0.8562   0.0302   0.0601    Cl
Cl      0.8562   0.0302   0.4399    Cl
Cl      0.8562    0.826   0.0601    Cl
Cl      0.8562    0.826   0.4399    Cl
Cl      0.8652   0.2803    0.695    Cl
Cl      0.8652   0.2803    0.805    Cl
Cl      0.8652   0.5849    0.695    Cl
Cl      0.8652   0.5849    0.805    Cl
N       0.8781   0.3966   0.0676     N
N       0.8781   0.3966   0.4324     N
N       0.8781   0.4815   0.0676     N
N       0.8781   0.4815   0.4324     N
H       0.8797   0.3011    0.565     H
H       0.8797   0.3011    0.935     H
H       0.8797   0.5786    0.565     H
H       0.8797   0.5786    0.935     H
C       0.8937   0.3226     0.25     C
C       0.8937   0.5711     0.25     C
Co     0.89739  0.33284  0.09821    Co
Co     0.89739  0.33284  0.40179    Co
Co     0.89739  0.56455  0.09821    Co
Co     0.89739  0.56455  0.40179    Co
C       0.9039  0.45195    0.089     C
C       0.9039  0.45195    0.411     C
N       0.9202     0.32   0.1919     N
N       0.9202     0.32   0.3081     N
N       0.9202   0.6002   0.1919     N
N       0.9202   0.6002   0.3081     N
H       0.9241   0.2239   0.0819     H
H       0.9241   0.2239   0.4181     H
H       0.9241   0.7002   0.0819     H
H       0.9241   0.7002   0.4181     H
C       0.9545   0.2395   0.0501     C
C       0.9545   0.2395   0.4499     C
C       0.9545    0.715   0.0501     C
C       0.9545    0.715   0.4499     C
N       0.9567  0.47835   0.1258     N
N       0.9567  0.47835   0.3742     N
N       0.9628  0.34046   0.0384     N
N       0.9628  0.34046   0.4616     N
N       0.9628  0.62234   0.0384     N
N       0.9628  0.62234   0.4616     N
C       0.9674   0.3193    0.215     C
C       0.9674   0.3193    0.285     C
C       0.9674   0.6481    0.215     C
C       0.9674   0.6481    0.285     C
Cl      0.9698   0.1438   0.0601    Cl
Cl      0.9698   0.1438   0.4399    Cl
Cl      0.9698    0.826   0.0601    Cl
Cl      0.9698    0.826   0.4399    Cl
O       0.9746   0.4465   0.1448     O
O       0.9746   0.4465   0.3552     O
O       0.9746   0.5281   0.1448     O
O       0.9746   0.5281   0.3552     O
C       0.9769   0.2968   0.0252     C
C       0.9769   0.2968   0.4748     C
C       0.9769   0.6801   0.0252     C
C       0.9769   0.6801   0.4748     C
C        0.979   0.2064    0.026     C
C        0.979   0.2064    0.474     C
C        0.979   0.7726    0.026     C
C        0.979   0.7726    0.474     C
H       0.9963   0.3189   0.1879     H
H       0.9963   0.3189   0.3121     H
H       0.9963   0.6774   0.1879     H
H       0.9963   0.6774   0.3121     H
