data_I
_chemical_name_common  '/home/zhangsd/repos/MofS-CGCNN/ML/data/SSD/clean_cifs/ROCZOA_clean'
_cell_length_a 10.97400
_cell_length_b 22.66900
_cell_length_c 14.10600
_cell_angle_alpha 90.00000
_cell_angle_beta  96.63700
_cell_angle_gamma 90.00000
_space_group_name_H-M_alt      'P 1'


loop_
_space_group_symop_operation_xyz
  'x, y, z' 

loop_
_atom_site_label
_atom_site_fract_x
_atom_site_fract_y
_atom_site_fract_z
_atom_site_type_symbol
Cd         0.0      0.0      0.0    Cd
Cd         0.0      0.5      0.5    Cd
H       0.0431   0.7069   0.2791     H
H       0.0431   0.7931   0.7791     H
H       0.0493   0.7063   0.7011     H
H       0.0493   0.7937   0.2011     H
C       0.0761     0.74   0.3113     C
C       0.0761     0.76   0.8113     C
N        0.079   0.6308   0.4189     N
N        0.079   0.8692   0.9189     N
C       0.0797   0.7077   0.7654     C
C       0.0797   0.7923   0.2654     C
N       0.0838   0.5932   0.4914     N
N       0.0838   0.9068   0.9914     N
N       0.0872   0.0693   0.8153     N
N       0.0872   0.4307   0.3153     N
C       0.1174   0.6814   0.4593     C
C       0.1174   0.8186   0.9593     C
C       0.1218   0.7364   0.4061     C
C       0.1218   0.7636   0.9061     C
N       0.1219   0.6212   0.5715     N
N       0.1219   0.8788   0.0715     N
N       0.1238   0.6584   0.8063     N
N       0.1238   0.8416   0.3063     N
N       0.1255    0.043   0.8976     N
N       0.1255    0.457   0.3976     N
N       0.1288   0.0128   0.1385     N
N       0.1288   0.4872   0.6385     N
Cd     0.13181  0.57323  0.72194    Cd
Cd     0.13181  0.92677  0.22194    Cd
N       0.1443   0.6773   0.5531     N
N       0.1443   0.8227   0.0531     N
C       0.1667   0.6624   0.8977     C
C       0.1667   0.8376   0.3977     C
C       0.1684   0.7132   0.9505     C
C       0.1684   0.7868   0.4505     C
N       0.1829   0.0848   0.7723     N
N       0.1829   0.4152   0.2723     N
N        0.186    0.055   0.1626     N
N        0.186    0.445   0.6626     N
H        0.198   0.6284   0.9282     H
H        0.198   0.8716   0.4282     H
H       0.2002   0.7135   0.0146     H
H       0.2002   0.7865   0.5146     H
N       0.2401    0.095   0.1877     N
N       0.2401    0.405   0.6877     N
N       0.2468   0.0398    0.909     N
N       0.2468   0.4602    0.409     N
C       0.2797   0.0662   0.8307     C
C       0.2797   0.4338   0.3307     C
H       0.3224   0.5444   0.5833     H
H       0.3224   0.9556   0.0833     H
N        0.346   0.5753   0.7136     N
N        0.346   0.9247   0.2136     N
C       0.3819   0.5565   0.6317     C
C       0.3819   0.9435   0.1317     C
H       0.3863   0.1064   0.6829     H
H       0.3863   0.3936   0.1829     H
C       0.4077   0.0719   0.8156     C
C       0.4077   0.4281   0.3156     C
H       0.4107   0.6068   0.8372     H
H       0.4107   0.8932   0.3372     H
C       0.4336   0.5932   0.7797     C
C       0.4336   0.9068   0.2797     C
C       0.4441   0.0928   0.7314     C
C       0.4441   0.4072   0.2314     C
H       0.4784   0.0405   0.9425     H
H       0.4784   0.4595   0.4425     H
C       0.4987   0.0542   0.8842     C
C       0.4987   0.4458   0.3842     C
C       0.5013   0.5542   0.6158     C
C       0.5013   0.9458   0.1158     C
H       0.5216   0.5405   0.5575     H
H       0.5216   0.9595   0.0575     H
C       0.5559   0.5928   0.7686     C
C       0.5559   0.9072   0.2686     C
C       0.5664   0.0932   0.7203     C
C       0.5664   0.4068   0.2203     C
H       0.5893   0.1068   0.6628     H
H       0.5893   0.3932   0.1628     H
C       0.5923   0.5719   0.6844     C
C       0.5923   0.9281   0.1844     C
H       0.6137   0.6064   0.8171     H
H       0.6137   0.8936   0.3171     H
C       0.6181   0.0565   0.8683     C
C       0.6181   0.4435   0.3683     C
N        0.654   0.0753   0.7864     N
N        0.654   0.4247   0.2864     N
H       0.6776   0.0444   0.9167     H
H       0.6776   0.4556   0.4167     H
C       0.7203   0.5662   0.6693     C
C       0.7203   0.9338   0.1693     C
N       0.7532   0.5398    0.591     N
N       0.7532   0.9602    0.091     N
N       0.7599    0.595   0.3123     N
N       0.7599    0.905   0.8123     N
H       0.7998   0.2135   0.4854     H
H       0.7998   0.2865   0.9854     H
H        0.802   0.1284   0.5718     H
H        0.802   0.3716   0.0718     H
N        0.814    0.555   0.3374     N
N        0.814    0.945   0.8374     N
N       0.8171   0.5848   0.7277     N
N       0.8171   0.9152   0.2277     N
C       0.8316   0.2132   0.5495     C
C       0.8316   0.2868   0.0495     C
C       0.8333   0.1624   0.6023     C
C       0.8333   0.3376   0.1023     C
N       0.8557   0.1773   0.9469     N
N       0.8557   0.3227   0.4469     N
Cd     0.86819  0.07323  0.77806    Cd
Cd     0.86819  0.42677  0.27806    Cd
N       0.8712   0.5128   0.3615     N
N       0.8712   0.9872   0.8615     N
N       0.8745    0.543   0.6024     N
N       0.8745    0.957   0.1024     N
N       0.8762   0.1584   0.6937     N
N       0.8762   0.3416   0.1937     N
N       0.8781   0.1212   0.9285     N
N       0.8781   0.3788   0.4285     N
C       0.8782   0.2364   0.0939     C
C       0.8782   0.2636   0.5939     C
C       0.8826   0.1814   0.0407     C
C       0.8826   0.3186   0.5407     C
N       0.9128   0.5693   0.6847     N
N       0.9128   0.9307   0.1847     N
N       0.9162   0.0932   0.0086     N
N       0.9162   0.4068   0.5086     N
C       0.9203   0.2077   0.7346     C
C       0.9203   0.2923   0.2346     C
N        0.921   0.1308   0.0811     N
N        0.921   0.3692   0.5811     N
C       0.9239     0.24   0.1887     C
C       0.9239     0.26   0.6887     C
H       0.9507   0.2063   0.7989     H
H       0.9507   0.2937   0.2989     H
H       0.9569   0.2069   0.2209     H
H       0.9569   0.2931   0.7209     H
