data_I
_chemical_name_common  '/home/zhangsd/repos/MofS-CGCNN/ML/data/SSD/clean_cifs/ROCZUG_clean'
_cell_length_a 11.02900
_cell_length_b 22.76200
_cell_length_c 14.48000
_cell_angle_alpha 90.00000
_cell_angle_beta  97.14700
_cell_angle_gamma 90.00000
_space_group_name_H-M_alt      'P 1'


loop_
_space_group_symop_operation_xyz
  'x, y, z' 

loop_
_atom_site_label
_atom_site_fract_x
_atom_site_fract_y
_atom_site_fract_z
_atom_site_type_symbol
C       0.0055   0.5566   0.6134     C
C       0.0055   0.9434   0.1134     C
H       0.0257   0.5436   0.5564     H
H       0.0257   0.9564   0.0564     H
C       0.0596   0.5923    0.766     C
C       0.0596   0.9077    0.266     C
C       0.0625   0.0948   0.7253     C
C       0.0625   0.4052   0.2253     C
H       0.0854   0.1084   0.6695     H
H       0.0854   0.3916   0.1695     H
C       0.0966  0.57188    0.684     C
C       0.0966  0.92812    0.184     C
C       0.1138   0.0607    0.872     C
C       0.1138   0.4393    0.372     C
H       0.1172   0.6042   0.8148     H
H       0.1172   0.8958   0.3148     H
N       0.1507  0.07878   0.7924     N
N       0.1507  0.42122   0.2924     N
H       0.1732   0.0503   0.9206     H
H       0.1732   0.4497   0.4206     H
C        0.225   0.5643   0.6693     C
C        0.225   0.9357   0.1693     C
N       0.2428   0.5928   0.3269     N
N       0.2428   0.9072   0.8269     N
N       0.2567  0.53906   0.5926     N
N       0.2567  0.96094   0.0926     N
H       0.3006   0.1275   0.5783     H
H       0.3006   0.3725   0.0783     H
N       0.3022  0.55254   0.3478     N
N       0.3022  0.94746   0.8478     N
H       0.3046   0.2116   0.4917     H
H       0.3046   0.2884   0.9917     H
N        0.322  0.58104   0.7284     N
N        0.322  0.91896   0.2284     N
C       0.3322  0.16163   0.6075     C
C       0.3322  0.33837   0.1075     C
C       0.3342  0.21205   0.5547     C
C       0.3342  0.28795   0.0547     C
N       0.3605  0.17914   0.9511     N
N       0.3605  0.32086   0.4511     N
N       0.3639  0.51183   0.3681     N
N       0.3639  0.98817   0.8681     N
Cd     0.36417  0.07445  0.78366    Cd
Cd     0.36417  0.42555  0.28366    Cd
N       0.3729  0.15922   0.6979     N
N       0.3729  0.34078   0.1979     N
N       0.3769  0.53992   0.6047     N
N       0.3769  0.96008   0.1047     N
C       0.3808  0.23685   0.0968     C
C       0.3808  0.26315   0.5968     C
N       0.3833  0.12339   0.9309     N
N       0.3833  0.37661   0.4309     N
C       0.3877  0.18283   0.0434     C
C       0.3877  0.31717   0.5434     C
N       0.4176  0.56522    0.686     N
N       0.4176  0.93478    0.186     N
C       0.4179   0.2091   0.7374     C
C       0.4179   0.2909   0.2374     C
N       0.4223  0.09489   0.0089     N
N       0.4223  0.40511   0.5089     N
C       0.4227   0.2391   0.1908     C
C       0.4227   0.2609   0.6908     C
N       0.4267   0.1313   0.0809     N
N       0.4267   0.3687   0.5809     N
H       0.4478   0.2083   0.8003     H
H       0.4478   0.2917   0.3003     H
H       0.4538   0.2056   0.2219     H
H       0.4538   0.2944   0.7219     H
Cd         0.5      0.0      0.0    Cd
Cd         0.5      0.5      0.5    Cd
H       0.5462   0.7056   0.2781     H
H       0.5462   0.7944   0.7781     H
H       0.5522   0.7083   0.6997     H
H       0.5522   0.7917   0.1997     H
N       0.5733   0.6313   0.4191     N
N       0.5733   0.8687   0.9191     N
C       0.5773   0.7391   0.3092     C
C       0.5773   0.7609   0.8092     C
N       0.5777  0.59489   0.4911     N
N       0.5777  0.90511   0.9911     N
C       0.5821   0.7091   0.7626     C
C       0.5821   0.7909   0.2626     C
N       0.5824  0.06522    0.814     N
N       0.5824  0.43478    0.314     N
C       0.6123  0.68283   0.4566     C
C       0.6123  0.81717   0.9566     C
N       0.6167  0.62339   0.5691     N
N       0.6167  0.87661   0.0691     N
C       0.6192  0.73685   0.4032     C
C       0.6192  0.76315   0.9032     C
N       0.6231  0.03992   0.8953     N
N       0.6231  0.46008   0.3953     N
N       0.6271  0.65922   0.8021     N
N       0.6271  0.84078   0.3021     N
Cd     0.63583  0.57445  0.71634    Cd
Cd     0.63583  0.92555  0.21634    Cd
N       0.6361  0.01183   0.1319     N
N       0.6361  0.48817   0.6319     N
N       0.6395  0.67914   0.5489     N
N       0.6395  0.82086   0.0489     N
C       0.6658  0.71205   0.9453     C
C       0.6658  0.78795   0.4453     C
C       0.6678  0.66163   0.8925     C
C       0.6678  0.83837   0.3925     C
N        0.678  0.08104   0.7716     N
N        0.678  0.41896   0.2716     N
H       0.6954   0.7116   0.0083     H
H       0.6954   0.7884   0.5083     H
N       0.6978  0.05254   0.1522     N
N       0.6978  0.44746   0.6522     N
H       0.6994   0.6275   0.9217     H
H       0.6994   0.8725   0.4217     H
N       0.7433  0.03906   0.9074     N
N       0.7433  0.46094   0.4074     N
N       0.7572   0.0928   0.1731     N
N       0.7572   0.4072   0.6731     N
C        0.775   0.0643   0.8307     C
C        0.775   0.4357   0.3307     C
H       0.8268   0.5503   0.5794     H
H       0.8268   0.9497   0.0794     H
N       0.8493  0.57878   0.7076     N
N       0.8493  0.92122   0.2076     N
H       0.8828   0.1042   0.6852     H
H       0.8828   0.3958   0.1852     H
C       0.8862   0.5607    0.628     C
C       0.8862   0.9393    0.128     C
C       0.9034  0.07188    0.816     C
C       0.9034  0.42812    0.316     C
H       0.9146   0.6084   0.8305     H
H       0.9146   0.8916   0.3305     H
C       0.9375   0.5948   0.7747     C
C       0.9375   0.9052   0.2747     C
C       0.9404   0.0923    0.734     C
C       0.9404   0.4077    0.234     C
H       0.9743   0.0436   0.9436     H
H       0.9743   0.4564   0.4436     H
C       0.9945   0.0566   0.8866     C
C       0.9945   0.4434   0.3866     C
