data_I
_chemical_name_common  '/home/zhangsd/repos/MofS-CGCNN/ML/data/SSD/clean_cifs/ROCZEQ_clean'
_cell_length_a  9.62800
_cell_length_b 21.33700
_cell_length_c 13.20800
_cell_angle_alpha 90.00000
_cell_angle_beta  91.95300
_cell_angle_gamma 90.00000
_space_group_name_H-M_alt      'P 1'


loop_
_space_group_symop_operation_xyz
  'x, y, z' 

loop_
_atom_site_label
_atom_site_fract_x
_atom_site_fract_y
_atom_site_fract_z
_atom_site_type_symbol
C       0.0415  0.07405   0.3985     C
C       0.0415  0.42595   0.8985     C
C       0.0698    0.603   0.2849     C
C       0.0698    0.897   0.7849     C
C       0.0719   0.0971   0.2272     C
C       0.0719   0.4029   0.7272     C
H       0.0761   0.0635   0.4628     H
H       0.0761   0.4365   0.9628     H
C       0.0988  0.58221    0.119     C
C       0.0988  0.91779    0.619     C
H       0.1071   0.6126   0.3488     H
H       0.1071   0.8874   0.8488     H
H       0.1284   0.1037   0.1725     H
H       0.1284   0.3963   0.6725     H
C         0.13  0.08153   0.3201     C
C         0.13  0.41847   0.8201     C
N       0.1553  0.59547     0.21     N
N       0.1553  0.90453     0.71     N
H       0.1572   0.5783   0.0648     H
H       0.1572   0.9217   0.5648     H
N       0.2234   0.0806   0.6754     N
N       0.2234   0.4194   0.1754     N
C       0.2839   0.0709    0.336     C
C       0.2839   0.4291    0.836     C
N       0.2989  0.04101   0.6587     N
N       0.2989  0.45899   0.1587     N
H       0.3114   0.6492   0.4384     H
H       0.3114   0.8508   0.9384     H
H       0.3178    0.738   0.5351     H
H       0.3178    0.762   0.0351     H
O       0.3199  0.04638    0.417     O
O       0.3199  0.45362    0.917     O
C       0.3557  0.68462   0.4142     C
C       0.3557  0.81538   0.9142     C
C       0.3582  0.73803   0.4721     C
C       0.3582  0.76197   0.9721     C
O       0.3598  0.08763   0.2661     O
O       0.3598  0.41237   0.7661     O
N       0.3774  0.00025   0.6419     N
N       0.3774  0.49975   0.1419     N
Cd     0.40554  0.59159  0.22577    Cd
Cd     0.40554  0.90841  0.72577    Cd
O       0.4058  0.65589  0.09144     O
O       0.4058  0.84411  0.59144     O
N       0.4144  0.68174   0.3245     N
N       0.4144  0.81826   0.8245     N
C       0.4197  0.70877   0.9377     C
C       0.4197  0.79123   0.4377     C
C         0.42  0.64902   0.9992     C
C         0.42  0.85098   0.4992     C
O       0.4303  0.59926   0.9515     O
O       0.4303  0.90074   0.4515     O
C       0.4751  0.73295   0.2905     C
C       0.4751  0.76705   0.7905     C
H       0.4753   0.1768    0.681     H
H       0.4753   0.3232    0.181     H
C       0.4804  0.71177   0.8449     C
C       0.4804  0.78823   0.3449     C
H       0.4844   0.2316   0.2724     H
H       0.4844   0.2684   0.7724     H
Cd         0.5      0.0      0.5    Cd
Cd         0.5      0.5      0.0    Cd
H       0.5156   0.7316   0.2276     H
H       0.5156   0.7684   0.7276     H
C       0.5196  0.21177   0.6551     C
C       0.5196  0.28823   0.1551     C
H       0.5247   0.6768    0.819     H
H       0.5247   0.8232    0.319     H
C       0.5249  0.23295   0.2095     C
C       0.5249  0.26705   0.7095     C
O       0.5697  0.09926   0.5485     O
O       0.5697  0.40074   0.0485     O
C         0.58  0.14902   0.5008     C
C         0.58  0.35098   0.0008     C
C       0.5803  0.20877   0.5623     C
C       0.5803  0.29123   0.0623     C
N       0.5856  0.18174   0.1755     N
N       0.5856  0.31826   0.6755     N
O       0.5942  0.15589  0.40856     O
O       0.5942  0.34411  0.90856     O
Cd     0.59446  0.09159  0.27423    Cd
Cd     0.59446  0.40841  0.77423    Cd
N       0.6226  0.50025   0.8581     N
N       0.6226  0.99975   0.3581     N
O       0.6402  0.58763   0.2339     O
O       0.6402  0.91237   0.7339     O
C       0.6418  0.23803   0.0279     C
C       0.6418  0.26197   0.5279     C
C       0.6443  0.18462   0.0858     C
C       0.6443  0.31538   0.5858     C
O       0.6801  0.54638    0.083     O
O       0.6801  0.95362    0.583     O
H       0.6822    0.238   0.9649     H
H       0.6822    0.262   0.4649     H
H       0.6886   0.1492   0.0616     H
H       0.6886   0.3508   0.5616     H
N       0.7011  0.54101   0.8413     N
N       0.7011  0.95899   0.3413     N
C       0.7161   0.5709    0.164     C
C       0.7161   0.9291    0.664     C
N       0.7766   0.5806   0.8246     N
N       0.7766   0.9194   0.3246     N
H       0.8428   0.0783   0.4352     H
H       0.8428   0.4217   0.9352     H
N       0.8447  0.09547     0.29     N
N       0.8447  0.40453     0.79     N
C         0.87  0.58153   0.1799     C
C         0.87  0.91847   0.6799     C
H       0.8716   0.6037   0.3275     H
H       0.8716   0.8963   0.8275     H
H       0.8929   0.1126   0.1512     H
H       0.8929   0.3874   0.6512     H
C       0.9012  0.08221    0.381     C
C       0.9012  0.41779    0.881     C
H       0.9239   0.5635   0.0372     H
H       0.9239   0.9365   0.5372     H
C       0.9281   0.5971   0.2728     C
C       0.9281   0.9029   0.7728     C
C       0.9302    0.103   0.2151     C
C       0.9302    0.397   0.7151     C
C       0.9585  0.57405   0.1015     C
C       0.9585  0.92595   0.6015     C
