data_I
_chemical_name_common  '/home/zhangsd/repos/MofS-CGCNN/ML/data/SSD/clean_cifs/ROCZIU_clean'
_cell_length_a  9.63800
_cell_length_b 15.44300
_cell_length_c 18.71700
_cell_angle_alpha 90.00000
_cell_angle_beta  90.00000
_cell_angle_gamma 90.00000
_space_group_name_H-M_alt      'P 1'


loop_
_space_group_symop_operation_xyz
  'x, y, z' 

loop_
_atom_site_label
_atom_site_fract_x
_atom_site_fract_y
_atom_site_fract_z
_atom_site_type_symbol
Cd         0.0      0.0      0.0    Cd
Cd         0.0      0.5      0.5    Cd
H       0.0064   0.1466   0.6668     H
H       0.0064   0.3534   0.1668     H
H       0.0099   0.0956   0.7813     H
H       0.0099   0.4044   0.2813     H
C       0.0464   0.6423   0.7306     C
C       0.0464   0.8577   0.2306     C
C       0.0507   0.6727   0.7994     C
C       0.0507   0.8273   0.2994     C
O       0.1066   0.5741  0.59189     O
O       0.1066   0.9259  0.09189     O
Cd     0.11647   0.7169  0.43902    Cd
Cd     0.11647   0.7831  0.93902    Cd
C       0.1189   0.6528   0.6031     C
C       0.1189   0.8472   0.1031     C
O       0.1205   0.2196  0.07033     O
O       0.1205   0.2804  0.57033     O
N       0.1212   0.5715   0.4149     N
N       0.1212   0.9285   0.9149     N
C       0.1257   0.6817     0.68     C
C       0.1257   0.8183     0.18     C
O       0.1288   0.7117  0.55798     O
O       0.1288   0.7883  0.05798     O
N       0.1321   0.7373   0.8206     N
N       0.1321   0.7627   0.3206     N
O       0.1612   0.1071   0.9993     O
O       0.1612   0.3929   0.4993     O
N        0.171   0.5368   0.3667     N
N        0.171   0.9632   0.8667     N
C       0.1981   0.1689   0.0369     C
C       0.1981   0.3311   0.5369     C
C       0.2087   0.7497   0.7009     C
C       0.2087   0.7503   0.2009     C
C       0.2105   0.7256   0.2715     C
C       0.2105   0.7744   0.7715     C
N        0.215   0.5024   0.3181     N
N        0.215   0.9976   0.8181     N
H       0.2631   0.7213   0.1676     H
H       0.2631   0.7787   0.6676     H
H       0.2693   0.6808   0.2852     H
H       0.2693   0.8192   0.7852     H
H       0.3486   0.2095   0.6047     H
H       0.3486   0.2905   0.1047     H
C       0.3511   0.1847   0.0423     C
C       0.3511   0.3153   0.5423     C
H       0.3575   0.6073   0.5069     H
H       0.3575   0.8927   0.0069     H
N       0.3635   0.7087   0.4448     N
N       0.3635   0.7913   0.9448     N
C        0.407   0.2485   0.5817     C
C        0.407   0.2515   0.0817     C
H       0.4111   0.0838   0.9819     H
H       0.4111   0.4162   0.4819     H
C       0.4181   0.6446   0.4834     C
C       0.4181   0.8554   0.9834     C
H       0.4183   0.6937   0.8852     H
H       0.4183   0.8063   0.3852     H
C        0.443   0.1301   0.0091     C
C        0.443   0.3699   0.5091     C
C       0.4527    0.739   0.9128     C
C       0.4527    0.761   0.4128     C
C       0.5473    0.239   0.5872     C
C       0.5473    0.261   0.0872     C
C        0.557   0.6301   0.4909     C
C        0.557   0.8699   0.9909     C
H       0.5817   0.1937   0.6148     H
H       0.5817   0.3063   0.1148     H
C       0.5819   0.1446   0.0166     C
C       0.5819   0.3554   0.5166     C
H       0.5889   0.5838   0.5181     H
H       0.5889   0.9162   0.0181     H
C        0.593   0.7485   0.9183     C
C        0.593   0.7515   0.4183     C
N       0.6365   0.2087   0.0552     N
N       0.6365   0.2913   0.5552     N
H       0.6425   0.1073   0.9931     H
H       0.6425   0.3927   0.4931     H
C       0.6489   0.6847   0.4577     C
C       0.6489   0.8153   0.9577     C
H       0.6514   0.7095   0.8953     H
H       0.6514   0.7905   0.3953     H
H       0.7307   0.1808   0.2148     H
H       0.7307   0.3192   0.7148     H
H       0.7369   0.2213   0.3324     H
H       0.7369   0.2787   0.8324     H
N        0.785   0.0024   0.1819     N
N        0.785   0.4976   0.6819     N
C       0.7895   0.2256   0.2285     C
C       0.7895   0.2744   0.7285     C
C       0.7913   0.2497   0.7991     C
C       0.7913   0.2503   0.2991     C
C       0.8019   0.6689   0.4631     C
C       0.8019   0.8311   0.9631     C
N        0.829   0.0368   0.1333     N
N        0.829   0.4632   0.6333     N
O       0.8388   0.6071   0.5007     O
O       0.8388   0.8929   0.0007     O
N       0.8679   0.2373   0.6794     N
N       0.8679   0.2627   0.1794     N
O       0.8712   0.2117  0.94202     O
O       0.8712   0.2883  0.44202     O
C       0.8743   0.1817     0.82     C
C       0.8743   0.3183     0.32     C
N       0.8788   0.0715   0.0851     N
N       0.8788   0.4285   0.5851     N
O       0.8795   0.7196  0.42967     O
O       0.8795   0.7804  0.92967     O
C       0.8811   0.1528   0.8969     C
C       0.8811   0.3472   0.3969     C
Cd     0.88353   0.2169  0.06098    Cd
Cd     0.88353   0.2831  0.56098    Cd
O       0.8934   0.0741  0.90811     O
O       0.8934   0.4259  0.40811     O
C       0.9493   0.1727   0.7006     C
C       0.9493   0.3273   0.2006     C
C       0.9536   0.1423   0.7694     C
C       0.9536   0.3577   0.2694     C
H       0.9901   0.5956   0.7187     H
H       0.9901   0.9044   0.2187     H
H       0.9936   0.6466   0.8332     H
H       0.9936   0.8534   0.3332     H
