data_I
_chemical_name_common  '/home/zhangsd/repos/MofS-CGCNN/ML/data/SSD/clean_cifs/RODBAP_clean'
_cell_length_a 11.05400
_cell_length_b 22.72300
_cell_length_c 14.66600
_cell_angle_alpha 90.00000
_cell_angle_beta  96.80000
_cell_angle_gamma 90.00000
_space_group_name_H-M_alt      'P 1'


loop_
_space_group_symop_operation_xyz
  'x, y, z' 

loop_
_atom_site_label
_atom_site_fract_x
_atom_site_fract_y
_atom_site_fract_z
_atom_site_type_symbol
Cd         0.0      0.0      0.0    Cd
Cd         0.0      0.5      0.5    Cd
N       0.0696  0.63258  0.41689     N
N       0.0696  0.86742  0.91689     N
N       0.0734  0.59679  0.48799     N
N       0.0734  0.90321  0.98799     N
H       0.0767    0.702   0.2743     H
H       0.0767    0.798   0.7743     H
N       0.0798  0.06808  0.81757     N
N       0.0798  0.43192  0.31757     N
H       0.0908   0.7125   0.6936     H
H       0.0908   0.7875   0.1936     H
C       0.0967    0.737   0.3053     C
C       0.0967    0.763   0.8053     C
C       0.1057  0.71143   0.7573     C
C       0.1057  0.78857   0.2573     C
C       0.1072  0.68402  0.45316     C
C       0.1072  0.81598  0.95316     C
N       0.1129  0.62547  0.56417     N
N       0.1129  0.87453  0.06417     N
C       0.1176   0.7379  0.40013     C
C       0.1176   0.7621  0.90013     C
N       0.1188  0.04101  0.89517     N
N       0.1188  0.45899  0.39517     N
N       0.1342  0.68099  0.54378     N
N       0.1342  0.81901  0.04378     N
N       0.1348  0.65996  0.79792     N
N       0.1348  0.84004  0.29792     N
Cd     0.13925  0.57545  0.71106    Cd
Cd     0.13925  0.92455  0.21106    Cd
N       0.1427  0.00862  0.12526     N
N       0.1427  0.49138  0.62526     N
C         0.15  0.70911   0.9421     C
C         0.15  0.79089   0.4421     C
C       0.1574  0.65968    0.889     C
C       0.1574  0.84032    0.389     C
H       0.1666   0.7069   0.0056     H
H       0.1666   0.7931   0.5056     H
N       0.1754  0.08596  0.77706     N
N       0.1754  0.41404  0.27706     N
H       0.1792   0.6243   0.9182     H
H       0.1792   0.8757   0.4182     H
N        0.219  0.04515   0.1347     N
N        0.219  0.45485   0.6347     N
N       0.2388  0.04084   0.9077     N
N       0.2388  0.45916   0.4077     N
C       0.2716  0.06833  0.83464     C
C       0.2716  0.43167  0.33464     C
N       0.2931   0.0801   0.1434     N
N       0.2931   0.4199   0.6434     N
H       0.3319   0.5597   0.5709     H
H       0.3319   0.9403   0.0709     H
N       0.3521  0.58144  0.70182     N
N       0.3521  0.91856  0.20182     N
H       0.3813   0.1031   0.6889     H
H       0.3813   0.3969   0.1889     H
C       0.3903  0.56745   0.6204     C
C       0.3903  0.93255   0.1204     C
C       0.3998  0.07602   0.8204     C
C       0.3998  0.42398   0.3204     C
H       0.4146    0.605   0.8268     H
H       0.4146    0.895   0.3268     H
C        0.438  0.09284   0.7383     C
C        0.438  0.40716   0.2383     C
C       0.4385   0.5944   0.7704     C
C       0.4385   0.9056   0.2704     C
H       0.4683   0.0537   0.9501     H
H       0.4683   0.4463   0.4501     H
C       0.4899  0.06404   0.8928     C
C       0.4899  0.43596   0.3928     C
C       0.5101  0.56404   0.6072     C
C       0.5101  0.93596   0.1072     C
H       0.5317   0.5537   0.5499     H
H       0.5317   0.9463   0.0499     H
C       0.5615   0.0944   0.7296     C
C       0.5615   0.4056   0.2296     C
C        0.562  0.59284   0.7617     C
C        0.562  0.90716   0.2617     C
H       0.5854    0.105   0.6732     H
H       0.5854    0.395   0.1732     H
C       0.6002  0.57602   0.6796     C
C       0.6002  0.92398   0.1796     C
C       0.6097  0.06745   0.8796     C
C       0.6097  0.43255   0.3796     C
H       0.6187   0.6031   0.8111     H
H       0.6187   0.8969   0.3111     H
N       0.6479  0.08144  0.79818     N
N       0.6479  0.41856  0.29818     N
H       0.6681   0.0597   0.9291     H
H       0.6681   0.4403   0.4291     H
N       0.7069   0.5801   0.3566     N
N       0.7069   0.9199   0.8566     N
C       0.7284  0.56833  0.66536     C
C       0.7284  0.93167  0.16536     C
N       0.7612  0.54084   0.5923     N
N       0.7612  0.95916   0.0923     N
N        0.781  0.54515   0.3653     N
N        0.781  0.95485   0.8653     N
H       0.8208   0.1243   0.5818     H
H       0.8208   0.3757   0.0818     H
N       0.8246  0.58596  0.72294     N
N       0.8246  0.91404  0.22294     N
H       0.8334   0.2069   0.4944     H
H       0.8334   0.2931   0.9944     H
C       0.8426  0.15968    0.611     C
C       0.8426  0.34032    0.111     C
C         0.85  0.20911   0.5579     C
C         0.85  0.29089   0.0579     C
N       0.8573  0.50862  0.37474     N
N       0.8573  0.99138  0.87474     N
Cd     0.86075  0.07545  0.78894    Cd
Cd     0.86075  0.42455  0.28894    Cd
N       0.8652  0.15996  0.70208     N
N       0.8652  0.34004  0.20208     N
N       0.8658  0.18099  0.95622     N
N       0.8658  0.31901  0.45622     N
N       0.8812  0.54101  0.60483     N
N       0.8812  0.95899  0.10483     N
C       0.8824   0.2379  0.09987     C
C       0.8824   0.2621  0.59987     C
N       0.8871  0.12547  0.93583     N
N       0.8871  0.37453  0.43583     N
C       0.8928  0.18402  0.04684     C
C       0.8928  0.31598  0.54684     C
C       0.8943  0.21143   0.7427     C
C       0.8943  0.28857   0.2427     C
C       0.9033    0.237   0.1947     C
C       0.9033    0.263   0.6947     C
H       0.9092   0.2125   0.8064     H
H       0.9092   0.2875   0.3064     H
N       0.9202  0.56808  0.68243     N
N       0.9202  0.93192  0.18243     N
H       0.9233    0.202   0.2257     H
H       0.9233    0.298   0.7257     H
N       0.9266  0.09679  0.01201     N
N       0.9266  0.40321  0.51201     N
N       0.9304  0.13258  0.08311     N
N       0.9304  0.36742  0.58311     N
