data_I
_chemical_name_common  '/home/zhangsd/repos/MofS-CGCNN/ML/data/SSD/clean_cifs/RONSIY_clean'
_cell_length_a 10.84450
_cell_length_b 13.78940
_cell_length_c 17.48390
_cell_angle_alpha 90.00000
_cell_angle_beta  90.00000
_cell_angle_gamma 100.42900
_space_group_name_H-M_alt      'P 1'


loop_
_space_group_symop_operation_xyz
  'x, y, z' 

loop_
_atom_site_label
_atom_site_fract_x
_atom_site_fract_y
_atom_site_fract_z
_atom_site_type_symbol
H       0.0025   0.3139   0.4817     H
C        0.004  0.03369  0.53349     C
C        0.005    0.433   0.4152     C
C        0.005  0.46788  0.96648     C
C       0.0091   0.4191  0.66357     C
C        0.015  0.92492  0.92223     C
H       0.0166   0.1927   0.0081     H
N      0.01874  0.16012  0.65973     N
O       0.0203   0.8577  0.18183     O
N      0.02585  0.34441   0.8418     N
C       0.0375   0.0745  0.83955     C
Cu     0.03977  0.25266  0.75204    Cu
C        0.041  0.00829  0.11776     C
C       0.0489    0.648   0.5421     C
C       0.0563  0.14912   0.0352     C
C       0.0647  0.92346  0.34323     C
C       0.0673  0.50926  0.62095     C
C       0.0677   0.6758  0.10883     C
C       0.0747  0.98724  0.40413     C
C       0.0816  0.61753  0.04688     C
O       0.0854  0.36522  0.68612     O
C       0.0901  0.12151  0.53671     C
H       0.0918   0.4486    0.411     H
C       0.0939  0.18169  0.59969     C
H       0.1016   0.9298   0.9205     H
C       0.1021  0.48841  0.91473     C
O       0.1041  0.59855  0.32524     O
C       0.1094  0.42611  0.85364     C
H       0.1189   0.9394   0.3021     H
H       0.1274   0.7325   0.1165     H
H       0.1346   0.0448   0.4034     H
H       0.1452   0.1395   0.4963     H
O      0.14832  0.07305  0.82721     O
H        0.149   0.6354   0.0138     H
H       0.1519   0.2403   0.6003     H
H       0.1632   0.5446    0.921     H
H       0.1651   0.3674   0.0683     H
C       0.1694  0.01854  0.11472     C
H       0.1717   0.7862   0.4591     H
H       0.1731      0.9   0.5721     H
H       0.1756   0.4421   0.8194     H
C        0.176  0.67337  0.53431     C
C       0.1849  0.15981  0.03207     C
C       0.1958  0.53536  0.61443     C
H       0.2092   0.9744   0.1411     H
H       0.2109   0.2639   0.9474     H
C       0.2365  0.75936  0.48564     C
C       0.2401  0.09384  0.07278     C
H       0.2473   0.4981    0.639     H
C       0.2481   0.6161  0.57182     C
C       0.2519   0.3839  0.07182     C
H       0.2527   0.5019    0.139     H
C       0.2599  0.90616  0.57278     C
C       0.2635  0.24064  0.98564     C
H       0.2891   0.7361   0.4474     H
H       0.2908   0.0256   0.6411     H
C       0.3042  0.46464  0.11443     C
C       0.3151  0.84019  0.53207     C
C        0.324  0.32663  0.03431     C
H       0.3244   0.5579   0.3194     H
H       0.3269      0.1   0.0721     H
H       0.3283   0.2138   0.9591     H
C       0.3306  0.98146  0.61472     C
H       0.3349   0.6326   0.5683     H
H       0.3368   0.4554    0.421     H
H       0.3481   0.7597   0.1003     H
H        0.351   0.3646   0.5138     H
O      0.35168  0.92695  0.32721     O
H       0.3548   0.8605   0.9963     H
H       0.3654   0.9552   0.9034     H
H       0.3726   0.2675   0.6165     H
H       0.3811   0.0606   0.8021     H
C       0.3906  0.57389  0.35364     C
O       0.3959  0.40145  0.82524     O
C       0.3979  0.51159  0.41473     C
H       0.3984   0.0702   0.4205     H
C       0.4061  0.81831  0.09969     C
H       0.4082   0.5514    0.911     H
C       0.4099  0.87849  0.03671     C
O       0.4146  0.63478  0.18612     O
C       0.4184  0.38247  0.54688     C
C       0.4253  0.01276  0.90413     C
C       0.4323   0.3242  0.60883     C
C       0.4327  0.49074  0.12095     C
C       0.4353  0.07654  0.84323     C
C       0.4437  0.85088   0.5352     C
C       0.4511    0.352   0.0421     C
C        0.459  0.99171  0.61776     C
Cu     0.46023  0.74734  0.25204    Cu
C       0.4625   0.9255  0.33955     C
N      0.47415  0.65559   0.3418     N
O       0.4797   0.1423  0.68183     O
N      0.48126  0.83988  0.15973     N
H       0.4834   0.8073   0.5081     H
C        0.485  0.07508  0.42223     C
C       0.4909   0.5809  0.16357     C
C        0.495  0.53212  0.46648     C
C        0.495    0.567   0.9152     C
C        0.496  0.96631  0.03349     C
H       0.4975   0.6861   0.9817     H
H       0.5025   0.3139   0.0183     H
C        0.504  0.03369  0.96651     C
C        0.505    0.433   0.0848     C
C        0.505  0.46788  0.53352     C
C       0.5091   0.4191  0.83643     C
C        0.515  0.92492  0.57777     C
H       0.5166   0.1927   0.4919     H
N      0.51874  0.16012  0.84027     N
O       0.5203   0.8577  0.31817     O
N      0.52585  0.34441   0.6582     N
C       0.5375   0.0745  0.66045     C
Cu     0.53977  0.25266  0.74796    Cu
C        0.541  0.00829  0.38224     C
C       0.5489    0.648   0.9579     C
C       0.5563  0.14912   0.4648     C
C       0.5647  0.92346  0.15677     C
C       0.5673  0.50926  0.87905     C
C       0.5677   0.6758  0.39117     C
C       0.5747  0.98724  0.09587     C
C       0.5816  0.61753  0.45312     C
O       0.5854  0.36522  0.81388     O
C       0.5901  0.12151  0.96329     C
H       0.5918   0.4486    0.089     H
C       0.5939  0.18169  0.90031     C
H       0.6016   0.9298   0.5795     H
C       0.6021  0.48841  0.58527     C
O       0.6041  0.59855  0.17476     O
C       0.6094  0.42611  0.64636     C
H       0.6189   0.9394   0.1979     H
H       0.6274   0.7325   0.3835     H
H       0.6346   0.0448   0.0966     H
H       0.6452   0.1395   0.0037     H
O      0.64832  0.07305  0.67279     O
H        0.649   0.6354   0.4862     H
H       0.6519   0.2403   0.8997     H
H       0.6632   0.5446    0.579     H
H       0.6651   0.3674   0.4317     H
C       0.6694  0.01854  0.38528     C
H       0.6717   0.7862   0.0409     H
H       0.6731      0.9   0.9279     H
H       0.6756   0.4421   0.6806     H
C        0.676  0.67337  0.96569     C
C       0.6849  0.15981  0.46793     C
C       0.6958  0.53536  0.88557     C
H       0.7092   0.9744   0.3589     H
H       0.7109   0.2639   0.5526     H
C       0.7365  0.75936  0.01436     C
C       0.7401  0.09384  0.42722     C
H       0.7473   0.4981    0.861     H
C       0.7481   0.6161  0.92818     C
C       0.7519   0.3839  0.42818     C
H       0.7527   0.5019    0.361     H
C       0.7599  0.90616  0.92722     C
C       0.7635  0.24064  0.51436     C
H       0.7891   0.7361   0.0526     H
H       0.7908   0.0256   0.8589     H
C       0.8042  0.46464  0.38557     C
C       0.8151  0.84019  0.96793     C
C        0.824  0.32663  0.46569     C
H       0.8244   0.5579   0.1806     H
H       0.8269      0.1   0.4279     H
H       0.8283   0.2138   0.5409     H
C       0.8306  0.98146  0.88528     C
H       0.8349   0.6326   0.9317     H
H       0.8368   0.4554    0.079     H
H       0.8481   0.7597   0.3997     H
H        0.851   0.3646   0.9862     H
O      0.85168  0.92695  0.17279     O
H       0.8548   0.8605   0.5037     H
H       0.8654   0.9552   0.5966     H
H       0.8726   0.2675   0.8835     H
H       0.8811   0.0606   0.6979     H
C       0.8906  0.57389  0.14636     C
O       0.8959  0.40145  0.67476     O
C       0.8979  0.51159  0.08527     C
H       0.8984   0.0702   0.0795     H
C       0.9061  0.81831  0.40031     C
H       0.9082   0.5514    0.589     H
C       0.9099  0.87849  0.46329     C
O       0.9146  0.63478  0.31388     O
C       0.9184  0.38247  0.95312     C
C       0.9253  0.01276  0.59587     C
C       0.9323   0.3242  0.89117     C
C       0.9327  0.49074  0.37905     C
C       0.9353  0.07654  0.65677     C
C       0.9437  0.85088   0.9648     C
C       0.9511    0.352   0.4579     C
C        0.959  0.99171  0.88224     C
Cu     0.96023  0.74734  0.24796    Cu
C       0.9625   0.9255  0.16045     C
N      0.97415  0.65559   0.1582     N
O       0.9797   0.1423  0.81817     O
N      0.98126  0.83988  0.34027     N
H       0.9834   0.8073   0.9919     H
C        0.985  0.07508  0.07777     C
C       0.9909   0.5809  0.33643     C
C        0.995  0.53212  0.03352     C
C        0.995    0.567   0.5848     C
C        0.996  0.96631  0.46651     C
H       0.9975   0.6861   0.5183     H
