data_I
_chemical_name_common  '/home/zhangsd/repos/MofS-CGCNN/ML/data/SSD/clean_cifs/ROQDIM01_clean'
_cell_length_a 12.82590
_cell_length_b 12.82590
_cell_length_c 12.82590
_cell_angle_alpha 90.00000
_cell_angle_beta  90.00000
_cell_angle_gamma 90.00000
_space_group_name_H-M_alt      'P 1'


loop_
_space_group_symop_operation_xyz
  'x, y, z' 

loop_
_atom_site_label
_atom_site_fract_x
_atom_site_fract_y
_atom_site_fract_z
_atom_site_type_symbol
Na         0.0      0.0      0.0    Na
Fe         0.0      0.0      0.5    Fe
Fe         0.0      0.5      0.0    Fe
Na         0.0      0.5      0.5    Na
N      0.01774  0.52924  0.30746     N
N      0.01774  0.97076  0.80746     N
N      0.01989  0.03569  0.27436     N
N      0.01989  0.46431  0.77436     N
N      0.02924  0.19254  0.98226     N
N      0.02924  0.30746  0.48226     N
N      0.03569  0.22564  0.51989     N
N      0.03569  0.27436  0.01989     N
N      0.04466  0.14298  0.56175     N
N      0.04466  0.35702  0.06175     N
N      0.06175  0.04466  0.35702     N
N      0.06175  0.45534  0.85702     N
N      0.14298  0.56175  0.04466     N
N      0.14298  0.93825  0.54466     N
N      0.19254  0.51774  0.52924     N
N      0.19254  0.98226  0.02924     N
N      0.22564  0.51989  0.03569     N
N      0.22564  0.98011  0.53569     N
N      0.27436  0.01989  0.03569     N
N      0.27436  0.48011  0.53569     N
N      0.30746  0.01774  0.52924     N
N      0.30746  0.48226  0.02924     N
N      0.35702  0.06175  0.04466     N
N      0.35702  0.43825  0.54466     N
N      0.43825  0.54466  0.35702     N
N      0.43825  0.95534  0.85702     N
N      0.45534  0.64298  0.56175     N
N      0.45534  0.85702  0.06175     N
N      0.46431  0.72564  0.51989     N
N      0.46431  0.77436  0.01989     N
N      0.47076  0.69254  0.98226     N
N      0.47076  0.80746  0.48226     N
N      0.48011  0.53569  0.27436     N
N      0.48011  0.96431  0.77436     N
N      0.48226  0.02924  0.30746     N
N      0.48226  0.47076  0.80746     N
Fe         0.5      0.0      0.0    Fe
Na         0.5      0.0      0.5    Na
Na         0.5      0.5      0.0    Na
Fe         0.5      0.5      0.5    Fe
N      0.51774  0.52924  0.19254     N
N      0.51774  0.97076  0.69254     N
N      0.51989  0.03569  0.22564     N
N      0.51989  0.46431  0.72564     N
N      0.52924  0.19254  0.51774     N
N      0.52924  0.30746  0.01774     N
N      0.53569  0.22564  0.98011     N
N      0.53569  0.27436  0.48011     N
N      0.54466  0.14298  0.93825     N
N      0.54466  0.35702  0.43825     N
N      0.56175  0.04466  0.14298     N
N      0.56175  0.45534  0.64298     N
N      0.64298  0.56175  0.45534     N
N      0.64298  0.93825  0.95534     N
N      0.69254  0.51774  0.97076     N
N      0.69254  0.98226  0.47076     N
N      0.72564  0.51989  0.46431     N
N      0.72564  0.98011  0.96431     N
N      0.77436  0.01989  0.46431     N
N      0.77436  0.48011  0.96431     N
N      0.80746  0.01774  0.97076     N
N      0.80746  0.48226  0.47076     N
N      0.85702  0.06175  0.45534     N
N      0.85702  0.43825  0.95534     N
N      0.93825  0.54466  0.14298     N
N      0.93825  0.95534  0.64298     N
N      0.95534  0.64298  0.93825     N
N      0.95534  0.85702  0.43825     N
N      0.96431  0.72564  0.98011     N
N      0.96431  0.77436  0.48011     N
N      0.97076  0.69254  0.51774     N
N      0.97076  0.80746  0.01774     N
N      0.98011  0.53569  0.22564     N
N      0.98011  0.96431  0.72564     N
N      0.98226  0.02924  0.19254     N
N      0.98226  0.47076  0.69254     N
