data_I
_chemical_name_common  '/home/zhangsd/repos/MofS-CGCNN/ML/data/SSD/clean_cifs/ROQDIM04_clean'
_cell_length_a 12.91470
_cell_length_b 12.91470
_cell_length_c 12.91470
_cell_angle_alpha 90.00000
_cell_angle_beta  90.00000
_cell_angle_gamma 90.00000
_space_group_name_H-M_alt      'P 1'


loop_
_space_group_symop_operation_xyz
  'x, y, z' 

loop_
_atom_site_label
_atom_site_fract_x
_atom_site_fract_y
_atom_site_fract_z
_atom_site_type_symbol
Na         0.0      0.0      0.0    Na
Fe         0.0      0.0      0.5    Fe
Fe         0.0      0.5      0.0    Fe
Na         0.0      0.5      0.5    Na
N      0.01692  0.52715  0.30685     N
N      0.01692  0.97285  0.80685     N
N      0.01845  0.03372   0.2745     N
N      0.01845  0.46628   0.7745     N
N      0.02715  0.19315  0.98308     N
N      0.02715  0.30685  0.48308     N
N      0.03372   0.2255  0.51845     N
N      0.03372   0.2745  0.01845     N
N      0.04334  0.14311  0.55932     N
N      0.04334  0.35689  0.05932     N
N      0.05932  0.04334  0.35689     N
N      0.05932  0.45666  0.85689     N
N      0.14311  0.55932  0.04334     N
N      0.14311  0.94068  0.54334     N
N      0.19315  0.51692  0.52715     N
N      0.19315  0.98308  0.02715     N
N       0.2255  0.51845  0.03372     N
N       0.2255  0.98155  0.53372     N
N       0.2745  0.01845  0.03372     N
N       0.2745  0.48155  0.53372     N
N      0.30685  0.01692  0.52715     N
N      0.30685  0.48308  0.02715     N
N      0.35689  0.05932  0.04334     N
N      0.35689  0.44068  0.54334     N
N      0.44068  0.54334  0.35689     N
N      0.44068  0.95666  0.85689     N
N      0.45666  0.64311  0.55932     N
N      0.45666  0.85689  0.05932     N
N      0.46628   0.7255  0.51845     N
N      0.46628   0.7745  0.01845     N
N      0.47285  0.69315  0.98308     N
N      0.47285  0.80685  0.48308     N
N      0.48155  0.53372   0.2745     N
N      0.48155  0.96628   0.7745     N
N      0.48308  0.02715  0.30685     N
N      0.48308  0.47285  0.80685     N
Fe         0.5      0.0      0.0    Fe
Na         0.5      0.0      0.5    Na
Na         0.5      0.5      0.0    Na
Fe         0.5      0.5      0.5    Fe
N      0.51692  0.52715  0.19315     N
N      0.51692  0.97285  0.69315     N
N      0.51845  0.03372   0.2255     N
N      0.51845  0.46628   0.7255     N
N      0.52715  0.19315  0.51692     N
N      0.52715  0.30685  0.01692     N
N      0.53372   0.2255  0.98155     N
N      0.53372   0.2745  0.48155     N
N      0.54334  0.14311  0.94068     N
N      0.54334  0.35689  0.44068     N
N      0.55932  0.04334  0.14311     N
N      0.55932  0.45666  0.64311     N
N      0.64311  0.55932  0.45666     N
N      0.64311  0.94068  0.95666     N
N      0.69315  0.51692  0.97285     N
N      0.69315  0.98308  0.47285     N
N       0.7255  0.51845  0.46628     N
N       0.7255  0.98155  0.96628     N
N       0.7745  0.01845  0.46628     N
N       0.7745  0.48155  0.96628     N
N      0.80685  0.01692  0.97285     N
N      0.80685  0.48308  0.47285     N
N      0.85689  0.05932  0.45666     N
N      0.85689  0.44068  0.95666     N
N      0.94068  0.54334  0.14311     N
N      0.94068  0.95666  0.64311     N
N      0.95666  0.64311  0.94068     N
N      0.95666  0.85689  0.44068     N
N      0.96628   0.7255  0.98155     N
N      0.96628   0.7745  0.48155     N
N      0.97285  0.69315  0.51692     N
N      0.97285  0.80685  0.01692     N
N      0.98155  0.53372   0.2255     N
N      0.98155  0.96628   0.7255     N
N      0.98308  0.02715  0.19315     N
N      0.98308  0.47285  0.69315     N
