data_I
_chemical_name_common  '/home/zhangsd/repos/MofS-CGCNN/ML/data/SSD/clean_cifs/ROQDIM03_clean'
_cell_length_a 12.89870
_cell_length_b 12.89870
_cell_length_c 12.89870
_cell_angle_alpha 90.00000
_cell_angle_beta  90.00000
_cell_angle_gamma 90.00000
_space_group_name_H-M_alt      'P 1'


loop_
_space_group_symop_operation_xyz
  'x, y, z' 

loop_
_atom_site_label
_atom_site_fract_x
_atom_site_fract_y
_atom_site_fract_z
_atom_site_type_symbol
Na         0.0      0.0      0.0    Na
Fe         0.0      0.0      0.5    Fe
Fe         0.0      0.5      0.0    Fe
Na         0.0      0.5      0.5    Na
N      0.01736  0.52804  0.30704     N
N      0.01736  0.97196  0.80704     N
N      0.01904  0.03457  0.27452     N
N      0.01904  0.46543  0.77452     N
N      0.02804  0.19296  0.98264     N
N      0.02804  0.30704  0.48264     N
N      0.03457  0.22548  0.51904     N
N      0.03457  0.27452  0.01904     N
N      0.04381  0.14301  0.56011     N
N      0.04381  0.35699  0.06011     N
N      0.06011  0.04381  0.35699     N
N      0.06011  0.45619  0.85699     N
N      0.14301  0.56011  0.04381     N
N      0.14301  0.93989  0.54381     N
N      0.19296  0.51736  0.52804     N
N      0.19296  0.98264  0.02804     N
N      0.22548  0.51904  0.03457     N
N      0.22548  0.98096  0.53457     N
N      0.27452  0.01904  0.03457     N
N      0.27452  0.48096  0.53457     N
N      0.30704  0.01736  0.52804     N
N      0.30704  0.48264  0.02804     N
N      0.35699  0.06011  0.04381     N
N      0.35699  0.43989  0.54381     N
N      0.43989  0.54381  0.35699     N
N      0.43989  0.95619  0.85699     N
N      0.45619  0.64301  0.56011     N
N      0.45619  0.85699  0.06011     N
N      0.46543  0.72548  0.51904     N
N      0.46543  0.77452  0.01904     N
N      0.47196  0.69296  0.98264     N
N      0.47196  0.80704  0.48264     N
N      0.48096  0.53457  0.27452     N
N      0.48096  0.96543  0.77452     N
N      0.48264  0.02804  0.30704     N
N      0.48264  0.47196  0.80704     N
Fe         0.5      0.0      0.0    Fe
Na         0.5      0.0      0.5    Na
Na         0.5      0.5      0.0    Na
Fe         0.5      0.5      0.5    Fe
N      0.51736  0.52804  0.19296     N
N      0.51736  0.97196  0.69296     N
N      0.51904  0.03457  0.22548     N
N      0.51904  0.46543  0.72548     N
N      0.52804  0.19296  0.51736     N
N      0.52804  0.30704  0.01736     N
N      0.53457  0.22548  0.98096     N
N      0.53457  0.27452  0.48096     N
N      0.54381  0.14301  0.93989     N
N      0.54381  0.35699  0.43989     N
N      0.56011  0.04381  0.14301     N
N      0.56011  0.45619  0.64301     N
N      0.64301  0.56011  0.45619     N
N      0.64301  0.93989  0.95619     N
N      0.69296  0.51736  0.97196     N
N      0.69296  0.98264  0.47196     N
N      0.72548  0.51904  0.46543     N
N      0.72548  0.98096  0.96543     N
N      0.77452  0.01904  0.46543     N
N      0.77452  0.48096  0.96543     N
N      0.80704  0.01736  0.97196     N
N      0.80704  0.48264  0.47196     N
N      0.85699  0.06011  0.45619     N
N      0.85699  0.43989  0.95619     N
N      0.93989  0.54381  0.14301     N
N      0.93989  0.95619  0.64301     N
N      0.95619  0.64301  0.93989     N
N      0.95619  0.85699  0.43989     N
N      0.96543  0.72548  0.98096     N
N      0.96543  0.77452  0.48096     N
N      0.97196  0.69296  0.51736     N
N      0.97196  0.80704  0.01736     N
N      0.98096  0.53457  0.22548     N
N      0.98096  0.96543  0.72548     N
N      0.98264  0.02804  0.19296     N
N      0.98264  0.47196  0.69296     N
