data_I
_chemical_name_common  '/home/zhangsd/repos/MofS-CGCNN/ML/data/SSD/clean_cifs/ROQFUA01_clean'
_cell_length_a 13.13190
_cell_length_b 13.13190
_cell_length_c 13.13190
_cell_angle_alpha 90.00000
_cell_angle_beta  90.00000
_cell_angle_gamma 90.00000
_space_group_name_H-M_alt      'P 1'


loop_
_space_group_symop_operation_xyz
  'x, y, z' 

loop_
_atom_site_label
_atom_site_fract_x
_atom_site_fract_y
_atom_site_fract_z
_atom_site_type_symbol
K          0.0      0.0      0.0     K
Fe         0.0      0.0      0.5    Fe
Fe         0.0      0.5      0.0    Fe
K          0.0      0.5      0.5     K
N       0.0205  0.04082  0.28465     N
N       0.0205  0.45918  0.78465     N
N      0.02155  0.53718  0.29275     N
N      0.02155  0.96282  0.79275     N
N      0.03718  0.20725  0.97845     N
N      0.03718  0.29275  0.47845     N
N      0.04082  0.21535   0.5205     N
N      0.04082  0.28465   0.0205     N
N      0.04566  0.13678  0.56587     N
N      0.04566  0.36322  0.06587     N
N      0.06587  0.04566  0.36322     N
N      0.06587  0.45434  0.86322     N
N      0.13678  0.56587  0.04566     N
N      0.13678  0.93413  0.54566     N
N      0.20725  0.52155  0.53718     N
N      0.20725  0.97845  0.03718     N
N      0.21535   0.5205  0.04082     N
N      0.21535   0.9795  0.54082     N
N      0.28465   0.0205  0.04082     N
N      0.28465   0.4795  0.54082     N
N      0.29275  0.02155  0.53718     N
N      0.29275  0.47845  0.03718     N
N      0.36322  0.06587  0.04566     N
N      0.36322  0.43413  0.54566     N
N      0.43413  0.54566  0.36322     N
N      0.43413  0.95434  0.86322     N
N      0.45434  0.63678  0.56587     N
N      0.45434  0.86322  0.06587     N
N      0.45918  0.71535   0.5205     N
N      0.45918  0.78465   0.0205     N
N      0.46282  0.70725  0.97845     N
N      0.46282  0.79275  0.47845     N
N      0.47845  0.03718  0.29275     N
N      0.47845  0.46282  0.79275     N
N       0.4795  0.54082  0.28465     N
N       0.4795  0.95918  0.78465     N
Fe         0.5      0.0      0.0    Fe
K          0.5      0.0      0.5     K
K          0.5      0.5      0.0     K
Fe         0.5      0.5      0.5    Fe
N       0.5205  0.04082  0.21535     N
N       0.5205  0.45918  0.71535     N
N      0.52155  0.53718  0.20725     N
N      0.52155  0.96282  0.70725     N
N      0.53718  0.20725  0.52155     N
N      0.53718  0.29275  0.02155     N
N      0.54082  0.21535   0.9795     N
N      0.54082  0.28465   0.4795     N
N      0.54566  0.13678  0.93413     N
N      0.54566  0.36322  0.43413     N
N      0.56587  0.04566  0.13678     N
N      0.56587  0.45434  0.63678     N
N      0.63678  0.56587  0.45434     N
N      0.63678  0.93413  0.95434     N
N      0.70725  0.52155  0.96282     N
N      0.70725  0.97845  0.46282     N
N      0.71535   0.5205  0.45918     N
N      0.71535   0.9795  0.95918     N
N      0.78465   0.0205  0.45918     N
N      0.78465   0.4795  0.95918     N
N      0.79275  0.02155  0.96282     N
N      0.79275  0.47845  0.46282     N
N      0.86322  0.06587  0.45434     N
N      0.86322  0.43413  0.95434     N
N      0.93413  0.54566  0.13678     N
N      0.93413  0.95434  0.63678     N
N      0.95434  0.63678  0.93413     N
N      0.95434  0.86322  0.43413     N
N      0.95918  0.71535   0.9795     N
N      0.95918  0.78465   0.4795     N
N      0.96282  0.70725  0.52155     N
N      0.96282  0.79275  0.02155     N
N      0.97845  0.03718  0.20725     N
N      0.97845  0.46282  0.70725     N
N       0.9795  0.54082  0.21535     N
N       0.9795  0.95918  0.71535     N
