data_I
_chemical_name_common  '/home/zhangsd/repos/MofS-CGCNN/ML/data/SSD/clean_cifs/ROQFUA06_clean'
_cell_length_a 13.25300
_cell_length_b 13.25300
_cell_length_c 13.25300
_cell_angle_alpha 90.00000
_cell_angle_beta  90.00000
_cell_angle_gamma 90.00000
_space_group_name_H-M_alt      'P 1'


loop_
_space_group_symop_operation_xyz
  'x, y, z' 

loop_
_atom_site_label
_atom_site_fract_x
_atom_site_fract_y
_atom_site_fract_z
_atom_site_type_symbol
K          0.0      0.0      0.0     K
Fe         0.0      0.0      0.5    Fe
Fe         0.0      0.5      0.0    Fe
K          0.0      0.5      0.5     K
N       0.0187   0.0369   0.2841     N
N       0.0187   0.4631   0.7841     N
N       0.0206   0.5321   0.2924     N
N       0.0206   0.9679   0.7924     N
N       0.0321   0.2076   0.9794     N
N       0.0321   0.2924   0.4794     N
N       0.0369   0.2159   0.5187     N
N       0.0369   0.2841   0.0187     N
N      0.04398  0.13679  0.56288     N
N      0.04398  0.36321  0.06288     N
N      0.06288  0.04398  0.36321     N
N      0.06288  0.45602  0.86321     N
N      0.13679  0.56288  0.04398     N
N      0.13679  0.93712  0.54398     N
N       0.2076   0.5206   0.5321     N
N       0.2076   0.9794   0.0321     N
N       0.2159   0.5187   0.0369     N
N       0.2159   0.9813   0.5369     N
N       0.2841   0.0187   0.0369     N
N       0.2841   0.4813   0.5369     N
N       0.2924   0.0206   0.5321     N
N       0.2924   0.4794   0.0321     N
N      0.36321  0.06288  0.04398     N
N      0.36321  0.43712  0.54398     N
N      0.43712  0.54398  0.36321     N
N      0.43712  0.95602  0.86321     N
N      0.45602  0.63679  0.56288     N
N      0.45602  0.86321  0.06288     N
N       0.4631   0.7159   0.5187     N
N       0.4631   0.7841   0.0187     N
N       0.4679   0.7076   0.9794     N
N       0.4679   0.7924   0.4794     N
N       0.4794   0.0321   0.2924     N
N       0.4794   0.4679   0.7924     N
N       0.4813   0.5369   0.2841     N
N       0.4813   0.9631   0.7841     N
Fe         0.5      0.0      0.0    Fe
K          0.5      0.0      0.5     K
K          0.5      0.5      0.0     K
Fe         0.5      0.5      0.5    Fe
N       0.5187   0.0369   0.2159     N
N       0.5187   0.4631   0.7159     N
N       0.5206   0.5321   0.2076     N
N       0.5206   0.9679   0.7076     N
N       0.5321   0.2076   0.5206     N
N       0.5321   0.2924   0.0206     N
N       0.5369   0.2159   0.9813     N
N       0.5369   0.2841   0.4813     N
N      0.54398  0.13679  0.93712     N
N      0.54398  0.36321  0.43712     N
N      0.56288  0.04398  0.13679     N
N      0.56288  0.45602  0.63679     N
N      0.63679  0.56288  0.45602     N
N      0.63679  0.93712  0.95602     N
N       0.7076   0.5206   0.9679     N
N       0.7076   0.9794   0.4679     N
N       0.7159   0.5187   0.4631     N
N       0.7159   0.9813   0.9631     N
N       0.7841   0.0187   0.4631     N
N       0.7841   0.4813   0.9631     N
N       0.7924   0.0206   0.9679     N
N       0.7924   0.4794   0.4679     N
N      0.86321  0.06288  0.45602     N
N      0.86321  0.43712  0.95602     N
N      0.93712  0.54398  0.13679     N
N      0.93712  0.95602  0.63679     N
N      0.95602  0.63679  0.93712     N
N      0.95602  0.86321  0.43712     N
N       0.9631   0.7159   0.9813     N
N       0.9631   0.7841   0.4813     N
N       0.9679   0.7076   0.5206     N
N       0.9679   0.7924   0.0206     N
N       0.9794   0.0321   0.2076     N
N       0.9794   0.4679   0.7076     N
N       0.9813   0.5369   0.2159     N
N       0.9813   0.9631   0.7159     N
