data_I
_chemical_name_common  '/home/zhangsd/repos/MofS-CGCNN/ML/data/SSD/clean_cifs/ROQMER02_clean'
_cell_length_a 12.79810
_cell_length_b 12.79810
_cell_length_c 12.79810
_cell_angle_alpha 90.00000
_cell_angle_beta  90.00000
_cell_angle_gamma 90.00000
_space_group_name_H-M_alt      'P 1'


loop_
_space_group_symop_operation_xyz
  'x, y, z' 

loop_
_atom_site_label
_atom_site_fract_x
_atom_site_fract_y
_atom_site_fract_z
_atom_site_type_symbol
Na         0.0      0.0      0.0    Na
Cr         0.0      0.0      0.5    Cr
Cr         0.0      0.5      0.0    Cr
Na         0.0      0.5      0.5    Na
N       0.0166   0.5284  0.30668     N
N       0.0166   0.9716  0.80668     N
N       0.0194    0.034    0.276     N
N       0.0194    0.466    0.776     N
N       0.0284  0.19332   0.9834     N
N       0.0284  0.30668   0.4834     N
N        0.034    0.224   0.5194     N
N        0.034    0.276   0.0194     N
N      0.04328  0.14108  0.56006     N
N      0.04328  0.35892  0.06006     N
N      0.06006  0.04328  0.35892     N
N      0.06006  0.45672  0.85892     N
N      0.14108  0.56006  0.04328     N
N      0.14108  0.93994  0.54328     N
N      0.19332   0.5166   0.5284     N
N      0.19332   0.9834   0.0284     N
N        0.224   0.5194    0.034     N
N        0.224   0.9806    0.534     N
N        0.276   0.0194    0.034     N
N        0.276   0.4806    0.534     N
N      0.30668   0.0166   0.5284     N
N      0.30668   0.4834   0.0284     N
N      0.35892  0.06006  0.04328     N
N      0.35892  0.43994  0.54328     N
N      0.43994  0.54328  0.35892     N
N      0.43994  0.95672  0.85892     N
N      0.45672  0.64108  0.56006     N
N      0.45672  0.85892  0.06006     N
N        0.466    0.724   0.5194     N
N        0.466    0.776   0.0194     N
N       0.4716  0.69332   0.9834     N
N       0.4716  0.80668   0.4834     N
N       0.4806    0.534    0.276     N
N       0.4806    0.966    0.776     N
N       0.4834   0.0284  0.30668     N
N       0.4834   0.4716  0.80668     N
Cr         0.5      0.0      0.0    Cr
Na         0.5      0.0      0.5    Na
Na         0.5      0.5      0.0    Na
Cr         0.5      0.5      0.5    Cr
N       0.5166   0.5284  0.19332     N
N       0.5166   0.9716  0.69332     N
N       0.5194    0.034    0.224     N
N       0.5194    0.466    0.724     N
N       0.5284  0.19332   0.5166     N
N       0.5284  0.30668   0.0166     N
N        0.534    0.224   0.9806     N
N        0.534    0.276   0.4806     N
N      0.54328  0.14108  0.93994     N
N      0.54328  0.35892  0.43994     N
N      0.56006  0.04328  0.14108     N
N      0.56006  0.45672  0.64108     N
N      0.64108  0.56006  0.45672     N
N      0.64108  0.93994  0.95672     N
N      0.69332   0.5166   0.9716     N
N      0.69332   0.9834   0.4716     N
N        0.724   0.5194    0.466     N
N        0.724   0.9806    0.966     N
N        0.776   0.0194    0.466     N
N        0.776   0.4806    0.966     N
N      0.80668   0.0166   0.9716     N
N      0.80668   0.4834   0.4716     N
N      0.85892  0.06006  0.45672     N
N      0.85892  0.43994  0.95672     N
N      0.93994  0.54328  0.14108     N
N      0.93994  0.95672  0.64108     N
N      0.95672  0.64108  0.93994     N
N      0.95672  0.85892  0.43994     N
N        0.966    0.724   0.9806     N
N        0.966    0.776   0.4806     N
N       0.9716  0.69332   0.5166     N
N       0.9716  0.80668   0.0166     N
N       0.9806    0.534    0.224     N
N       0.9806    0.966    0.724     N
N       0.9834   0.0284  0.19332     N
N       0.9834   0.4716  0.69332     N
