data_I
_chemical_name_common  '/home/zhangsd/repos/MofS-CGCNN/ML/data/SSD/clean_cifs/ROQMER01_clean'
_cell_length_a 12.76210
_cell_length_b 12.76210
_cell_length_c 12.76210
_cell_angle_alpha 90.00000
_cell_angle_beta  90.00000
_cell_angle_gamma 90.00000
_space_group_name_H-M_alt      'P 1'


loop_
_space_group_symop_operation_xyz
  'x, y, z' 

loop_
_atom_site_label
_atom_site_fract_x
_atom_site_fract_y
_atom_site_fract_z
_atom_site_type_symbol
Na         0.0      0.0      0.0    Na
Cr         0.0      0.0      0.5    Cr
Cr         0.0      0.5      0.0    Cr
Na         0.0      0.5      0.5    Na
N      0.01681  0.52907  0.30701     N
N      0.01681  0.97093  0.80701     N
N      0.01984  0.03456  0.27582     N
N      0.01984  0.46544  0.77582     N
N      0.02907  0.19299  0.98319     N
N      0.02907  0.30701  0.48319     N
N      0.03456  0.22418  0.51984     N
N      0.03456  0.27582  0.01984     N
N       0.0438  0.14106  0.56126     N
N       0.0438  0.35894  0.06126     N
N      0.06126   0.0438  0.35894     N
N      0.06126   0.4562  0.85894     N
N      0.14106  0.56126   0.0438     N
N      0.14106  0.93874   0.5438     N
N      0.19299  0.51681  0.52907     N
N      0.19299  0.98319  0.02907     N
N      0.22418  0.51984  0.03456     N
N      0.22418  0.98016  0.53456     N
N      0.27582  0.01984  0.03456     N
N      0.27582  0.48016  0.53456     N
N      0.30701  0.01681  0.52907     N
N      0.30701  0.48319  0.02907     N
N      0.35894  0.06126   0.0438     N
N      0.35894  0.43874   0.5438     N
N      0.43874   0.5438  0.35894     N
N      0.43874   0.9562  0.85894     N
N       0.4562  0.64106  0.56126     N
N       0.4562  0.85894  0.06126     N
N      0.46544  0.72418  0.51984     N
N      0.46544  0.77582  0.01984     N
N      0.47093  0.69299  0.98319     N
N      0.47093  0.80701  0.48319     N
N      0.48016  0.53456  0.27582     N
N      0.48016  0.96544  0.77582     N
N      0.48319  0.02907  0.30701     N
N      0.48319  0.47093  0.80701     N
Cr         0.5      0.0      0.0    Cr
Na         0.5      0.0      0.5    Na
Na         0.5      0.5      0.0    Na
Cr         0.5      0.5      0.5    Cr
N      0.51681  0.52907  0.19299     N
N      0.51681  0.97093  0.69299     N
N      0.51984  0.03456  0.22418     N
N      0.51984  0.46544  0.72418     N
N      0.52907  0.19299  0.51681     N
N      0.52907  0.30701  0.01681     N
N      0.53456  0.22418  0.98016     N
N      0.53456  0.27582  0.48016     N
N       0.5438  0.14106  0.93874     N
N       0.5438  0.35894  0.43874     N
N      0.56126   0.0438  0.14106     N
N      0.56126   0.4562  0.64106     N
N      0.64106  0.56126   0.4562     N
N      0.64106  0.93874   0.9562     N
N      0.69299  0.51681  0.97093     N
N      0.69299  0.98319  0.47093     N
N      0.72418  0.51984  0.46544     N
N      0.72418  0.98016  0.96544     N
N      0.77582  0.01984  0.46544     N
N      0.77582  0.48016  0.96544     N
N      0.80701  0.01681  0.97093     N
N      0.80701  0.48319  0.47093     N
N      0.85894  0.06126   0.4562     N
N      0.85894  0.43874   0.9562     N
N      0.93874   0.5438  0.14106     N
N      0.93874   0.9562  0.64106     N
N       0.9562  0.64106  0.93874     N
N       0.9562  0.85894  0.43874     N
N      0.96544  0.72418  0.98016     N
N      0.96544  0.77582  0.48016     N
N      0.97093  0.69299  0.51681     N
N      0.97093  0.80701  0.01681     N
N      0.98016  0.53456  0.22418     N
N      0.98016  0.96544  0.72418     N
N      0.98319  0.02907  0.19299     N
N      0.98319  0.47093  0.69299     N
