data_I
_chemical_name_common  '/home/zhangsd/repos/MofS-CGCNN/ML/data/SSD/clean_cifs/ROQMER03_clean'
_cell_length_a 12.84340
_cell_length_b 12.84340
_cell_length_c 12.84340
_cell_angle_alpha 90.00000
_cell_angle_beta  90.00000
_cell_angle_gamma 90.00000
_space_group_name_H-M_alt      'P 1'


loop_
_space_group_symop_operation_xyz
  'x, y, z' 

loop_
_atom_site_label
_atom_site_fract_x
_atom_site_fract_y
_atom_site_fract_z
_atom_site_type_symbol
Na         0.0      0.0      0.0    Na
Cr         0.0      0.0      0.5    Cr
Cr         0.0      0.5      0.0    Cr
Na         0.0      0.5      0.5    Na
N       0.0162   0.5272  0.30617     N
N       0.0162   0.9728  0.80617     N
N       0.0185   0.0329  0.27594     N
N       0.0185   0.4671  0.77594     N
N       0.0272  0.19383   0.9838     N
N       0.0272  0.30617   0.4838     N
N       0.0329  0.22406   0.5185     N
N       0.0329  0.27594   0.0185     N
N       0.0425  0.14114  0.55915     N
N       0.0425  0.35886  0.05915     N
N      0.05915   0.0425  0.35886     N
N      0.05915   0.4575  0.85886     N
N      0.14114  0.55915   0.0425     N
N      0.14114  0.94085   0.5425     N
N      0.19383   0.5162   0.5272     N
N      0.19383   0.9838   0.0272     N
N      0.22406   0.5185   0.0329     N
N      0.22406   0.9815   0.5329     N
N      0.27594   0.0185   0.0329     N
N      0.27594   0.4815   0.5329     N
N      0.30617   0.0162   0.5272     N
N      0.30617   0.4838   0.0272     N
N      0.35886  0.05915   0.0425     N
N      0.35886  0.44085   0.5425     N
N      0.44085   0.5425  0.35886     N
N      0.44085   0.9575  0.85886     N
N       0.4575  0.64114  0.55915     N
N       0.4575  0.85886  0.05915     N
N       0.4671  0.72406   0.5185     N
N       0.4671  0.77594   0.0185     N
N       0.4728  0.69383   0.9838     N
N       0.4728  0.80617   0.4838     N
N       0.4815   0.5329  0.27594     N
N       0.4815   0.9671  0.77594     N
N       0.4838   0.0272  0.30617     N
N       0.4838   0.4728  0.80617     N
Cr         0.5      0.0      0.0    Cr
Na         0.5      0.0      0.5    Na
Na         0.5      0.5      0.0    Na
Cr         0.5      0.5      0.5    Cr
N       0.5162   0.5272  0.19383     N
N       0.5162   0.9728  0.69383     N
N       0.5185   0.0329  0.22406     N
N       0.5185   0.4671  0.72406     N
N       0.5272  0.19383   0.5162     N
N       0.5272  0.30617   0.0162     N
N       0.5329  0.22406   0.9815     N
N       0.5329  0.27594   0.4815     N
N       0.5425  0.14114  0.94085     N
N       0.5425  0.35886  0.44085     N
N      0.55915   0.0425  0.14114     N
N      0.55915   0.4575  0.64114     N
N      0.64114  0.55915   0.4575     N
N      0.64114  0.94085   0.9575     N
N      0.69383   0.5162   0.9728     N
N      0.69383   0.9838   0.4728     N
N      0.72406   0.5185   0.4671     N
N      0.72406   0.9815   0.9671     N
N      0.77594   0.0185   0.4671     N
N      0.77594   0.4815   0.9671     N
N      0.80617   0.0162   0.9728     N
N      0.80617   0.4838   0.4728     N
N      0.85886  0.05915   0.4575     N
N      0.85886  0.44085   0.9575     N
N      0.94085   0.5425  0.14114     N
N      0.94085   0.9575  0.64114     N
N       0.9575  0.64114  0.94085     N
N       0.9575  0.85886  0.44085     N
N       0.9671  0.72406   0.9815     N
N       0.9671  0.77594   0.4815     N
N       0.9728  0.69383   0.5162     N
N       0.9728  0.80617   0.0162     N
N       0.9815   0.5329  0.22406     N
N       0.9815   0.9671  0.72406     N
N       0.9838   0.0272  0.19383     N
N       0.9838   0.4728  0.69383     N
