data_I
_chemical_name_common  '/home/zhangsd/repos/MofS-CGCNN/ML/data/SSD/clean_cifs/ROQMER_clean'
_cell_length_a 12.74600
_cell_length_b 12.74600
_cell_length_c 12.74600
_cell_angle_alpha 90.00000
_cell_angle_beta  90.00000
_cell_angle_gamma 90.00000
_space_group_name_H-M_alt      'P 1'


loop_
_space_group_symop_operation_xyz
  'x, y, z' 

loop_
_atom_site_label
_atom_site_fract_x
_atom_site_fract_y
_atom_site_fract_z
_atom_site_type_symbol
Na         0.0      0.0      0.0    Na
Cr         0.0      0.0      0.5    Cr
Cr         0.0      0.5      0.0    Cr
Na         0.0      0.5      0.5    Na
N      0.01684  0.52954  0.30731     N
N      0.01684  0.97046  0.80731     N
N      0.02008  0.03511  0.27575     N
N      0.02008  0.46489  0.77575     N
N      0.02954  0.19269  0.98316     N
N      0.02954  0.30731  0.48316     N
N      0.03511  0.22425  0.52008     N
N      0.03511  0.27575  0.02008     N
N      0.04418  0.14107  0.56187     N
N      0.04418  0.35893  0.06187     N
N      0.06187  0.04418  0.35893     N
N      0.06187  0.45582  0.85893     N
N      0.14107  0.56187  0.04418     N
N      0.14107  0.93813  0.54418     N
N      0.19269  0.51684  0.52954     N
N      0.19269  0.98316  0.02954     N
N      0.22425  0.52008  0.03511     N
N      0.22425  0.97992  0.53511     N
N      0.27575  0.02008  0.03511     N
N      0.27575  0.47992  0.53511     N
N      0.30731  0.01684  0.52954     N
N      0.30731  0.48316  0.02954     N
N      0.35893  0.06187  0.04418     N
N      0.35893  0.43813  0.54418     N
N      0.43813  0.54418  0.35893     N
N      0.43813  0.95582  0.85893     N
N      0.45582  0.64107  0.56187     N
N      0.45582  0.85893  0.06187     N
N      0.46489  0.72425  0.52008     N
N      0.46489  0.77575  0.02008     N
N      0.47046  0.69269  0.98316     N
N      0.47046  0.80731  0.48316     N
N      0.47992  0.53511  0.27575     N
N      0.47992  0.96489  0.77575     N
N      0.48316  0.02954  0.30731     N
N      0.48316  0.47046  0.80731     N
Cr         0.5      0.0      0.0    Cr
Na         0.5      0.0      0.5    Na
Na         0.5      0.5      0.0    Na
Cr         0.5      0.5      0.5    Cr
N      0.51684  0.52954  0.19269     N
N      0.51684  0.97046  0.69269     N
N      0.52008  0.03511  0.22425     N
N      0.52008  0.46489  0.72425     N
N      0.52954  0.19269  0.51684     N
N      0.52954  0.30731  0.01684     N
N      0.53511  0.22425  0.97992     N
N      0.53511  0.27575  0.47992     N
N      0.54418  0.14107  0.93813     N
N      0.54418  0.35893  0.43813     N
N      0.56187  0.04418  0.14107     N
N      0.56187  0.45582  0.64107     N
N      0.64107  0.56187  0.45582     N
N      0.64107  0.93813  0.95582     N
N      0.69269  0.51684  0.97046     N
N      0.69269  0.98316  0.47046     N
N      0.72425  0.52008  0.46489     N
N      0.72425  0.97992  0.96489     N
N      0.77575  0.02008  0.46489     N
N      0.77575  0.47992  0.96489     N
N      0.80731  0.01684  0.97046     N
N      0.80731  0.48316  0.47046     N
N      0.85893  0.06187  0.45582     N
N      0.85893  0.43813  0.95582     N
N      0.93813  0.54418  0.14107     N
N      0.93813  0.95582  0.64107     N
N      0.95582  0.64107  0.93813     N
N      0.95582  0.85893  0.43813     N
N      0.96489  0.72425  0.97992     N
N      0.96489  0.77575  0.47992     N
N      0.97046  0.69269  0.51684     N
N      0.97046  0.80731  0.01684     N
N      0.97992  0.53511  0.22425     N
N      0.97992  0.96489  0.72425     N
N      0.98316  0.02954  0.19269     N
N      0.98316  0.47046  0.69269     N
