data_I
_chemical_name_common  '/home/zhangsd/repos/MofS-CGCNN/ML/data/SSD/clean_cifs/ROQNES_clean'
_cell_length_a 13.04840
_cell_length_b 13.04840
_cell_length_c 13.04840
_cell_angle_alpha 90.00000
_cell_angle_beta  90.00000
_cell_angle_gamma 90.00000
_space_group_name_H-M_alt      'P 1'


loop_
_space_group_symop_operation_xyz
  'x, y, z' 

loop_
_atom_site_label
_atom_site_fract_x
_atom_site_fract_y
_atom_site_fract_z
_atom_site_type_symbol
Cr         0.0      0.0      0.0    Cr
K          0.0      0.0      0.5     K
K          0.0      0.5      0.0     K
Cr         0.0      0.5      0.5    Cr
N      0.02038  0.54054  0.71405     N
N      0.02038  0.95946  0.21405     N
N      0.02098  0.03786   0.7072     N
N      0.02098  0.46214   0.2072     N
N      0.03786   0.7072  0.02098     N
N      0.03786   0.7928  0.52098     N
N      0.04054  0.71405  0.47962     N
N      0.04054  0.78595  0.97962     N
N      0.04522   0.6349  0.43416     N
N      0.04522   0.8651  0.93416     N
N      0.06584  0.54522   0.6349     N
N      0.06584  0.95478   0.1349     N
N       0.1349  0.06584  0.95478     N
N       0.1349  0.43416  0.45478     N
N       0.2072  0.02098  0.46214     N
N       0.2072  0.47902  0.96214     N
N      0.21405  0.02038  0.95946     N
N      0.21405  0.47962  0.45946     N
N      0.28595  0.52038  0.95946     N
N      0.28595  0.97962  0.45946     N
N       0.2928  0.52098  0.46214     N
N       0.2928  0.97902  0.96214     N
N       0.3651  0.56584  0.95478     N
N       0.3651  0.93416  0.45478     N
N      0.43416  0.04522   0.6349     N
N      0.43416  0.45478   0.1349     N
N      0.45478   0.1349  0.43416     N
N      0.45478   0.3651  0.93416     N
N      0.45946  0.21405  0.47962     N
N      0.45946  0.28595  0.97962     N
N      0.46214   0.2072  0.02098     N
N      0.46214   0.2928  0.52098     N
N      0.47902  0.53786   0.7072     N
N      0.47902  0.96214   0.2072     N
N      0.47962  0.04054  0.71405     N
N      0.47962  0.45946  0.21405     N
K          0.5      0.0      0.0     K
Cr         0.5      0.0      0.5    Cr
Cr         0.5      0.5      0.0    Cr
K          0.5      0.5      0.5     K
N      0.52038  0.54054  0.78595     N
N      0.52038  0.95946  0.28595     N
N      0.52098  0.03786   0.7928     N
N      0.52098  0.46214   0.2928     N
N      0.53786   0.7072  0.47902     N
N      0.53786   0.7928  0.97902     N
N      0.54054  0.71405  0.02038     N
N      0.54054  0.78595  0.52038     N
N      0.54522   0.6349  0.06584     N
N      0.54522   0.8651  0.56584     N
N      0.56584  0.54522   0.8651     N
N      0.56584  0.95478   0.3651     N
N       0.6349  0.06584  0.54522     N
N       0.6349  0.43416  0.04522     N
N       0.7072  0.02098  0.03786     N
N       0.7072  0.47902  0.53786     N
N      0.71405  0.02038  0.54054     N
N      0.71405  0.47962  0.04054     N
N      0.78595  0.52038  0.54054     N
N      0.78595  0.97962  0.04054     N
N       0.7928  0.52098  0.03786     N
N       0.7928  0.97902  0.53786     N
N       0.8651  0.56584  0.54522     N
N       0.8651  0.93416  0.04522     N
N      0.93416  0.04522   0.8651     N
N      0.93416  0.45478   0.3651     N
N      0.95478   0.1349  0.06584     N
N      0.95478   0.3651  0.56584     N
N      0.95946  0.21405  0.02038     N
N      0.95946  0.28595  0.52038     N
N      0.96214   0.2072  0.47902     N
N      0.96214   0.2928  0.97902     N
N      0.97902  0.53786   0.7928     N
N      0.97902  0.96214   0.2928     N
N      0.97962  0.04054  0.78595     N
N      0.97962  0.45946  0.28595     N
