data_I
_chemical_name_common  '/home/zhangsd/repos/MofS-CGCNN/ML/data/SSD/clean_cifs/ROQNES04_clean'
_cell_length_a 13.16420
_cell_length_b 13.16420
_cell_length_c 13.16420
_cell_angle_alpha 90.00000
_cell_angle_beta  90.00000
_cell_angle_gamma 90.00000
_space_group_name_H-M_alt      'P 1'


loop_
_space_group_symop_operation_xyz
  'x, y, z' 

loop_
_atom_site_label
_atom_site_fract_x
_atom_site_fract_y
_atom_site_fract_z
_atom_site_type_symbol
Cr         0.0      0.0      0.0    Cr
K          0.0      0.0      0.5     K
K          0.0      0.5      0.0     K
Cr         0.0      0.5      0.5    Cr
N       0.0178   0.5356   0.7144     N
N       0.0178   0.9644   0.2144     N
N       0.0185   0.0317   0.7078     N
N       0.0185   0.4683   0.2078     N
N       0.0317   0.7078   0.0185     N
N       0.0317   0.7922   0.5185     N
N       0.0356   0.7144   0.4822     N
N       0.0356   0.7856   0.9822     N
N       0.0425   0.6353   0.4384     N
N       0.0425   0.8647   0.9384     N
N       0.0616   0.5425   0.6353     N
N       0.0616   0.9575   0.1353     N
N       0.1353   0.0616   0.9575     N
N       0.1353   0.4384   0.4575     N
N       0.2078   0.0185   0.4683     N
N       0.2078   0.4815   0.9683     N
N       0.2144   0.0178   0.9644     N
N       0.2144   0.4822   0.4644     N
N       0.2856   0.5178   0.9644     N
N       0.2856   0.9822   0.4644     N
N       0.2922   0.5185   0.4683     N
N       0.2922   0.9815   0.9683     N
N       0.3647   0.5616   0.9575     N
N       0.3647   0.9384   0.4575     N
N       0.4384   0.0425   0.6353     N
N       0.4384   0.4575   0.1353     N
N       0.4575   0.1353   0.4384     N
N       0.4575   0.3647   0.9384     N
N       0.4644   0.2144   0.4822     N
N       0.4644   0.2856   0.9822     N
N       0.4683   0.2078   0.0185     N
N       0.4683   0.2922   0.5185     N
N       0.4815   0.5317   0.7078     N
N       0.4815   0.9683   0.2078     N
N       0.4822   0.0356   0.7144     N
N       0.4822   0.4644   0.2144     N
K          0.5      0.0      0.0     K
Cr         0.5      0.0      0.5    Cr
Cr         0.5      0.5      0.0    Cr
K          0.5      0.5      0.5     K
N       0.5178   0.5356   0.7856     N
N       0.5178   0.9644   0.2856     N
N       0.5185   0.0317   0.7922     N
N       0.5185   0.4683   0.2922     N
N       0.5317   0.7078   0.4815     N
N       0.5317   0.7922   0.9815     N
N       0.5356   0.7144   0.0178     N
N       0.5356   0.7856   0.5178     N
N       0.5425   0.6353   0.0616     N
N       0.5425   0.8647   0.5616     N
N       0.5616   0.5425   0.8647     N
N       0.5616   0.9575   0.3647     N
N       0.6353   0.0616   0.5425     N
N       0.6353   0.4384   0.0425     N
N       0.7078   0.0185   0.0317     N
N       0.7078   0.4815   0.5317     N
N       0.7144   0.0178   0.5356     N
N       0.7144   0.4822   0.0356     N
N       0.7856   0.5178   0.5356     N
N       0.7856   0.9822   0.0356     N
N       0.7922   0.5185   0.0317     N
N       0.7922   0.9815   0.5317     N
N       0.8647   0.5616   0.5425     N
N       0.8647   0.9384   0.0425     N
N       0.9384   0.0425   0.8647     N
N       0.9384   0.4575   0.3647     N
N       0.9575   0.1353   0.0616     N
N       0.9575   0.3647   0.5616     N
N       0.9644   0.2144   0.0178     N
N       0.9644   0.2856   0.5178     N
N       0.9683   0.2078   0.4815     N
N       0.9683   0.2922   0.9815     N
N       0.9815   0.5317   0.7922     N
N       0.9815   0.9683   0.2922     N
N       0.9822   0.0356   0.7856     N
N       0.9822   0.4644   0.2856     N
