data_I
_chemical_name_common  '/home/zhangsd/repos/MofS-CGCNN/ML/data/SSD/clean_cifs/RUFMUA01_clean'
_cell_length_a  6.86560
_cell_length_b  9.12870
_cell_length_c  9.92090
_cell_angle_alpha 101.34100
_cell_angle_beta  99.68300
_cell_angle_gamma 111.95000
_space_group_name_H-M_alt      'P 1'


loop_
_space_group_symop_operation_xyz
  'x, y, z' 

loop_
_atom_site_label
_atom_site_fract_x
_atom_site_fract_y
_atom_site_fract_z
_atom_site_type_symbol
O       0.0216   0.3973   0.8792     O
C       0.0732   0.3147   0.6512     C
C       0.0833   0.3175   0.4098     C
C       0.0874   0.8378   0.6393     C
C       0.1001   0.8395   0.3991     C
O       0.1111   0.3271  0.17544     O
H       0.1413   0.8897   0.7367     H
C       0.1561   0.3952   0.8088     C
H       0.1638   0.8912   0.3357     H
C        0.166   0.3929   0.5562     C
C        0.178    0.402   0.3058     C
C       0.1785   0.9166   0.5451     C
H       0.2835   0.4958   0.5904     H
Ca     0.31318  0.57803  0.10836    Ca
O       0.3236  0.54708  0.35115     O
C       0.3575   0.0847   0.6016     C
O       0.3578    0.459  0.86646     O
O       0.4182  0.15365  0.50235     O
O       0.4382  0.15175  0.72896     O
H       0.4919   0.7508   0.4603     H
H       0.5081   0.2492   0.5397     H
O       0.5618  0.84825  0.27104     O
O       0.5818  0.84635  0.49765     O
O       0.6422    0.541  0.13354     O
C       0.6425   0.9153   0.3984     C
O       0.6764  0.45292  0.64885     O
Ca     0.68682  0.42197  0.89164    Ca
H       0.7165   0.5042   0.4096     H
C       0.8215   0.0834   0.4549     C
C        0.822    0.598   0.6942     C
C        0.834   0.6071   0.4438     C
H       0.8362   0.1088   0.6643     H
C       0.8439   0.6048   0.1912     C
H       0.8587   0.1103   0.2633     H
O       0.8889   0.6729  0.82456     O
C       0.8999   0.1605   0.6009     C
C       0.9126   0.1622   0.3607     C
C       0.9167   0.6825   0.5902     C
C       0.9268   0.6853   0.3488     C
O       0.9784   0.6027   0.1208     O
