data_I
_chemical_name_common  '/home/zhangsd/repos/MofS-CGCNN/ML/data/SSD/clean_cifs/RUJGOT_clean'
_cell_length_a 10.31420
_cell_length_b 10.31420
_cell_length_c 11.41800
_cell_angle_alpha 84.99450
_cell_angle_beta  84.99450
_cell_angle_gamma 65.65600
_space_group_name_H-M_alt      'P 1'


loop_
_space_group_symop_operation_xyz
  'x, y, z' 

loop_
_atom_site_label
_atom_site_fract_x
_atom_site_fract_y
_atom_site_fract_z
_atom_site_type_symbol
H       0.0296   0.3696    0.213     H
C      0.07896  0.26436   0.8435     C
C      0.08184  0.65964   0.1579     C
H       0.0876   0.4676    0.375     H
H       0.0957   0.3597    0.992     H
C          0.1   0.3066   0.2709     C
H       0.1138   0.1478      0.7     H
C       0.1285   0.3695   0.3603     C
O      0.14187  0.68967  0.23638     O
O      0.14222  0.57182  0.08004     O
C      0.14642  0.29202   0.9318     C
H       0.1478   0.1138      0.2     H
C       0.1613   0.1675   0.7615     C
C       0.1675   0.1613   0.2615     C
H        0.208    0.554     0.69     H
N      0.22504  0.28904   0.4388     N
O      0.25322  0.35182   0.5249     O
O      0.25695  0.53755  0.84929     O
C      0.26436  0.07896   0.3435     C
C       0.2877   0.5015   0.7454     C
N      0.28904  0.22504   0.9388     N
C      0.29202  0.14642   0.4318     C
H        0.299    0.621    0.461     H
C       0.3066      0.1   0.7709     C
O      0.31033  0.85813  0.26362     O
C      0.34036  0.91816   0.3421     C
O      0.35182  0.25322   0.0249     O
H       0.3597   0.0957    0.492     H
Mn     0.36329  0.45911  0.01489    Mn
O      0.36937  0.58077  0.43965     O
C       0.3695   0.1285   0.8603     C
H       0.3696   0.0296    0.713     H
Mn     0.37026  0.62974     0.25    Mn
H        0.379    0.701    0.039     H
O       0.4058   0.4229  0.70331     O
O      0.41923  0.63063  0.06035     O
O       0.4229   0.4058  0.20331     O
O      0.42818  0.85778  0.41996     O
H        0.446    0.792     0.81     H
Mn     0.45911  0.36329  0.51489    Mn
O      0.46245  0.74305  0.65071     O
H       0.4676   0.0876    0.875     H
C       0.4985   0.7123   0.7546     C
C       0.5015   0.2877   0.2454     C
H       0.5324   0.9124    0.125     H
O      0.53755  0.25695  0.34929     O
Mn     0.54089  0.63671  0.48511    Mn
H        0.554    0.208     0.19     H
O      0.57182  0.14222  0.58004     O
O       0.5771   0.5942  0.79669     O
O      0.58077  0.36937  0.93965     O
O       0.5942   0.5771  0.29669     O
H        0.621    0.299    0.961     H
Mn     0.62974  0.37026     0.75    Mn
H       0.6304   0.9704    0.287     H
C       0.6305   0.8715   0.1397     C
O      0.63063  0.41923  0.56035     O
Mn     0.63671  0.54089  0.98511    Mn
H       0.6403   0.9043    0.508     H
O      0.64818  0.74678   0.9751     O
C      0.65964  0.08184   0.6579     C
O      0.68967  0.14187  0.73638     O
C       0.6934      0.9   0.2291     C
H        0.701    0.379    0.539     H
C      0.70798  0.85358   0.5682     C
N      0.71096  0.77496   0.0612     N
C       0.7123   0.4985   0.2546     C
C      0.73564  0.92104   0.6565     C
O      0.74305  0.46245  0.15071     O
O      0.74678  0.64818   0.4751     O
N      0.77496  0.71096   0.5612     N
H        0.792    0.446     0.31     H
C       0.8325   0.8387   0.7385     C
C       0.8387   0.8325   0.2385     C
H       0.8522   0.8862      0.8     H
C      0.85358  0.70798   0.0682     C
O      0.85778  0.42818  0.91996     O
O      0.85813  0.31033  0.76362     O
C       0.8715   0.6305   0.6397     C
H       0.8862   0.8522      0.3     H
C          0.9   0.6934   0.7291     C
H       0.9043   0.6403    0.008     H
H       0.9124   0.5324    0.625     H
C      0.91816  0.34036   0.8421     C
C      0.92104  0.73564   0.1565     C
H       0.9704   0.6304    0.787     H
