data_I
_chemical_name_common  '/home/zhangsd/repos/MofS-CGCNN/ML/data/SSD/clean_cifs/RULXOM_clean'
_cell_length_a 22.06110
_cell_length_b 22.06110
_cell_length_c 22.06110
_cell_angle_alpha 109.47100
_cell_angle_beta  109.47100
_cell_angle_gamma 109.47100
_space_group_name_H-M_alt      'P 1'


loop_
_space_group_symop_operation_xyz
  'x, y, z' 

loop_
_atom_site_label
_atom_site_fract_x
_atom_site_fract_y
_atom_site_fract_z
_atom_site_type_symbol
N          0.0   0.0687   0.6035     N
C          0.0  0.13169  0.46331     C
C          0.0   0.2673   0.5029     C
C          0.0   0.3307   0.5233     C
C          0.0   0.4429   0.0645     C
C          0.0  0.46331  0.13169     C
C          0.0   0.5029   0.2673     C
C          0.0   0.5233   0.3307     C
N          0.0   0.6035   0.0687     N
C          0.0   0.6693   0.4767     C
C          0.0  0.86831  0.53669     C
N          0.0   0.9313   0.3965     N
C       0.0645      0.0   0.4429     C
C       0.0645   0.0645   0.6216     C
C       0.0645   0.4429      0.0     C
C       0.0645   0.6216   0.0645     C
C        0.066   0.1997   0.5103     C
C        0.066   0.5103   0.1997     C
C        0.066   0.5557   0.8663     C
C        0.066   0.8663   0.5557     C
C       0.0671   0.2671   0.5294     C
C       0.0671   0.5294   0.2671     C
C       0.0671   0.5377      0.8     C
C       0.0671      0.8   0.5377     C
O       0.0683   0.3992   0.5727     O
O       0.0683   0.4956   0.6691     O
O       0.0683   0.5727   0.3992     O
O       0.0683   0.6691   0.4956     O
N       0.0687   0.0687   0.4652     N
N       0.0687   0.4652   0.0687     N
N       0.0687   0.6035      0.0     N
N       0.0687      1.0   0.6035     N
H       0.0885   0.2001   0.6702     H
H       0.0885   0.4183   0.8884     H
H       0.0885   0.6702   0.2001     H
H       0.0885   0.8884   0.4183     H
Fe     0.09078      0.5  0.59078    Fe
Fe     0.09078  0.59078      0.5    Fe
H       0.1116   0.2001   0.5299     H
H       0.1116   0.5299   0.2001     H
H       0.1116   0.5817   0.9115     H
H       0.1116   0.9115   0.5817     H
H        0.113   0.3126   0.5602     H
H        0.113   0.5528   0.8004     H
H        0.113   0.5602   0.3126     H
H        0.113   0.8004   0.5528     H
C      0.13169      0.0  0.46331     C
C      0.13169  0.13169  0.66838     C
C      0.13169  0.46331      0.0     C
C      0.13169  0.66838  0.13169     C
C       0.1337   0.1997   0.6894     C
C       0.1337   0.4443    0.934     C
C       0.1337   0.6894   0.1997     C
C       0.1337    0.934   0.4443     C
O       0.1735   0.5044   0.5727     O
O       0.1735   0.5727   0.5044     O
O       0.1735   0.6008   0.6691     O
O       0.1735   0.6691   0.6008     O
C       0.1926   0.5233   0.5233     C
C       0.1926   0.6693   0.6693     C
H       0.1996   0.3126   0.7524     H
H       0.1996   0.4472    0.887     H
H       0.1996   0.7524   0.3126     H
H       0.1996    0.887   0.4472     H
C       0.1997    0.066   0.5103     C
C       0.1997   0.1337   0.6894     C
C       0.1997   0.5103    0.066     C
C       0.1997   0.6894   0.1337     C
C          0.2   0.2671   0.7377     C
C          0.2   0.4623   0.9329     C
C          0.2   0.7377   0.2671     C
C          0.2   0.9329   0.4623     C
H       0.2001   0.0885   0.6702     H
H       0.2001   0.1116   0.5299     H
H       0.2001   0.5299   0.1116     H
H       0.2001   0.6702   0.0885     H
C       0.2356   0.5029   0.5029     C
C       0.2356   0.7327   0.7327     C
H       0.2476   0.4472   0.5602     H
H       0.2476   0.5602   0.4472     H
H       0.2476   0.6874   0.8004     H
H       0.2476   0.8004   0.6874     H
C       0.2623   0.4623   0.5294     C
C       0.2623   0.5294   0.4623     C
C       0.2623   0.7329      0.8     C
C       0.2623      0.8   0.7329     C
C       0.2671   0.0671   0.5294     C
C       0.2671      0.2   0.7377     C
C       0.2671   0.5294   0.0671     C
C       0.2671   0.7377      0.2     C
C       0.2673      0.0   0.5029     C
C       0.2673   0.2673   0.7644     C
C       0.2673   0.5029      0.0     C
C       0.2673   0.7644   0.2673     C
C       0.3106   0.4443   0.5103     C
C       0.3106   0.5103   0.4443     C
C       0.3106   0.8003   0.8663     C
C       0.3106   0.8663   0.8003     C
H       0.3126    0.113   0.5602     H
H       0.3126   0.1996   0.7524     H
H       0.3126   0.5602    0.113     H
H       0.3126   0.7524   0.1996     H
H       0.3298   0.4183   0.5299     H
H       0.3298   0.5299   0.4183     H
H       0.3298   0.7999   0.9115     H
H       0.3298   0.9115   0.7999     H
C       0.3307   0.3307   0.8074     C
C       0.3307   0.5233     -0.0     C
C       0.3307   0.8074   0.3307     C
C       0.3307      1.0   0.5233     C
O       0.3309   0.3992   0.8265     O
O       0.3309   0.5044   0.9317     O
O       0.3309   0.8265   0.3992     O
O       0.3309   0.9317   0.5044     O
C      0.33162  0.46331  0.46331     C
C      0.33162  0.86831  0.86831     C
C       0.3784   0.4429   0.4429     C
C       0.3784   0.9355   0.9355     C
N       0.3965      0.0   0.9313     N
N       0.3965   0.3965   0.4652     N
N       0.3965   0.4652   0.3965     N
N       0.3965   0.9313      0.0     N
O       0.3992   0.0683   0.5727     O
O       0.3992   0.3309   0.8265     O
O       0.3992   0.5727   0.0683     O
O       0.3992   0.8265   0.3309     O
Fe     0.40922      0.5  0.90922    Fe
Fe     0.40922  0.90922      0.5    Fe
H       0.4183   0.0885   0.8884     H
H       0.4183   0.3298   0.5299     H
H       0.4183   0.5299   0.3298     H
H       0.4183   0.8884   0.0885     H
O       0.4273   0.4956   0.8265     O
O       0.4273   0.6008   0.9317     O
O       0.4273   0.8265   0.4956     O
O       0.4273   0.9317   0.6008     O
H       0.4398   0.5528   0.7524     H
H       0.4398   0.6874    0.887     H
H       0.4398   0.7524   0.5528     H
H       0.4398    0.887   0.6874     H
C       0.4429      0.0   0.0645     C
C       0.4429   0.0645     -0.0     C
C       0.4429   0.3784   0.4429     C
C       0.4429   0.4429   0.3784     C
C       0.4443   0.1337    0.934     C
C       0.4443   0.3106   0.5103     C
C       0.4443   0.5103   0.3106     C
C       0.4443    0.934   0.1337     C
H       0.4472   0.1996    0.887     H
H       0.4472   0.2476   0.5602     H
H       0.4472   0.5602   0.2476     H
H       0.4472    0.887   0.1996     H
C       0.4623      0.2   0.9329     C
C       0.4623   0.2623   0.5294     C
C       0.4623   0.5294   0.2623     C
C       0.4623   0.9329      0.2     C
C      0.46331  0.13169      0.0     C
C      0.46331  0.33162  0.46331     C
C      0.46331  0.46331  0.33162     C
C      0.46331      1.0  0.13169     C
N       0.4652   0.0687   0.0687     N
N       0.4652   0.3965   0.3965     N
H       0.4701   0.5817   0.6702     H
H       0.4701   0.6702   0.5817     H
H       0.4701   0.7999   0.8884     H
H       0.4701   0.8884   0.7999     H
C       0.4706   0.5377   0.7377     C
C       0.4706   0.7329   0.9329     C
C       0.4706   0.7377   0.5377     C
C       0.4706   0.9329   0.7329     C
C       0.4767      0.0   0.6693     C
C       0.4767   0.4767   0.8074     C
C       0.4767   0.6693     -0.0     C
C       0.4767   0.8074   0.4767     C
C       0.4897   0.5557   0.6894     C
C       0.4897   0.6894   0.5557     C
C       0.4897   0.8003    0.934     C
C       0.4897    0.934   0.8003     C
O       0.4956   0.0683   0.6691     O
O       0.4956   0.4273   0.8265     O
O       0.4956   0.6691   0.0683     O
O       0.4956   0.8265   0.4273     O
C       0.4971     -0.0   0.7327     C
C       0.4971   0.4971   0.7644     C
C       0.4971   0.7327      0.0     C
C       0.4971   0.7644   0.4971     C
Fe         0.5  0.09078  0.59078    Fe
Fe         0.5  0.40922  0.90922    Fe
Fe         0.5  0.59078  0.09078    Fe
Fe         0.5  0.90922  0.40922    Fe
C       0.5029      0.0   0.2673     C
C       0.5029   0.2356   0.5029     C
C       0.5029   0.2673      0.0     C
C       0.5029   0.5029   0.2356     C
O       0.5044   0.1735   0.5727     O
O       0.5044   0.3309   0.9317     O
O       0.5044   0.5727   0.1735     O
O       0.5044   0.9317   0.3309     O
C       0.5103    0.066   0.1997     C
C       0.5103   0.1997    0.066     C
C       0.5103   0.3106   0.4443     C
C       0.5103   0.4443   0.3106     C
C       0.5233      0.0   0.3307     C
C       0.5233   0.1926   0.5233     C
C       0.5233   0.3307     -0.0     C
C       0.5233   0.5233   0.1926     C
C       0.5294   0.0671   0.2671     C
C       0.5294   0.2623   0.4623     C
C       0.5294   0.2671   0.0671     C
C       0.5294   0.4623   0.2623     C
H       0.5299   0.1116   0.2001     H
H       0.5299   0.2001   0.1116     H
H       0.5299   0.3298   0.4183     H
H       0.5299   0.4183   0.3298     H
N       0.5348   0.6035   0.6035     N
N       0.5348   0.9313   0.9313     N
C      0.53669      0.0  0.86831     C
C      0.53669  0.53669  0.66838     C
C      0.53669  0.66838  0.53669     C
C      0.53669  0.86831      0.0     C
C       0.5377   0.0671      0.8     C
C       0.5377   0.4706   0.7377     C
C       0.5377   0.7377   0.4706     C
C       0.5377      0.8   0.0671     C
H       0.5528    0.113   0.8004     H
H       0.5528   0.4398   0.7524     H
H       0.5528   0.7524   0.4398     H
H       0.5528   0.8004    0.113     H
C       0.5557    0.066   0.8663     C
C       0.5557   0.4897   0.6894     C
C       0.5557   0.6894   0.4897     C
C       0.5557   0.8663    0.066     C
C       0.5571   0.5571   0.6216     C
C       0.5571   0.6216   0.5571     C
C       0.5571   0.9355     -0.0     C
C       0.5571      1.0   0.9355     C
H       0.5602    0.113   0.3126     H
H       0.5602   0.2476   0.4472     H
H       0.5602   0.3126    0.113     H
H       0.5602   0.4472   0.2476     H
O       0.5727   0.0683   0.3992     O
O       0.5727   0.1735   0.5044     O
O       0.5727   0.3992   0.0683     O
O       0.5727   0.5044   0.1735     O
H       0.5817   0.1116   0.9115     H
H       0.5817   0.4701   0.6702     H
H       0.5817   0.6702   0.4701     H
H       0.5817   0.9115   0.1116     H
Fe     0.59078  0.09078      0.5    Fe
Fe     0.59078      0.5  0.09078    Fe
O       0.6008   0.1735   0.6691     O
O       0.6008   0.4273   0.9317     O
O       0.6008   0.6691   0.1735     O
O       0.6008   0.9317   0.4273     O
N       0.6035      0.0   0.0687     N
N       0.6035   0.0687     -0.0     N
N       0.6035   0.5348   0.6035     N
N       0.6035   0.6035   0.5348     N
C       0.6216   0.0645   0.0645     C
C       0.6216   0.5571   0.5571     C
C      0.66838  0.13169  0.13169     C
C      0.66838  0.53669  0.53669     C
O       0.6691   0.0683   0.4956     O
O       0.6691   0.1735   0.6008     O
O       0.6691   0.4956   0.0683     O
O       0.6691   0.6008   0.1735     O
C       0.6693      0.0   0.4767     C
C       0.6693   0.1926   0.6693     C
C       0.6693   0.4767     -0.0     C
C       0.6693   0.6693   0.1926     C
H       0.6702   0.0885   0.2001     H
H       0.6702   0.2001   0.0885     H
H       0.6702   0.4701   0.5817     H
H       0.6702   0.5817   0.4701     H
H       0.6874   0.2476   0.8004     H
H       0.6874   0.4398    0.887     H
H       0.6874   0.8004   0.2476     H
H       0.6874    0.887   0.4398     H
C       0.6894   0.1337   0.1997     C
C       0.6894   0.1997   0.1337     C
C       0.6894   0.4897   0.5557     C
C       0.6894   0.5557   0.4897     C
C       0.7327      0.0   0.4971     C
C       0.7327   0.2356   0.7327     C
C       0.7327   0.4971      0.0     C
C       0.7327   0.7327   0.2356     C
C       0.7329   0.2623      0.8     C
C       0.7329   0.4706   0.9329     C
C       0.7329      0.8   0.2623     C
C       0.7329   0.9329   0.4706     C
C       0.7377      0.2   0.2671     C
C       0.7377   0.2671      0.2     C
C       0.7377   0.4706   0.5377     C
C       0.7377   0.5377   0.4706     C
H       0.7524   0.1996   0.3126     H
H       0.7524   0.3126   0.1996     H
H       0.7524   0.4398   0.5528     H
H       0.7524   0.5528   0.4398     H
C       0.7644   0.2673   0.2673     C
C       0.7644   0.4971   0.4971     C
H       0.7999   0.3298   0.9115     H
H       0.7999   0.4701   0.8884     H
H       0.7999   0.8884   0.4701     H
H       0.7999   0.9115   0.3298     H
C          0.8   0.0671   0.5377     C
C          0.8   0.2623   0.7329     C
C          0.8   0.5377   0.0671     C
C          0.8   0.7329   0.2623     C
C       0.8003   0.3106   0.8663     C
C       0.8003   0.4897    0.934     C
C       0.8003   0.8663   0.3106     C
C       0.8003    0.934   0.4897     C
H       0.8004    0.113   0.5528     H
H       0.8004   0.2476   0.6874     H
H       0.8004   0.5528    0.113     H
H       0.8004   0.6874   0.2476     H
C       0.8074   0.3307   0.3307     C
C       0.8074   0.4767   0.4767     C
O       0.8265   0.3309   0.3992     O
O       0.8265   0.3992   0.3309     O
O       0.8265   0.4273   0.4956     O
O       0.8265   0.4956   0.4273     O
C       0.8663    0.066   0.5557     C
C       0.8663   0.3106   0.8003     C
C       0.8663   0.5557    0.066     C
C       0.8663   0.8003   0.3106     C
C      0.86831      0.0  0.53669     C
C      0.86831  0.33162  0.86831     C
C      0.86831  0.53669      0.0     C
C      0.86831  0.86831  0.33162     C
H        0.887   0.1996   0.4472     H
H        0.887   0.4398   0.6874     H
H        0.887   0.4472   0.1996     H
H        0.887   0.6874   0.4398     H
H       0.8884   0.0885   0.4183     H
H       0.8884   0.4183   0.0885     H
H       0.8884   0.4701   0.7999     H
H       0.8884   0.7999   0.4701     H
Fe     0.90922  0.40922      0.5    Fe
Fe     0.90922      0.5  0.40922    Fe
H       0.9115   0.1116   0.5817     H
H       0.9115   0.3298   0.7999     H
H       0.9115   0.5817   0.1116     H
H       0.9115   0.7999   0.3298     H
N       0.9313      0.0   0.3965     N
N       0.9313   0.3965     -0.0     N
N       0.9313   0.5348   0.9313     N
N       0.9313   0.9313   0.5348     N
O       0.9317   0.3309   0.5044     O
O       0.9317   0.4273   0.6008     O
O       0.9317   0.5044   0.3309     O
O       0.9317   0.6008   0.4273     O
C       0.9329      0.2   0.4623     C
C       0.9329   0.4623      0.2     C
C       0.9329   0.4706   0.7329     C
C       0.9329   0.7329   0.4706     C
C        0.934   0.1337   0.4443     C
C        0.934   0.4443   0.1337     C
C        0.934   0.4897   0.8003     C
C        0.934   0.8003   0.4897     C
C       0.9355      0.0   0.5571     C
C       0.9355   0.3784   0.9355     C
C       0.9355   0.5571     -0.0     C
C       0.9355   0.9355   0.3784     C
C          1.0   0.0645   0.4429     C
N          1.0   0.3965   0.9313     N
C          1.0   0.4767   0.6693     C
C          1.0   0.4971   0.7327     C
C          1.0  0.53669  0.86831     C
C          1.0   0.5571   0.9355     C
C          1.0   0.7327   0.4971     C
C          1.0   0.9355   0.5571     C
