data_I
_chemical_name_common  '/home/zhangsd/repos/MofS-CGCNN/ML/data/SSD/clean_cifs/RUSXAG_clean'
_cell_length_a 10.35410
_cell_length_b 11.36800
_cell_length_c 12.91600
_cell_angle_alpha 72.85900
_cell_angle_beta  90.02800
_cell_angle_gamma 87.23200
_space_group_name_H-M_alt      'P 1'


loop_
_space_group_symop_operation_xyz
  'x, y, z' 

loop_
_atom_site_label
_atom_site_fract_x
_atom_site_fract_y
_atom_site_fract_z
_atom_site_type_symbol
C       0.0317   0.7208   0.7378     C
C       0.0551   0.9075   0.5895     C
H       0.0661   0.6616   0.7988     H
C       0.0762   0.0971   0.4418     C
H       0.0802   0.4035   0.5789     H
H       0.0903   0.6051   0.5859     H
C       0.0967   0.2865   0.2944     C
C       0.1062   0.8122    0.682     C
C       0.1295   0.0048   0.5313     C
H       0.1453   0.3517   0.2566     H
C       0.1493   0.1982   0.3809     C
C       0.1585   0.4419   0.5669     C
C       0.1644   0.5639   0.5707     C
H       0.1917   0.8133   0.7037     H
H       0.2346   0.2032   0.4013     H
H       0.2599   0.2979   0.5469     H
C       0.2649   0.3796    0.546     C
C       0.2658   0.0097   0.5641     C
C       0.2752   0.6212   0.5528     C
H       0.2775   0.7014   0.5569     H
O       0.2867   0.0204   0.6561     O
H       0.3099   0.7843   0.1497     H
H       0.3185   0.5989   0.2901     H
C        0.345    0.713   0.1371     C
C       0.3495   0.6004   0.2222     C
O       0.3586   0.9927   0.5062     O
C       0.3845   0.4379   0.5226     C
O       0.3865   0.2183   0.1907     O
H       0.3867   0.7926   0.9831     H
C       0.3901   0.5619   0.5276     C
C       0.3909   0.7181    0.038     C
C       0.3977   0.4968   0.2055     C
H       0.3984   0.4239   0.2622     H
O       0.4034   0.7851   0.7837     O
C       0.4462   0.6093   0.0171     C
C       0.4486   0.4941    0.103     C
O       0.4672   0.2247   0.4075     O
Gd     0.47833  0.04611  0.33838    Gd
C       0.4895   0.2463   0.4954     C
O       0.4912   0.8322   0.4136     O
C       0.4944   0.3788   0.4947     C
C       0.4946   0.2662   0.1677     C
C       0.4983   0.3848   0.0843     C
C       0.5017   0.6152   0.9157     C
C       0.5054   0.7338   0.8323     C
C       0.5056   0.6212   0.5053     C
O       0.5088   0.1678   0.5864     O
C       0.5105   0.7537   0.5046     C
Gd     0.52167  0.95389  0.66162    Gd
O       0.5328   0.7753   0.5925     O
C       0.5514   0.5059    0.897     C
C       0.5538   0.3907   0.9829     C
O       0.5966   0.2149   0.2163     O
H       0.6016   0.5761   0.7378     H
C       0.6023   0.5032   0.7945     C
C       0.6091   0.2819    0.962     C
C       0.6099   0.4381   0.4724     C
H       0.6133   0.2074   0.0169     H
O       0.6135   0.7817   0.8093     O
C       0.6155   0.5621   0.4774     C
O       0.6414   0.0073   0.4938     O
C       0.6505   0.3996   0.7778     C
C        0.655    0.287   0.8629     C
H       0.6815   0.4011   0.7099     H
H       0.6901   0.2157   0.8503     H
O       0.7133   0.9796   0.3439     O
H       0.7225   0.2986   0.4431     H
C       0.7248   0.3788   0.4472     C
C       0.7342   0.9903   0.4359     C
C       0.7351   0.6204    0.454     C
H       0.7401   0.7021   0.4531     H
H       0.7654   0.7968   0.5987     H
H       0.8083   0.1867   0.2963     H
C       0.8356   0.4361   0.4293     C
C       0.8415   0.5581   0.4331     C
C       0.8507   0.8018   0.6191     C
H       0.8547   0.6483   0.7434     H
C       0.8705   0.9952   0.4687     C
C       0.8938   0.1878    0.318     C
C       0.9033   0.7135   0.7056     C
H       0.9097   0.3949   0.4141     H
H       0.9198   0.5965   0.4211     H
C       0.9238   0.9029   0.5582     C
H       0.9339   0.3384   0.2012     H
C       0.9449   0.0925   0.4105     C
C       0.9683   0.2792   0.2622     C
