data_I
_chemical_name_common  '/home/zhangsd/repos/MofS-CGCNN/ML/data/SSD/clean_cifs/RUVKOJ_clean'
_cell_length_a  8.87640
_cell_length_b  9.19080
_cell_length_c 15.82000
_cell_angle_alpha 90.00000
_cell_angle_beta  90.00000
_cell_angle_gamma 90.00000
_space_group_name_H-M_alt      'P 1'


loop_
_space_group_symop_operation_xyz
  'x, y, z' 

loop_
_atom_site_label
_atom_site_fract_x
_atom_site_fract_y
_atom_site_fract_z
_atom_site_type_symbol
C          0.0   0.0286   0.6794     C
C          0.0   0.0588   0.5872     C
O          0.0   0.1057   0.2978     O
O          0.0   0.1328   0.7329     O
H          0.0   0.1643   0.5781     H
Eu         0.0  0.27153  0.18448    Eu
Eu         0.0  0.72847  0.81552    Eu
H          0.0   0.8357   0.4219     H
O          0.0   0.8672   0.2671     O
O          0.0   0.8943   0.7022     O
C          0.0   0.9412   0.4128     C
C          0.0   0.9714   0.3206     C
C       0.1441   0.0073   0.4518     C
C       0.1441   0.9927   0.5482     C
H       0.1483   0.1109   0.4373     H
H       0.1483   0.8891   0.5627     H
O       0.1655   0.3166   0.0567     O
O       0.1655   0.6834   0.9433     O
O        0.172   0.4781   0.1588     O
O        0.172   0.5219   0.8412     O
C       0.2217   0.4311   0.0884     C
C       0.2217   0.5689   0.9116     C
C       0.2783   0.0689   0.5884     C
C       0.2783   0.9311   0.4116     C
O        0.328   0.0219   0.6588     O
O        0.328   0.9781   0.3412     O
O       0.3345   0.1834   0.5567     O
O       0.3345   0.8166   0.4433     O
H       0.3517   0.3891   0.9373     H
H       0.3517   0.6109   0.0627     H
C       0.3559   0.4927   0.9518     C
C       0.3559   0.5073   0.0482     C
Eu         0.5  0.22847  0.68448    Eu
H          0.5   0.3357   0.0781     H
O          0.5   0.3672   0.2329     O
O          0.5   0.3943   0.7978     O
C          0.5   0.4412   0.0872     C
C          0.5   0.4714   0.1794     C
C          0.5   0.5286   0.8206     C
C          0.5   0.5588   0.9128     C
O          0.5   0.6057   0.2022     O
O          0.5   0.6328   0.7671     O
H          0.5   0.6643   0.9219     H
Eu         0.5  0.77153  0.31552    Eu
C       0.6441   0.4927   0.9518     C
C       0.6441   0.5073   0.0482     C
H       0.6483   0.3891   0.9373     H
H       0.6483   0.6109   0.0627     H
O       0.6655   0.1834   0.5567     O
O       0.6655   0.8166   0.4433     O
O        0.672   0.0219   0.6588     O
O        0.672   0.9781   0.3412     O
C       0.7217   0.0689   0.5884     C
C       0.7217   0.9311   0.4116     C
C       0.7783   0.4311   0.0884     C
C       0.7783   0.5689   0.9116     C
O        0.828   0.4781   0.1588     O
O        0.828   0.5219   0.8412     O
O       0.8345   0.3166   0.0567     O
O       0.8345   0.6834   0.9433     O
H       0.8517   0.1109   0.4373     H
H       0.8517   0.8891   0.5627     H
C       0.8559   0.0073   0.4518     C
C       0.8559   0.9927   0.5482     C
