data_I
_chemical_name_common  '/home/zhangsd/repos/MofS-CGCNN/ML/data/SSD/clean_cifs/RUVKAV_clean'
_cell_length_a 17.38840
_cell_length_b 17.38840
_cell_length_c 17.38840
_cell_angle_alpha 65.35440
_cell_angle_beta  65.35440
_cell_angle_gamma 65.35440
_space_group_name_H-M_alt      'P 1'


loop_
_space_group_symop_operation_xyz
  'x, y, z' 

loop_
_atom_site_label
_atom_site_fract_x
_atom_site_fract_y
_atom_site_fract_z
_atom_site_type_symbol
Cu     0.00388  0.00388  0.57302    Cu
Cu     0.00388  0.57302  0.00388    Cu
C       0.0047   0.5226   0.5226     C
C       0.0141   0.5602   0.5602     C
O      0.01558  0.49165  0.86961     O
O      0.01558  0.86961  0.49165     O
C      0.01965   0.6064   0.6064     C
H       0.0202   0.5064    0.721     H
H       0.0202    0.721   0.5064     H
C      0.02102  0.56902  0.83642     C
C      0.02102  0.83642  0.56902     C
C      0.02133  0.56483  0.69393     C
C      0.02133  0.69393  0.56483     C
O      0.02134  0.61482  0.87616     O
O      0.02134  0.87616  0.61482     O
C      0.02475  0.61175  0.74055     C
C      0.02475  0.74055  0.61175     C
C      0.02607  0.69922  0.69922     C
H       0.0278   0.7305   0.7305     H
O      0.12384  0.38518  0.97866     O
O      0.12384  0.97866  0.38518     O
O      0.13039  0.50835  0.98442     O
O      0.13039  0.98442  0.50835     O
C      0.16358  0.43098  0.97898     C
C      0.16358  0.97898  0.43098     C
C      0.25945  0.38825  0.97525     C
C      0.25945  0.97525  0.38825     C
H       0.2695   0.2695   0.9722     H
H       0.2695   0.9722   0.2695     H
H        0.279   0.4936   0.9798     H
H        0.279   0.9798   0.4936     H
C      0.30078  0.30078  0.97393     C
C      0.30078  0.97393  0.30078     C
C      0.30607  0.43517  0.97867     C
C      0.30607  0.97867  0.43517     C
O      0.38518  0.12384  0.97866     O
O      0.38518  0.97866  0.12384     O
C      0.38825  0.25945  0.97525     C
C      0.38825  0.97525  0.25945     C
C       0.3936   0.3936  0.98035     C
C       0.3936  0.98035   0.3936     C
Cu     0.42698  0.99612  0.99612    Cu
C      0.43098  0.16358  0.97898     C
C      0.43098  0.97898  0.16358     C
C      0.43517  0.30607  0.97867     C
C      0.43517  0.97867  0.30607     C
C       0.4398   0.4398   0.9859     C
C       0.4398   0.9859   0.4398     C
C       0.4774   0.4774   0.9953     C
C       0.4774   0.9953   0.4774     C
O      0.49165  0.01558  0.86961     O
O      0.49165  0.86961  0.01558     O
H       0.4936    0.279   0.9798     H
H       0.4936   0.9798    0.279     H
H       0.5064   0.0202    0.721     H
H       0.5064    0.721   0.0202     H
O      0.50835  0.13039  0.98442     O
O      0.50835  0.98442  0.13039     O
C       0.5226   0.0047   0.5226     C
C       0.5226   0.5226   0.0047     C
C       0.5602   0.0141   0.5602     C
C       0.5602   0.5602   0.0141     C
C      0.56483  0.02133  0.69393     C
C      0.56483  0.69393  0.02133     C
C      0.56902  0.02102  0.83642     C
C      0.56902  0.83642  0.02102     C
Cu     0.57302  0.00388  0.00388    Cu
C       0.6064  0.01965   0.6064     C
C       0.6064   0.6064  0.01965     C
C      0.61175  0.02475  0.74055     C
C      0.61175  0.74055  0.02475     C
O      0.61482  0.02134  0.87616     O
O      0.61482  0.87616  0.02134     O
C      0.69393  0.02133  0.56483     C
C      0.69393  0.56483  0.02133     C
C      0.69922  0.02607  0.69922     C
C      0.69922  0.69922  0.02607     C
H        0.721   0.0202   0.5064     H
H        0.721   0.5064   0.0202     H
H       0.7305   0.0278   0.7305     H
H       0.7305   0.7305   0.0278     H
C      0.74055  0.02475  0.61175     C
C      0.74055  0.61175  0.02475     C
C      0.83642  0.02102  0.56902     C
C      0.83642  0.56902  0.02102     C
O      0.86961  0.01558  0.49165     O
O      0.86961  0.49165  0.01558     O
O      0.87616  0.02134  0.61482     O
O      0.87616  0.61482  0.02134     O
H       0.9722   0.2695   0.2695     H
C      0.97393  0.30078  0.30078     C
C      0.97525  0.25945  0.38825     C
C      0.97525  0.38825  0.25945     C
O      0.97866  0.12384  0.38518     O
O      0.97866  0.38518  0.12384     O
C      0.97867  0.30607  0.43517     C
C      0.97867  0.43517  0.30607     C
C      0.97898  0.16358  0.43098     C
C      0.97898  0.43098  0.16358     C
H       0.9798    0.279   0.4936     H
H       0.9798   0.4936    0.279     H
C      0.98035   0.3936   0.3936     C
O      0.98442  0.13039  0.50835     O
O      0.98442  0.50835  0.13039     O
C       0.9859   0.4398   0.4398     C
C       0.9953   0.4774   0.4774     C
Cu     0.99612  0.42698  0.99612    Cu
Cu     0.99612  0.99612  0.42698    Cu
