data_I
_chemical_name_common  '/home/zhangsd/repos/MofS-CGCNN/ML/data/SSD/clean_cifs/RUWZIU_clean'
_cell_length_a 37.52600
_cell_length_b  8.84680
_cell_length_c 29.72000
_cell_angle_alpha 90.00000
_cell_angle_beta  127.61000
_cell_angle_gamma 90.00000
_space_group_name_H-M_alt      'P 1'


loop_
_space_group_symop_operation_xyz
  'x, y, z' 

loop_
_atom_site_label
_atom_site_fract_x
_atom_site_fract_y
_atom_site_fract_z
_atom_site_type_symbol
C          0.0   0.3792     0.25     C
Ni         0.0      0.5      0.0    Ni
Ni         0.0      0.5      0.5    Ni
C          0.0   0.6208     0.75     C
N      0.00215   0.3577  0.05659     N
N      0.00215   0.6423  0.55659     N
O      0.00473   0.1881  0.30899     O
O      0.00473   0.8119  0.80899     O
H       0.0074   0.2571   0.4608     H
H       0.0074   0.7429   0.9608     H
O      0.00766   0.3057  0.54795     O
O      0.00766   0.6943  0.04795     O
C      0.00953   0.0833  0.17138     C
C      0.00953   0.9167  0.67138     C
H       0.0132   0.4654   0.8106     H
H       0.0132   0.5346   0.3106     H
C      0.01482   0.0899  0.90462     C
C      0.01482   0.9101  0.40462     C
H       0.0185   0.4982   0.9103     H
H       0.0185   0.5018   0.4103     H
C      0.02501   0.0133   0.3796     C
C      0.02501   0.9867   0.8796     C
H       0.0265   0.3321   0.4039     H
H       0.0265   0.6679   0.9039     H
C      0.02778   0.2784  0.23971     C
C      0.02778   0.7216  0.73971     C
C      0.02873   0.4053   0.4298     C
C      0.02873   0.5947   0.9298     C
C      0.02963   0.1271  0.61982     C
C      0.02963   0.8729  0.11982     C
C      0.03086   0.4781  0.30259     C
C      0.03086   0.5219  0.80259     C
H        0.038   0.1357   0.9385     H
H        0.038   0.8643   0.4385     H
C      0.04024   0.2396   0.5912     C
C      0.04024   0.7604   0.0912     C
H       0.0451   0.3394   0.2322     H
H       0.0451   0.6606   0.7322     H
H       0.0482   0.2148   0.2725     H
H       0.0482   0.7852   0.7725     H
C      0.05024   0.3477  0.10652     C
C      0.05024   0.6523  0.60652     C
H        0.052   0.4152   0.3352     H
H        0.052   0.5848   0.8352     H
C      0.05414   0.0482  0.19684     C
C      0.05414   0.9518  0.69684     C
O      0.05461   0.4203  0.79215     O
O      0.05461   0.5797  0.29215     O
H       0.0549   0.0368   0.3964     H
H       0.0549   0.9632   0.8964     H
H       0.0551   0.2595    0.129     H
H       0.0551   0.7405    0.629     H
H       0.0588   0.4367   0.1302     H
H       0.0588   0.5633   0.6302     H
C      0.06357    0.058  0.67067     C
C      0.06357    0.942  0.17067     C
N      0.06865   0.4683  0.04884     N
N      0.06865   0.5317  0.54884     N
H       0.0715   0.2435   0.0646     H
H       0.0715   0.7565   0.5646     H
H       0.0735   0.3736   0.8929     H
H       0.0735   0.6264   0.3929     H
H       0.0749   0.3632   0.9934     H
H       0.0749   0.6368   0.4934     H
N      0.07524   0.4192  0.47848     N
N      0.07524   0.5808  0.97848     N
H       0.0773   0.0945   0.2306     H
H       0.0773   0.9055   0.7306     H
C      0.07849   0.3365  0.08578     C
C      0.07849   0.6635  0.58578     C
O      0.08124   0.2628  0.61302     O
O      0.08124   0.7372  0.11302     O
C      0.08229   0.3161  0.83379     C
C      0.08229   0.6839  0.33379     C
H       0.0824   0.2339   0.5218     H
H       0.0824   0.7661   0.0218     H
H       0.0829   0.4432   0.5736     H
H       0.0829   0.5568   0.0736     H
C      0.08657   0.4551   0.0158     C
C      0.08657   0.5449   0.5158     C
C      0.08874   0.3082  0.88545     C
C      0.08874   0.6918  0.38545     C
H       0.0934   0.0832   0.6877     H
H       0.0934   0.9168   0.1877     H
H       0.0938   0.2067   0.4797     H
H       0.0938   0.7933   0.9797     H
C       0.0967   0.2759   0.5067     C
C       0.0967   0.7241   0.0067     C
H        0.101   0.2233   0.7891     H
H        0.101   0.7767   0.2891     H
C      0.10548   0.2186  0.82351     C
C      0.10548   0.7814  0.32351     C
H       0.1102   0.3353    0.118     H
H       0.1102   0.6647    0.618     H
C      0.11826   0.2011  0.92536     C
C      0.11826   0.7989  0.42536     C
H       0.1191   0.4461   0.0422     H
H       0.1191   0.5539   0.5422     H
H       0.1222   0.1946   0.9594     H
H       0.1222   0.8054   0.4594     H
H        0.128   0.2928    0.537     H
H        0.128   0.7072    0.037     H
C      0.13521   0.1147  0.86405     C
C      0.13521   0.8853  0.36405     C
C      0.14207   0.1032   0.9159     C
C      0.14207   0.8968   0.4159     C
H       0.1507   0.4901   0.3823     H
H       0.1507   0.5099   0.8823     H
H        0.151   0.0512   0.8569     H
H        0.151   0.9488   0.3569     H
H       0.1537   0.3141   0.3894     H
H       0.1537   0.6859   0.8894     H
H       0.1595   0.3463   0.4747     H
H       0.1595   0.6537   0.9747     H
H       0.1663   0.4774   0.9817     H
H       0.1663   0.5226   0.4817     H
C      0.17129    0.405  0.39803     C
C      0.17129    0.595  0.89803     C
O       0.1736    0.031   0.5019     O
O       0.1736    0.969   0.0019     O
C      0.17404   0.0112  0.46028     C
C      0.17404   0.9888  0.96028     C
C      0.18154   0.4268   0.4892     C
C      0.18154   0.5732   0.9892     C
N      0.19239   0.3956  0.37055     N
N      0.19239   0.6044  0.87055     N
H       0.1952   0.3811    0.861     H
H       0.1952   0.6189    0.361     H
H       0.1976   0.1726   0.3699     H
H       0.1976   0.8274   0.8699     H
O      0.19852   0.0836  0.45192     O
O      0.19852   0.9164  0.95192     O
N       0.2035   0.4228  0.46054     N
N       0.2035   0.5772  0.96054     N
H       0.2049   0.4062   0.5726     H
H       0.2049   0.5938   0.0726     H
C      0.21569   0.4648    0.875     C
C      0.21569   0.5352    0.375     C
C       0.2171   0.2587  0.37946     C
C       0.2171   0.7413  0.87946     C
C      0.21815   0.4067    0.553     C
C      0.21815   0.5933    0.053     C
H       0.2198    0.482   0.9688     H
H       0.2198    0.518   0.4688     H
H       0.2204   0.1797   0.5546     H
H       0.2204   0.8203   0.0546     H
H       0.2247   0.2588   0.3536     H
H       0.2247   0.7412   0.8536     H
H       0.2263   0.4749   0.8528     H
H       0.2263   0.5251   0.3528     H
H       0.2396   0.4892   0.5678     H
H       0.2396   0.5108   0.0678     H
H       0.2408   0.4474    0.914     H
H       0.2408   0.5526    0.414     H
N      0.24113   0.2609  0.56196     N
N      0.24113   0.7391  0.06196     N
Ni        0.25     0.25      0.5    Ni
Ni        0.25     0.75      0.0    Ni
N      0.25887   0.2391  0.43804     N
N      0.25887   0.7609  0.93804     N
H       0.2592   0.0526    0.086     H
H       0.2592   0.9474    0.586     H
H       0.2604   0.0108   0.4322     H
H       0.2604   0.9892   0.9322     H
H       0.2737   0.0251   0.1472     H
H       0.2737   0.9749   0.6472     H
H       0.2753   0.2412   0.6464     H
H       0.2753   0.7588   0.1464     H
H       0.2796   0.3203   0.4454     H
H       0.2796   0.6797   0.9454     H
H       0.2802    0.018   0.0312     H
H       0.2802    0.982   0.5312     H
C      0.28185   0.0933    0.447     C
C      0.28185   0.9067    0.947     C
C       0.2829   0.2413  0.62054     C
C       0.2829   0.7587  0.12054     C
C      0.28431   0.0352    0.125     C
C      0.28431   0.9648    0.625     C
H       0.2951   0.0938   0.4274     H
H       0.2951   0.9062   0.9274     H
N       0.2965   0.0772  0.53946     N
N       0.2965   0.9228  0.03946     N
O      0.30148   0.4164  0.54808     O
O      0.30148   0.5836  0.04808     O
H       0.3024   0.3274   0.6301     H
H       0.3024   0.6726   0.1301     H
H       0.3048   0.1189    0.139     H
H       0.3048   0.8811    0.639     H
N      0.30761   0.1044  0.62945     N
N      0.30761   0.8956  0.12945     N
C      0.31846   0.0732   0.5108     C
C      0.31846   0.9268   0.0108     C
C      0.32596   0.4888  0.53972     C
C      0.32596   0.5112  0.03972     C
O       0.3264    0.469   0.4981     O
O       0.3264    0.531   0.9981     O
C      0.32871    0.095  0.60197     C
C      0.32871    0.905  0.10197     C
H       0.3337   0.0226   0.0183     H
H       0.3337   0.9774   0.5183     H
H       0.3405   0.1537   0.5253     H
H       0.3405   0.8463   0.0253     H
H       0.3463   0.1859   0.6106     H
H       0.3463   0.8141   0.1106     H
H        0.349   0.4488   0.1431     H
H        0.349   0.5512   0.6431     H
H       0.3493   0.0099   0.6177     H
H       0.3493   0.9901   0.1177     H
C      0.35793   0.3968   0.0841     C
C      0.35793   0.6032   0.5841     C
C      0.36479   0.3853  0.13595     C
C      0.36479   0.6147  0.63595     C
H        0.372   0.2072    0.463     H
H        0.372   0.7928    0.963     H
H       0.3778   0.3054   0.0406     H
H       0.3778   0.6946   0.5406     H
H       0.3809   0.0539   0.9578     H
H       0.3809   0.9461   0.4578     H
C      0.38174   0.2989  0.07464     C
C      0.38174   0.7011  0.57464     C
H       0.3898   0.1647    0.882     H
H       0.3898   0.8353    0.382     H
C      0.39452   0.2814  0.17649     C
C      0.39452   0.7186  0.67649     C
H        0.399   0.2767   0.2109     H
H        0.399   0.7233   0.7109     H
C       0.4033   0.2241   0.4933     C
C       0.4033   0.7759   0.9933     C
H       0.4062   0.2933   0.5203     H
H       0.4062   0.7067   0.0203     H
H       0.4066   0.4168   0.3123     H
H       0.4066   0.5832   0.8123     H
C      0.41126   0.1918  0.11455     C
C      0.41126   0.8082  0.61455     C
C      0.41343   0.0449   0.9842     C
C      0.41343   0.9551   0.4842     C
H       0.4171   0.0568   0.4264     H
H       0.4171   0.9432   0.9264     H
H       0.4176   0.2661   0.4782     H
H       0.4176   0.7339   0.9782     H
C      0.41771   0.1839  0.16621     C
C      0.41771   0.8161  0.66621     C
O      0.41876   0.2372  0.38698     O
O      0.41876   0.7628  0.88698     O
C      0.42151   0.1635  0.91422     C
C      0.42151   0.8365  0.41422     C
H       0.4227   0.4055   0.7694     H
H       0.4227   0.5945   0.2694     H
N      0.42476   0.0808  0.52152     N
N      0.42476   0.9192  0.02152     N
H       0.4251   0.1368   0.0066     H
H       0.4251   0.8632   0.5066     H
H       0.4265   0.1264   0.1071     H
H       0.4265   0.8736   0.6071     H
H       0.4285   0.2565   0.9354     H
H       0.4285   0.7435   0.4354     H
N      0.43135   0.0317  0.95116     N
N      0.43135   0.9683  0.45116     N
C      0.43643    0.442  0.32933     C
C      0.43643    0.558  0.82933     C
H       0.4412   0.0633   0.8698     H
H       0.4412   0.9367   0.3698     H
H       0.4449   0.2405    0.871     H
H       0.4449   0.7595    0.371     H
H       0.4451   0.4632   0.6036     H
H       0.4451   0.5368   0.1036     H
O      0.44539   0.0797  0.20785     O
O      0.44539   0.9203  0.70785     O
C      0.44586   0.4518  0.80316     C
C      0.44586   0.5482  0.30316     C
H        0.448   0.0848   0.6648     H
H        0.448   0.9152   0.1648     H
C      0.44976   0.1523  0.89348     C
C      0.44976   0.8477  0.39348     C
H       0.4518   0.2852   0.7275     H
H       0.4518   0.7148   0.2275     H
H       0.4549   0.1606   0.7678     H
H       0.4549   0.8394   0.2678     H
C      0.45976   0.2604   0.4088     C
C      0.45976   0.7396   0.9088     C
H        0.462   0.3643   0.0615     H
H        0.462   0.6357   0.5615     H
C      0.46914   0.0219  0.69741     C
C      0.46914   0.9781  0.19741     C
C      0.47037   0.3729  0.38018     C
C      0.47037   0.6271  0.88018     C
C      0.47127   0.0947   0.5702     C
C      0.47127   0.9053   0.0702     C
C      0.47222   0.2216  0.76029     C
C      0.47222   0.7784  0.26029     C
H       0.4735   0.1679   0.5961     H
H       0.4735   0.8321   0.0961     H
C      0.47499   0.4867   0.6204     C
C      0.47499   0.5133   0.1204     C
H       0.4815   0.0018   0.0897     H
H       0.4815   0.9982   0.5897     H
C      0.48518   0.4101  0.09538     C
C      0.48518   0.5899  0.59538     C
H       0.4868   0.0346   0.1894     H
H       0.4868   0.9654   0.6894     H
C      0.49047   0.4167  0.82862     C
C      0.49047   0.5833  0.32862     C
O      0.49234   0.1943  0.45205     O
O      0.49234   0.8057  0.95205     O
H       0.4926   0.2429   0.5392     H
H       0.4926   0.7571   0.0392     H
O      0.49527   0.3119  0.69101     O
O      0.49527   0.6881  0.19101     O
N      0.49785   0.1423  0.94341     N
N      0.49785   0.8577  0.44341     N
Ni         0.5      0.0      0.0    Ni
Ni         0.5      0.0      0.5    Ni
C          0.5   0.1208     0.75     C
C          0.5   0.8792     0.25     C
N      0.50215   0.1423  0.55659     N
N      0.50215   0.8577  0.05659     N
O      0.50473   0.3119  0.80899     O
O      0.50473   0.6881  0.30899     O
H       0.5074   0.2429   0.9608     H
H       0.5074   0.7571   0.4608     H
O      0.50766   0.1943  0.04795     O
O      0.50766   0.8057  0.54795     O
C      0.50953   0.4167  0.67138     C
C      0.50953   0.5833  0.17138     C
H       0.5132   0.0346   0.3106     H
H       0.5132   0.9654   0.8106     H
C      0.51482   0.4101  0.40462     C
C      0.51482   0.5899  0.90462     C
H       0.5185   0.0018   0.4103     H
H       0.5185   0.9982   0.9103     H
C      0.52501   0.4867   0.8796     C
C      0.52501   0.5133   0.3796     C
H       0.5265   0.1679   0.9039     H
H       0.5265   0.8321   0.4039     H
C      0.52778   0.2216  0.73971     C
C      0.52778   0.7784  0.23971     C
C      0.52873   0.0947   0.9298     C
C      0.52873   0.9053   0.4298     C
C      0.52963   0.3729  0.11982     C
C      0.52963   0.6271  0.61982     C
C      0.53086   0.0219  0.80259     C
C      0.53086   0.9781  0.30259     C
H        0.538   0.3643   0.4385     H
H        0.538   0.6357   0.9385     H
C      0.54024   0.2604   0.0912     C
C      0.54024   0.7396   0.5912     C
H       0.5451   0.1606   0.7322     H
H       0.5451   0.8394   0.2322     H
H       0.5482   0.2852   0.7725     H
H       0.5482   0.7148   0.2725     H
C      0.55024   0.1523  0.60652     C
C      0.55024   0.8477  0.10652     C
H        0.552   0.0848   0.8352     H
H        0.552   0.9152   0.3352     H
C      0.55414   0.4518  0.69684     C
C      0.55414   0.5482  0.19684     C
O      0.55461   0.0797  0.29215     O
O      0.55461   0.9203  0.79215     O
H       0.5549   0.4632   0.8964     H
H       0.5549   0.5368   0.3964     H
H       0.5551   0.2405    0.629     H
H       0.5551   0.7595    0.129     H
H       0.5588   0.0633   0.6302     H
H       0.5588   0.9367   0.1302     H
C      0.56357    0.442  0.17067     C
C      0.56357    0.558  0.67067     C
N      0.56865   0.0317  0.54884     N
N      0.56865   0.9683  0.04884     N
H       0.5715   0.2565   0.5646     H
H       0.5715   0.7435   0.0646     H
H       0.5735   0.1264   0.3929     H
H       0.5735   0.8736   0.8929     H
H       0.5749   0.1368   0.4934     H
H       0.5749   0.8632   0.9934     H
N      0.57524   0.0808  0.97848     N
N      0.57524   0.9192  0.47848     N
H       0.5773   0.4055   0.7306     H
H       0.5773   0.5945   0.2306     H
C      0.57849   0.1635  0.58578     C
C      0.57849   0.8365  0.08578     C
O      0.58124   0.2372  0.11302     O
O      0.58124   0.7628  0.61302     O
C      0.58229   0.1839  0.33379     C
C      0.58229   0.8161  0.83379     C
H       0.5824   0.2661   0.0218     H
H       0.5824   0.7339   0.5218     H
H       0.5829   0.0568   0.0736     H
H       0.5829   0.9432   0.5736     H
C      0.58657   0.0449   0.5158     C
C      0.58657   0.9551   0.0158     C
C      0.58874   0.1918  0.38545     C
C      0.58874   0.8082  0.88545     C
H       0.5934   0.4168   0.1877     H
H       0.5934   0.5832   0.6877     H
H       0.5938   0.2933   0.9797     H
H       0.5938   0.7067   0.4797     H
C       0.5967   0.2241   0.0067     C
C       0.5967   0.7759   0.5067     C
H        0.601   0.2767   0.2891     H
H        0.601   0.7233   0.7891     H
C      0.60548   0.2814  0.32351     C
C      0.60548   0.7186  0.82351     C
H       0.6102   0.1647    0.618     H
H       0.6102   0.8353    0.118     H
C      0.61826   0.2989  0.42536     C
C      0.61826   0.7011  0.92536     C
H       0.6191   0.0539   0.5422     H
H       0.6191   0.9461   0.0422     H
H       0.6222   0.3054   0.4594     H
H       0.6222   0.6946   0.9594     H
H        0.628   0.2072    0.037     H
H        0.628   0.7928    0.537     H
C      0.63521   0.3853  0.36405     C
C      0.63521   0.6147  0.86405     C
C      0.64207   0.3968   0.4159     C
C      0.64207   0.6032   0.9159     C
H       0.6507   0.0099   0.8823     H
H       0.6507   0.9901   0.3823     H
H        0.651   0.4488   0.3569     H
H        0.651   0.5512   0.8569     H
H       0.6537   0.1859   0.8894     H
H       0.6537   0.8141   0.3894     H
H       0.6595   0.1537   0.9747     H
H       0.6595   0.8463   0.4747     H
H       0.6663   0.0226   0.4817     H
H       0.6663   0.9774   0.9817     H
C      0.67129    0.095  0.89803     C
C      0.67129    0.905  0.39803     C
O       0.6736    0.469   0.0019     O
O       0.6736    0.531   0.5019     O
C      0.67404   0.4888  0.96028     C
C      0.67404   0.5112  0.46028     C
C      0.68154   0.0732   0.9892     C
C      0.68154   0.9268   0.4892     C
N      0.69239   0.1044  0.87055     N
N      0.69239   0.8956  0.37055     N
H       0.6952   0.1189    0.361     H
H       0.6952   0.8811    0.861     H
H       0.6976   0.3274   0.8699     H
H       0.6976   0.6726   0.3699     H
O      0.69852   0.4164  0.95192     O
O      0.69852   0.5836  0.45192     O
N       0.7035   0.0772  0.96054     N
N       0.7035   0.9228  0.46054     N
H       0.7049   0.0938   0.0726     H
H       0.7049   0.9062   0.5726     H
C      0.71569   0.0352    0.375     C
C      0.71569   0.9648    0.875     C
C       0.7171   0.2413  0.87946     C
C       0.7171   0.7587  0.37946     C
C      0.71815   0.0933    0.053     C
C      0.71815   0.9067    0.553     C
H       0.7198    0.018   0.4688     H
H       0.7198    0.982   0.9688     H
H       0.7204   0.3203   0.0546     H
H       0.7204   0.6797   0.5546     H
H       0.7247   0.2412   0.8536     H
H       0.7247   0.7588   0.3536     H
H       0.7263   0.0251   0.3528     H
H       0.7263   0.9749   0.8528     H
H       0.7396   0.0108   0.0678     H
H       0.7396   0.9892   0.5678     H
H       0.7408   0.0526    0.414     H
H       0.7408   0.9474    0.914     H
N      0.74113   0.2391  0.06196     N
N      0.74113   0.7609  0.56196     N
Ni        0.75     0.25      0.0    Ni
Ni        0.75     0.75      0.5    Ni
N      0.75887   0.2609  0.93804     N
N      0.75887   0.7391  0.43804     N
H       0.7592   0.4474    0.586     H
H       0.7592   0.5526    0.086     H
H       0.7604   0.4892   0.9322     H
H       0.7604   0.5108   0.4322     H
H       0.7737   0.4749   0.6472     H
H       0.7737   0.5251   0.1472     H
H       0.7753   0.2588   0.1464     H
H       0.7753   0.7412   0.6464     H
H       0.7796   0.1797   0.9454     H
H       0.7796   0.8203   0.4454     H
H       0.7802    0.482   0.5312     H
H       0.7802    0.518   0.0312     H
C      0.78185   0.4067    0.947     C
C      0.78185   0.5933    0.447     C
C       0.7829   0.2587  0.12054     C
C       0.7829   0.7413  0.62054     C
C      0.78431   0.4648    0.625     C
C      0.78431   0.5352    0.125     C
H       0.7951   0.4062   0.9274     H
H       0.7951   0.5938   0.4274     H
N       0.7965   0.4228  0.03946     N
N       0.7965   0.5772  0.53946     N
O      0.80148   0.0836  0.04808     O
O      0.80148   0.9164  0.54808     O
H       0.8024   0.1726   0.1301     H
H       0.8024   0.8274   0.6301     H
H       0.8048   0.3811    0.639     H
H       0.8048   0.6189    0.139     H
N      0.80761   0.3956  0.12945     N
N      0.80761   0.6044  0.62945     N
C      0.81846   0.4268   0.0108     C
C      0.81846   0.5732   0.5108     C
C      0.82596   0.0112  0.03972     C
C      0.82596   0.9888  0.53972     C
O       0.8264    0.031   0.9981     O
O       0.8264    0.969   0.4981     O
C      0.82871    0.405  0.10197     C
C      0.82871    0.595  0.60197     C
H       0.8337   0.4774   0.5183     H
H       0.8337   0.5226   0.0183     H
H       0.8405   0.3463   0.0253     H
H       0.8405   0.6537   0.5253     H
H       0.8463   0.3141   0.1106     H
H       0.8463   0.6859   0.6106     H
H        0.849   0.0512   0.6431     H
H        0.849   0.9488   0.1431     H
H       0.8493   0.4901   0.1177     H
H       0.8493   0.5099   0.6177     H
C      0.85793   0.1032   0.5841     C
C      0.85793   0.8968   0.0841     C
C      0.86479   0.1147  0.63595     C
C      0.86479   0.8853  0.13595     C
H        0.872   0.2928    0.963     H
H        0.872   0.7072    0.463     H
H       0.8778   0.1946   0.5406     H
H       0.8778   0.8054   0.0406     H
H       0.8809   0.4461   0.4578     H
H       0.8809   0.5539   0.9578     H
C      0.88174   0.2011  0.57464     C
C      0.88174   0.7989  0.07464     C
H       0.8898   0.3353    0.382     H
H       0.8898   0.6647    0.882     H
C      0.89452   0.2186  0.67649     C
C      0.89452   0.7814  0.17649     C
H        0.899   0.2233   0.7109     H
H        0.899   0.7767   0.2109     H
C       0.9033   0.2759   0.9933     C
C       0.9033   0.7241   0.4933     C
H       0.9062   0.2067   0.0203     H
H       0.9062   0.7933   0.5203     H
H       0.9066   0.0832   0.8123     H
H       0.9066   0.9168   0.3123     H
C      0.91126   0.3082  0.61455     C
C      0.91126   0.6918  0.11455     C
C      0.91343   0.4551   0.4842     C
C      0.91343   0.5449   0.9842     C
H       0.9171   0.4432   0.9264     H
H       0.9171   0.5568   0.4264     H
H       0.9176   0.2339   0.9782     H
H       0.9176   0.7661   0.4782     H
C      0.91771   0.3161  0.66621     C
C      0.91771   0.6839  0.16621     C
O      0.91876   0.2628  0.88698     O
O      0.91876   0.7372  0.38698     O
C      0.92151   0.3365  0.41422     C
C      0.92151   0.6635  0.91422     C
H       0.9227   0.0945   0.2694     H
H       0.9227   0.9055   0.7694     H
N      0.92476   0.4192  0.02152     N
N      0.92476   0.5808  0.52152     N
H       0.9251   0.3632   0.5066     H
H       0.9251   0.6368   0.0066     H
H       0.9265   0.3736   0.6071     H
H       0.9265   0.6264   0.1071     H
H       0.9285   0.2435   0.4354     H
H       0.9285   0.7565   0.9354     H
N      0.93135   0.4683  0.45116     N
N      0.93135   0.5317  0.95116     N
C      0.93643    0.058  0.82933     C
C      0.93643    0.942  0.32933     C
H       0.9412   0.4367   0.3698     H
H       0.9412   0.5633   0.8698     H
H       0.9449   0.2595    0.371     H
H       0.9449   0.7405    0.871     H
H       0.9451   0.0368   0.1036     H
H       0.9451   0.9632   0.6036     H
O      0.94539   0.4203  0.70785     O
O      0.94539   0.5797  0.20785     O
C      0.94586   0.0482  0.30316     C
C      0.94586   0.9518  0.80316     C
H        0.948   0.4152   0.1648     H
H        0.948   0.5848   0.6648     H
C      0.94976   0.3477  0.39348     C
C      0.94976   0.6523  0.89348     C
H       0.9518   0.2148   0.2275     H
H       0.9518   0.7852   0.7275     H
H       0.9549   0.3394   0.2678     H
H       0.9549   0.6606   0.7678     H
C      0.95976   0.2396   0.9088     C
C      0.95976   0.7604   0.4088     C
H        0.962   0.1357   0.5615     H
H        0.962   0.8643   0.0615     H
C      0.96914   0.4781  0.19741     C
C      0.96914   0.5219  0.69741     C
C      0.97037   0.1271  0.88018     C
C      0.97037   0.8729  0.38018     C
C      0.97127   0.4053   0.0702     C
C      0.97127   0.5947   0.5702     C
C      0.97222   0.2784  0.26029     C
C      0.97222   0.7216  0.76029     C
H       0.9735   0.3321   0.0961     H
H       0.9735   0.6679   0.5961     H
C      0.97499   0.0133   0.1204     C
C      0.97499   0.9867   0.6204     C
H       0.9815   0.4982   0.5897     H
H       0.9815   0.5018   0.0897     H
C      0.98518   0.0899  0.59538     C
C      0.98518   0.9101  0.09538     C
H       0.9868   0.4654   0.6894     H
H       0.9868   0.5346   0.1894     H
C      0.99047   0.0833  0.32862     C
C      0.99047   0.9167  0.82862     C
O      0.99234   0.3057  0.95205     O
O      0.99234   0.6943  0.45205     O
H       0.9926   0.2571   0.0392     H
H       0.9926   0.7429   0.5392     H
O      0.99527   0.1881  0.19101     O
O      0.99527   0.8119  0.69101     O
N      0.99785   0.3577  0.44341     N
N      0.99785   0.6423  0.94341     N
