data_I
_chemical_name_common  '/home/zhangsd/repos/MofS-CGCNN/ML/data/SSD/clean_cifs/RUWZOA_clean'
_cell_length_a 37.15300
_cell_length_b  8.93810
_cell_length_c 29.41400
_cell_angle_alpha 90.00000
_cell_angle_beta  127.96400
_cell_angle_gamma 90.00000
_space_group_name_H-M_alt      'P 1'


loop_
_space_group_symop_operation_xyz
  'x, y, z' 

loop_
_atom_site_label
_atom_site_fract_x
_atom_site_fract_y
_atom_site_fract_z
_atom_site_type_symbol
Ni         0.0      0.0      0.0    Ni
Ni         0.0      0.0      0.5    Ni
C          0.0   0.1218     0.25     C
C          0.0   0.8782     0.75     C
O      0.00309   0.3196   0.3054     O
O      0.00309   0.6804   0.8054     O
N      0.00582   0.1551  0.05767     N
N      0.00582   0.8449  0.55767     N
H       0.0061   0.3774   0.4402     H
H       0.0061   0.6226   0.9402     H
O      0.01006   0.1764  0.55682     O
O      0.01006   0.8236  0.05682     O
H       0.0104   0.0077   0.9092     H
H       0.0104   0.9923   0.4092     H
H       0.0105   0.1539   0.3876     H
H       0.0105   0.8461   0.8876     H
C      0.01155   0.3771   0.8912     C
C      0.01155   0.6229   0.3912     C
C      0.01217    0.428  0.17746     C
C      0.01217    0.572  0.67746     C
H       0.0125   0.0355   0.8097     H
H       0.0125   0.9645   0.3097     H
H       0.0174   0.3285   0.4994     H
H       0.0174   0.6715   0.9994     H
C      0.01827   0.0963   0.4205     C
C      0.01827   0.9037   0.9205     C
C       0.0187   0.2983   0.4687     C
C       0.0187   0.7017   0.9687     C
C      0.02236   0.4837   0.8676     C
C      0.02236   0.5163   0.3676     C
C      0.02869   0.2204  0.24087     C
C      0.02869   0.7796  0.74087     C
C      0.03084    0.024  0.30333     C
C      0.03084    0.976  0.80333     C
C      0.03332    0.354  0.62966     C
C      0.03332    0.646  0.12966     C
H       0.0347   0.3193   0.9218     H
H       0.0347   0.6807   0.4218     H
C      0.04341   0.2438  0.60026     C
C      0.04341   0.7562  0.10026     C
H       0.0445     0.16   0.2307     H
H       0.0445     0.84   0.7307     H
H       0.0511   0.0864    0.337     H
H       0.0511   0.2764   0.2756     H
H       0.0511   0.7236   0.7756     H
H       0.0511   0.9136    0.837     H
H       0.0524   0.4964   0.8816     H
H       0.0524   0.5036   0.3816     H
C       0.0558   0.1728   0.1024     C
C       0.0558   0.8272   0.6024     C
O      0.05683   0.0715   0.7947     O
O      0.05683   0.9285   0.2947     O
C      0.05702   0.4505  0.20024     C
C      0.05702   0.5495  0.70024     C
H       0.0621   0.2676   0.1221     H
H       0.0621   0.7324   0.6221     H
N      0.06642   0.1117  0.46864     N
N      0.06642   0.8883  0.96864     N
C      0.06717   0.4383  0.67609     C
C      0.06717   0.5617  0.17609     C
H       0.0673   0.0934   0.1307     H
H       0.0673   0.9066   0.6307     H
N      0.06819   0.0234  0.04391     N
N      0.06819   0.9766  0.54391     N
C      0.06836     0.26   0.4928     C
C      0.06836     0.74   0.9928     C
H       0.0702   0.2509   0.0492     H
H       0.0702   0.7491   0.5492     H
H       0.0759   0.1182   0.8961     H
H       0.0759   0.8818   0.3961     H
H       0.0795   0.1029   0.9892     H
H       0.0795   0.8971   0.4892     H
C      0.07996   0.1676   0.0755     C
C      0.07996   0.8324   0.5755     C
H         0.08   0.3352    0.481     H
H         0.08   0.6648    0.981     H
H       0.0801   0.3931   0.2311     H
H       0.0801   0.6069   0.7311     H
H       0.0829    0.056   0.5731     H
H       0.0829    0.944   0.0731     H
O      0.08402   0.2273  0.61962     O
O      0.08402   0.7727  0.11962     O
C      0.08414   0.1776  0.83658     C
C      0.08414   0.8224  0.33658     C
C      0.08564   0.0098   0.0098     C
C      0.08564   0.9902   0.5098     C
H       0.0882   0.2559   0.5346     H
H       0.0882   0.7441   0.0346     H
C      0.09054   0.1854  0.88817     C
C      0.09054   0.8146  0.38817     C
H       0.0975    0.421   0.6918     H
H       0.0975    0.579   0.1918     H
H       0.1016   0.2713   0.7902     H
H       0.1016   0.7287   0.2902     H
C      0.10628   0.2765  0.82502     C
C      0.10628   0.7235  0.32502     C
H       0.1127   0.1747   0.1053     H
H       0.1127   0.8253   0.6053     H
H       0.1185   0.0029   0.5364     H
H       0.1185   0.9971   0.0364     H
C      0.11902   0.2948  0.92763     C
C      0.11902   0.7052  0.42763     C
H        0.123   0.3017    0.962     H
H        0.123   0.6983    0.462     H
C      0.13502   0.3817  0.86513     C
C      0.13502   0.6183  0.36513     C
H       0.1365   0.0814   0.3735     H
H       0.1365   0.9186   0.8735     H
C      0.14194   0.3947  0.91726     C
C      0.14194   0.6053  0.41726     C
H       0.1504   0.4462   0.8575     H
H       0.1504   0.5538   0.3575     H
H       0.1566   0.2451   0.3921     H
H       0.1566   0.7549   0.8921     H
H       0.1572   0.1601   0.4747     H
H       0.1572   0.8399   0.9747     H
H       0.1634   0.0145   0.9788     H
H       0.1634   0.9855   0.4788     H
C      0.16426   0.1405  0.39376     C
C      0.16426   0.8595  0.89376     C
O      0.17308   0.4687  0.50336     O
O      0.17308   0.5313  0.00336     O
C      0.17389   0.4907  0.46209     C
C      0.17389   0.5093  0.96209     C
C      0.17906   0.0802   0.4869     C
C      0.17906   0.9198   0.9869     C
N      0.18819   0.1176  0.36933     N
N      0.18819   0.8824  0.86933     N
H       0.1886    0.133   0.9345     H
H       0.1886    0.867   0.4345     H
H       0.1955   0.1067   0.8655     H
H       0.1955   0.8933   0.3655     H
N      0.19766   0.0896  0.45422     N
N      0.19766   0.9104  0.95422     N
O      0.19939   0.4227  0.45408     O
O      0.19939   0.5773  0.95408     O
H       0.2002   0.3332   0.3643     H
H       0.2002   0.6668   0.8643     H
H       0.2053   0.0894    0.572     H
H       0.2053   0.9106    0.072     H
C      0.21074   0.0563   0.9441     C
C      0.21074   0.9437   0.4441     C
C       0.2115   0.0278    0.894     C
C       0.2115   0.9722    0.394     C
C      0.21744   0.0931   0.5508     C
C      0.21744   0.9069   0.0508     C
C      0.21785   0.2414  0.37791     C
C      0.21785   0.7586  0.87791     C
H       0.2195    0.316   0.5529     H
H       0.2195    0.684   0.0529     H
H       0.2276   0.2232   0.3544     H
H       0.2276   0.7768   0.8544     H
H       0.2387   0.0107   0.5635     H
H       0.2387   0.9893   0.0635     H
H       0.2406   0.0877    0.978     H
H       0.2406   0.9123    0.478     H
N      0.24105   0.2368  0.56145     N
N      0.24105   0.7632  0.06145     N
H       0.2427   0.0231   0.9072     H
H       0.2427   0.9769   0.4072     H
Ni        0.25     0.25      0.5    Ni
Ni        0.25     0.75      0.0    Ni
H       0.2573   0.4769   0.0928     H
H       0.2573   0.5231   0.5928     H
N      0.25895   0.2632  0.43855     N
N      0.25895   0.7368  0.93855     N
H       0.2594   0.4123    0.022     H
H       0.2594   0.5877    0.522     H
H       0.2613   0.4893   0.4365     H
H       0.2613   0.5107   0.9365     H
H       0.2724   0.2768   0.6456     H
H       0.2724   0.7232   0.1456     H
H       0.2805    0.184   0.4471     H
H       0.2805    0.816   0.9471     H
C      0.28215   0.2586  0.62209     C
C      0.28215   0.7414  0.12209     C
C      0.28256   0.4069   0.4492     C
C      0.28256   0.5931   0.9492     C
C       0.2885   0.4722    0.106     C
C       0.2885   0.5278    0.606     C
C      0.28926   0.4437   0.0559     C
C      0.28926   0.5563   0.5559     C
H       0.2947   0.4106    0.428     H
H       0.2947   0.5894    0.928     H
H       0.2998   0.1668   0.6357     H
H       0.2998   0.8332   0.1357     H
O      0.30061   0.0773  0.54592     O
O      0.30061   0.9227  0.04592     O
N      0.30234   0.4104  0.54578     N
N      0.30234   0.5896  0.04578     N
H       0.3045   0.3933   0.1345     H
H       0.3045   0.6067   0.6345     H
H       0.3114    0.367   0.0655     H
H       0.3114    0.633   0.5655     H
N      0.31181   0.3824  0.63067     N
N      0.31181   0.6176  0.13067     N
C      0.32094   0.4198   0.5131     C
C      0.32094   0.5802   0.0131     C
C      0.32611   0.0093  0.53791     C
C      0.32611   0.9907  0.03791     C
O      0.32692   0.0313  0.49664     O
O      0.32692   0.9687  0.99664     O
C      0.33574   0.3595  0.60624     C
C      0.33574   0.6405  0.10624     C
H       0.3366   0.4855   0.0212     H
H       0.3366   0.5145   0.5212     H
H       0.3428   0.3399   0.5253     H
H       0.3428   0.6601   0.0253     H
H       0.3434   0.2549   0.6079     H
H       0.3434   0.7451   0.1079     H
H       0.3496   0.0538   0.1425     H
H       0.3496   0.9462   0.6425     H
C      0.35806   0.1053  0.08274     C
C      0.35806   0.8947  0.58274     C
H       0.3635   0.4186   0.6265     H
H       0.3635   0.5814   0.1265     H
C      0.36498   0.1183  0.13487     C
C      0.36498   0.8817  0.63487     C
H        0.377   0.1983    0.038     H
H        0.377   0.8017    0.538     H
C      0.38098   0.2052  0.07237     C
C      0.38098   0.7948  0.57237     C
H       0.3815   0.4971   0.4636     H
H       0.3815   0.5029   0.9636     H
H       0.3873   0.3253   0.8947     H
H       0.3873   0.6747   0.3947     H
C      0.39372   0.2235  0.17498     C
C      0.39372   0.7765  0.67498     C
H       0.3984   0.2287   0.2098     H
H       0.3984   0.7713   0.7098     H
H       0.4025    0.079   0.3082     H
H       0.4025    0.921   0.8082     H
C      0.40946   0.3146  0.11183     C
C      0.40946   0.6854  0.61183     C
H       0.4118   0.2441   0.4654     H
H       0.4118   0.7559   0.9654     H
C      0.41436   0.4902   0.9902     C
C      0.41436   0.5098   0.4902     C
C      0.41586   0.3224  0.16342     C
C      0.41586   0.6776  0.66342     C
O      0.41598   0.2727  0.38038     O
O      0.41598   0.7273  0.88038     O
H       0.4171    0.444   0.4269     H
H       0.4171    0.556   0.9269     H
H       0.4199   0.1069   0.7689     H
H       0.4199   0.8931   0.2689     H
H         0.42   0.1648    0.519     H
H         0.42   0.8352    0.019     H
C      0.42004   0.3324   0.9245     C
C      0.42004   0.6676   0.4245     C
H       0.4205   0.3971   0.0108     H
H       0.4205   0.6029   0.5108     H
H       0.4241   0.3818   0.1039     H
H       0.4241   0.6182   0.6039     H
H       0.4298   0.2491   0.9508     H
H       0.4298   0.7509   0.4508     H
C      0.43164     0.24   0.5072     C
C      0.43164     0.76   0.0072     C
N      0.43181   0.4766  0.95609     N
N      0.43181   0.5234  0.45609     N
H       0.4327   0.4066   0.8693     H
H       0.4327   0.5934   0.3693     H
C      0.43283   0.0617  0.32391     C
C      0.43283   0.9383  0.82391     C
N      0.43358   0.3883  0.53136     N
N      0.43358   0.6117  0.03136     N
H       0.4379   0.2324   0.8779     H
H       0.4379   0.7676   0.3779     H
C      0.44298   0.0495  0.79976     C
C      0.44298   0.9505  0.29976     C
O      0.44317   0.4285   0.2053     O
O      0.44317   0.5715   0.7053     O
C       0.4442   0.3272   0.8976     C
C       0.4442   0.6728   0.3976     C
H       0.4476   0.0036   0.1184     H
H       0.4476   0.9964   0.6184     H
H       0.4489   0.2236   0.7244     H
H       0.4489   0.4136    0.663     H
H       0.4489   0.5864    0.163     H
H       0.4489   0.7764   0.2244     H
H       0.4555     0.34   0.7693     H
H       0.4555     0.66   0.2693     H
C      0.45659   0.2562  0.39974     C
C      0.45659   0.7438  0.89974     C
H       0.4653   0.1807   0.0782     H
H       0.4653   0.8193   0.5782     H
C      0.46668    0.146  0.37034     C
C      0.46668    0.854  0.87034     C
C      0.46916    0.476  0.69667     C
C      0.46916    0.524  0.19667     C
C      0.47131   0.2796  0.75913     C
C      0.47131   0.7204  0.25913     C
C      0.47764   0.0163   0.1324     C
C      0.47764   0.9837   0.6324     C
C       0.4813   0.2017   0.5313     C
C       0.4813   0.7983   0.0313     C
C      0.48173   0.4037   0.5795     C
C      0.48173   0.5963   0.0795     C
H       0.4826   0.1715   0.5006     H
H       0.4826   0.8285   0.0006     H
H       0.4875   0.4645   0.1903     H
H       0.4875   0.5355   0.6903     H
C      0.48783    0.072  0.82254     C
C      0.48783    0.928  0.32254     C
C      0.48845   0.1229   0.1088     C
C      0.48845   0.8771   0.6088     C
H       0.4895   0.3461   0.6124     H
H       0.4895   0.6539   0.1124     H
H       0.4896   0.4923   0.0908     H
H       0.4896   0.5077   0.5908     H
O      0.48994   0.3236  0.44318     O
O      0.48994   0.6764  0.94318     O
H       0.4939   0.1226   0.5598     H
H       0.4939   0.8774   0.0598     H
N      0.49418   0.3449  0.94233     N
N      0.49418   0.6551  0.44233     N
O      0.49691   0.1804   0.6946     O
O      0.49691   0.8196   0.1946     O
C          0.5   0.3782     0.75     C
Ni         0.5      0.5      0.0    Ni
Ni         0.5      0.5      0.5    Ni
C          0.5   0.6218     0.25     C
O      0.50309   0.1804   0.8054     O
O      0.50309   0.8196   0.3054     O
N      0.50582   0.3449  0.55767     N
N      0.50582   0.6551  0.05767     N
H       0.5061   0.1226   0.9402     H
H       0.5061   0.8774   0.4402     H
O      0.51006   0.3236  0.05682     O
O      0.51006   0.6764  0.55682     O
H       0.5104   0.4923   0.4092     H
H       0.5104   0.5077   0.9092     H
H       0.5105   0.3461   0.8876     H
H       0.5105   0.6539   0.3876     H
C      0.51155   0.1229   0.3912     C
C      0.51155   0.8771   0.8912     C
C      0.51217    0.072  0.67746     C
C      0.51217    0.928  0.17746     C
H       0.5125   0.4645   0.3097     H
H       0.5125   0.5355   0.8097     H
H       0.5174   0.1715   0.9994     H
H       0.5174   0.8285   0.4994     H
C      0.51827   0.4037   0.9205     C
C      0.51827   0.5963   0.4205     C
C       0.5187   0.2017   0.9687     C
C       0.5187   0.7983   0.4687     C
C      0.52236   0.0163   0.3676     C
C      0.52236   0.9837   0.8676     C
C      0.52869   0.2796  0.74087     C
C      0.52869   0.7204  0.24087     C
C      0.53084    0.476  0.80333     C
C      0.53084    0.524  0.30333     C
C      0.53332    0.146  0.12966     C
C      0.53332    0.854  0.62966     C
H       0.5347   0.1807   0.4218     H
H       0.5347   0.8193   0.9218     H
C      0.54341   0.2562  0.10026     C
C      0.54341   0.7438  0.60026     C
H       0.5445     0.34   0.7307     H
H       0.5445     0.66   0.2307     H
H       0.5511   0.2236   0.7756     H
H       0.5511   0.4136    0.837     H
H       0.5511   0.5864    0.337     H
H       0.5511   0.7764   0.2756     H
H       0.5524   0.0036   0.3816     H
H       0.5524   0.9964   0.8816     H
C       0.5558   0.3272   0.6024     C
C       0.5558   0.6728   0.1024     C
O      0.55683   0.4285   0.2947     O
O      0.55683   0.5715   0.7947     O
C      0.55702   0.0495  0.70024     C
C      0.55702   0.9505  0.20024     C
H       0.5621   0.2324   0.6221     H
H       0.5621   0.7676   0.1221     H
N      0.56642   0.3883  0.96864     N
N      0.56642   0.6117  0.46864     N
C      0.56717   0.0617  0.17609     C
C      0.56717   0.9383  0.67609     C
H       0.5673   0.4066   0.6307     H
H       0.5673   0.5934   0.1307     H
N      0.56819   0.4766  0.54391     N
N      0.56819   0.5234  0.04391     N
C      0.56836     0.24   0.9928     C
C      0.56836     0.76   0.4928     C
H       0.5702   0.2491   0.5492     H
H       0.5702   0.7509   0.0492     H
H       0.5759   0.3818   0.3961     H
H       0.5759   0.6182   0.8961     H
H       0.5795   0.3971   0.4892     H
H       0.5795   0.6029   0.9892     H
C      0.57996   0.3324   0.5755     C
C      0.57996   0.6676   0.0755     C
H         0.58   0.1648    0.981     H
H         0.58   0.8352    0.481     H
H       0.5801   0.1069   0.7311     H
H       0.5801   0.8931   0.2311     H
H       0.5829    0.444   0.0731     H
H       0.5829    0.556   0.5731     H
O      0.58402   0.2727  0.11962     O
O      0.58402   0.7273  0.61962     O
C      0.58414   0.3224  0.33658     C
C      0.58414   0.6776  0.83658     C
C      0.58564   0.4902   0.5098     C
C      0.58564   0.5098   0.0098     C
H       0.5882   0.2441   0.0346     H
H       0.5882   0.7559   0.5346     H
C      0.59054   0.3146  0.38817     C
C      0.59054   0.6854  0.88817     C
H       0.5975    0.079   0.1918     H
H       0.5975    0.921   0.6918     H
H       0.6016   0.2287   0.2902     H
H       0.6016   0.7713   0.7902     H
C      0.60628   0.2235  0.32502     C
C      0.60628   0.7765  0.82502     C
H       0.6127   0.3253   0.6053     H
H       0.6127   0.6747   0.1053     H
H       0.6185   0.4971   0.0364     H
H       0.6185   0.5029   0.5364     H
C      0.61902   0.2052  0.42763     C
C      0.61902   0.7948  0.92763     C
H        0.623   0.1983    0.462     H
H        0.623   0.8017    0.962     H
C      0.63502   0.1183  0.36513     C
C      0.63502   0.8817  0.86513     C
H       0.6365   0.4186   0.8735     H
H       0.6365   0.5814   0.3735     H
C      0.64194   0.1053  0.41726     C
C      0.64194   0.8947  0.91726     C
H       0.6504   0.0538   0.3575     H
H       0.6504   0.9462   0.8575     H
H       0.6566   0.2549   0.8921     H
H       0.6566   0.7451   0.3921     H
H       0.6572   0.3399   0.9747     H
H       0.6572   0.6601   0.4747     H
H       0.6634   0.4855   0.4788     H
H       0.6634   0.5145   0.9788     H
C      0.66426   0.3595  0.89376     C
C      0.66426   0.6405  0.39376     C
O      0.67308   0.0313  0.00336     O
O      0.67308   0.9687  0.50336     O
C      0.67389   0.0093  0.96209     C
C      0.67389   0.9907  0.46209     C
C      0.67906   0.4198   0.9869     C
C      0.67906   0.5802   0.4869     C
N      0.68819   0.3824  0.86933     N
N      0.68819   0.6176  0.36933     N
H       0.6886    0.367   0.4345     H
H       0.6886    0.633   0.9345     H
H       0.6955   0.3933   0.3655     H
H       0.6955   0.6067   0.8655     H
N      0.69766   0.4104  0.95422     N
N      0.69766   0.5896  0.45422     N
O      0.69939   0.0773  0.95408     O
O      0.69939   0.9227  0.45408     O
H       0.7002   0.1668   0.8643     H
H       0.7002   0.8332   0.3643     H
H       0.7053   0.4106    0.072     H
H       0.7053   0.5894    0.572     H
C      0.71074   0.4437   0.4441     C
C      0.71074   0.5563   0.9441     C
C       0.7115   0.4722    0.394     C
C       0.7115   0.5278    0.894     C
C      0.71744   0.4069   0.0508     C
C      0.71744   0.5931   0.5508     C
C      0.71785   0.2586  0.87791     C
C      0.71785   0.7414  0.37791     C
H       0.7195    0.184   0.0529     H
H       0.7195    0.816   0.5529     H
H       0.7276   0.2768   0.8544     H
H       0.7276   0.7232   0.3544     H
H       0.7387   0.4893   0.0635     H
H       0.7387   0.5107   0.5635     H
H       0.7406   0.4123    0.478     H
H       0.7406   0.5877    0.978     H
N      0.74105   0.2632  0.06145     N
N      0.74105   0.7368  0.56145     N
H       0.7427   0.4769   0.4072     H
H       0.7427   0.5231   0.9072     H
Ni        0.75     0.25      0.0    Ni
Ni        0.75     0.75      0.5    Ni
H       0.7573   0.0231   0.5928     H
H       0.7573   0.9769   0.0928     H
N      0.75895   0.2368  0.93855     N
N      0.75895   0.7632  0.43855     N
H       0.7594   0.0877    0.522     H
H       0.7594   0.9123    0.022     H
H       0.7613   0.0107   0.9365     H
H       0.7613   0.9893   0.4365     H
H       0.7724   0.2232   0.1456     H
H       0.7724   0.7768   0.6456     H
H       0.7805    0.316   0.9471     H
H       0.7805    0.684   0.4471     H
C      0.78215   0.2414  0.12209     C
C      0.78215   0.7586  0.62209     C
C      0.78256   0.0931   0.9492     C
C      0.78256   0.9069   0.4492     C
C       0.7885   0.0278    0.606     C
C       0.7885   0.9722    0.106     C
C      0.78926   0.0563   0.5559     C
C      0.78926   0.9437   0.0559     C
H       0.7947   0.0894    0.928     H
H       0.7947   0.9106    0.428     H
H       0.7998   0.3332   0.1357     H
H       0.7998   0.6668   0.6357     H
O      0.80061   0.4227  0.04592     O
O      0.80061   0.5773  0.54592     O
N      0.80234   0.0896  0.04578     N
N      0.80234   0.9104  0.54578     N
H       0.8045   0.1067   0.6345     H
H       0.8045   0.8933   0.1345     H
H       0.8114    0.133   0.5655     H
H       0.8114    0.867   0.0655     H
N      0.81181   0.1176  0.13067     N
N      0.81181   0.8824  0.63067     N
C      0.82094   0.0802   0.0131     C
C      0.82094   0.9198   0.5131     C
C      0.82611   0.4907  0.03791     C
C      0.82611   0.5093  0.53791     C
O      0.82692   0.4687  0.99664     O
O      0.82692   0.5313  0.49664     O
C      0.83574   0.1405  0.10624     C
C      0.83574   0.8595  0.60624     C
H       0.8366   0.0145   0.5212     H
H       0.8366   0.9855   0.0212     H
H       0.8428   0.1601   0.0253     H
H       0.8428   0.8399   0.5253     H
H       0.8434   0.2451   0.1079     H
H       0.8434   0.7549   0.6079     H
H       0.8496   0.4462   0.6425     H
H       0.8496   0.5538   0.1425     H
C      0.85806   0.3947  0.58274     C
C      0.85806   0.6053  0.08274     C
H       0.8635   0.0814   0.1265     H
H       0.8635   0.9186   0.6265     H
C      0.86498   0.3817  0.63487     C
C      0.86498   0.6183  0.13487     C
H        0.877   0.3017    0.538     H
H        0.877   0.6983    0.038     H
C      0.88098   0.2948  0.57237     C
C      0.88098   0.7052  0.07237     C
H       0.8815   0.0029   0.9636     H
H       0.8815   0.9971   0.4636     H
H       0.8873   0.1747   0.3947     H
H       0.8873   0.8253   0.8947     H
C      0.89372   0.2765  0.67498     C
C      0.89372   0.7235  0.17498     C
H       0.8984   0.2713   0.7098     H
H       0.8984   0.7287   0.2098     H
H       0.9025    0.421   0.8082     H
H       0.9025    0.579   0.3082     H
C      0.90946   0.1854  0.61183     C
C      0.90946   0.8146  0.11183     C
H       0.9118   0.2559   0.9654     H
H       0.9118   0.7441   0.4654     H
C      0.91436   0.0098   0.4902     C
C      0.91436   0.9902   0.9902     C
C      0.91586   0.1776  0.66342     C
C      0.91586   0.8224  0.16342     C
O      0.91598   0.2273  0.88038     O
O      0.91598   0.7727  0.38038     O
H       0.9171    0.056   0.9269     H
H       0.9171    0.944   0.4269     H
H       0.9199   0.3931   0.2689     H
H       0.9199   0.6069   0.7689     H
H         0.92   0.3352    0.019     H
H         0.92   0.6648    0.519     H
C      0.92004   0.1676   0.4245     C
C      0.92004   0.8324   0.9245     C
H       0.9205   0.1029   0.5108     H
H       0.9205   0.8971   0.0108     H
H       0.9241   0.1182   0.6039     H
H       0.9241   0.8818   0.1039     H
H       0.9298   0.2509   0.4508     H
H       0.9298   0.7491   0.9508     H
C      0.93164     0.26   0.0072     C
C      0.93164     0.74   0.5072     C
N      0.93181   0.0234  0.45609     N
N      0.93181   0.9766  0.95609     N
H       0.9327   0.0934   0.3693     H
H       0.9327   0.9066   0.8693     H
C      0.93283   0.4383  0.82391     C
C      0.93283   0.5617  0.32391     C
N      0.93358   0.1117  0.03136     N
N      0.93358   0.8883  0.53136     N
H       0.9379   0.2676   0.3779     H
H       0.9379   0.7324   0.8779     H
C      0.94298   0.4505  0.29976     C
C      0.94298   0.5495  0.79976     C
O      0.94317   0.0715   0.7053     O
O      0.94317   0.9285   0.2053     O
C       0.9442   0.1728   0.3976     C
C       0.9442   0.8272   0.8976     C
H       0.9476   0.4964   0.6184     H
H       0.9476   0.5036   0.1184     H
H       0.9489   0.0864    0.163     H
H       0.9489   0.2764   0.2244     H
H       0.9489   0.7236   0.7244     H
H       0.9489   0.9136    0.663     H
H       0.9555     0.16   0.2693     H
H       0.9555     0.84   0.7693     H
C      0.95659   0.2438  0.89974     C
C      0.95659   0.7562  0.39974     C
H       0.9653   0.3193   0.5782     H
H       0.9653   0.6807   0.0782     H
C      0.96668    0.354  0.87034     C
C      0.96668    0.646  0.37034     C
C      0.96916    0.024  0.19667     C
C      0.96916    0.976  0.69667     C
C      0.97131   0.2204  0.25913     C
C      0.97131   0.7796  0.75913     C
C      0.97764   0.4837   0.6324     C
C      0.97764   0.5163   0.1324     C
C       0.9813   0.2983   0.0313     C
C       0.9813   0.7017   0.5313     C
C      0.98173   0.0963   0.0795     C
C      0.98173   0.9037   0.5795     C
H       0.9826   0.3285   0.0006     H
H       0.9826   0.6715   0.5006     H
H       0.9875   0.0355   0.6903     H
H       0.9875   0.9645   0.1903     H
C      0.98783    0.428  0.32254     C
C      0.98783    0.572  0.82254     C
C      0.98845   0.3771   0.6088     C
C      0.98845   0.6229   0.1088     C
H       0.9895   0.1539   0.1124     H
H       0.9895   0.8461   0.6124     H
H       0.9896   0.0077   0.5908     H
H       0.9896   0.9923   0.0908     H
O      0.98994   0.1764  0.94318     O
O      0.98994   0.8236  0.44318     O
H       0.9939   0.3774   0.0598     H
H       0.9939   0.6226   0.5598     H
N      0.99418   0.1551  0.44233     N
N      0.99418   0.8449  0.94233     N
O      0.99691   0.3196   0.1946     O
O      0.99691   0.6804   0.6946     O
