data_I
_chemical_name_common  '/home/zhangsd/repos/MofS-CGCNN/ML/data/SSD/clean_cifs/SAJJOF_clean'
_cell_length_a 11.42210
_cell_length_b 21.27420
_cell_length_c 19.06470
_cell_angle_alpha 90.00000
_cell_angle_beta  95.41920
_cell_angle_gamma 90.00000
_space_group_name_H-M_alt      'P 1'


loop_
_space_group_symop_operation_xyz
  'x, y, z' 

loop_
_atom_site_label
_atom_site_fract_x
_atom_site_fract_y
_atom_site_fract_z
_atom_site_type_symbol
C       0.0102   0.5683   0.5587     C
C       0.0102   0.9317   0.0587     C
O       0.0105  0.70547   0.0916     O
O       0.0105  0.79453   0.5916     O
C       0.0136  0.60512  0.67787     C
C       0.0136  0.89488  0.17787     C
C       0.0166  0.56267   0.0178     C
C       0.0166  0.93733   0.5178     C
H      0.02714  0.11511  0.78236     H
H      0.02714  0.38489  0.28236     H
H      0.02769  0.60569  0.03004     H
H      0.02769  0.89431  0.53004     H
C       0.0304  0.02203   0.4358     C
C       0.0304  0.47797   0.9358     C
H      0.03168  0.05304  0.98324     H
H      0.03168  0.44696  0.48324     H
C       0.0478  0.54083  0.95294     C
C       0.0478  0.95917  0.45294     C
C       0.0496  0.08273    0.884     C
C       0.0496  0.41727    0.384     C
H       0.0509  0.03726  0.39171     H
H       0.0509  0.46274  0.89171     H
H      0.08683   0.2188  0.89757     H
H      0.08683   0.2812  0.39757     H
C       0.0923   0.2412   0.4242     C
C       0.0923   0.2588   0.9242     C
N       0.0952  0.57803  0.83609     N
N       0.0952  0.92197  0.33609     N
H      0.10265    0.249  0.97512     H
H      0.10265    0.251  0.47512     H
C       0.1061  0.58233  0.90543     C
C       0.1061  0.91767  0.40543     C
H      0.11454  0.71902  0.59254     H
H      0.11454  0.78098  0.09254     H
C       0.1158   0.7367   0.0765     C
C       0.1158   0.7633   0.5765     C
H      0.12281  0.73638  0.02518     H
H      0.12281  0.76362  0.52518     H
C       0.1308   0.5758   0.5618     C
C       0.1308   0.9242   0.0618     C
C        0.135  0.61283   0.6815     C
C        0.135  0.88717   0.1815     C
H      0.17118  0.56633  0.52172     H
H      0.17118  0.93367  0.02172     H
H      0.17273  0.18241   0.3581     H
H      0.17273  0.31759   0.8581     H
C       0.1733  0.62347  0.81432     C
C       0.1733  0.87653  0.31432     C
C         0.18   0.0717   0.8837     C
C         0.18   0.4283   0.3837     C
N       0.1837  0.62702  0.93087     N
N       0.1837  0.87298  0.43087     N
C        0.193    0.597   0.6232     C
C        0.193    0.903   0.1232     C
C       0.1936   0.2034   0.4039     C
C       0.1936   0.2966   0.9039     C
C       0.1995  0.63936  0.74622     C
C       0.1995  0.86064  0.24622     C
H      0.20087  0.63717   0.9754     H
H      0.20087  0.86283   0.4754     H
H      0.20311  0.69815   0.1646     H
H      0.20311  0.80185   0.6646     H
C       0.2163   0.7029   0.1143     C
C       0.2163   0.7971   0.6143     C
O       0.2217  0.15763  0.45755     O
O       0.2217  0.34237  0.95755     O
H      0.22389  0.52392  0.08567     H
H      0.22389  0.97608  0.58567     H
O       0.2256  0.03535  0.93186     O
O       0.2256  0.46465  0.43186     O
O       0.2283  0.64293  0.08366     O
O       0.2283  0.85707  0.58366     O
C       0.2303  0.65346  0.87367     C
C       0.2303  0.84654  0.37367     C
O       0.2366  0.09456  0.83826     O
O       0.2366  0.40544  0.33826     O
H      0.26217  0.23106  0.39928     H
H      0.26217  0.26894  0.89928     H
H      0.26721  0.06801  0.53922     H
H      0.26721  0.43199  0.03922     H
H      0.27615  0.60074  0.62539     H
H      0.27615  0.89926  0.12539     H
C       0.2806   0.1045   0.4406     C
C       0.2806   0.3955   0.9406     C
H      0.28295    0.601  0.17421     H
H      0.28295    0.899  0.67421     H
C       0.2871  0.68414   0.7427     C
C       0.2871  0.81586   0.2427     C
H      0.28948  0.72737  0.11152     H
H      0.28948  0.77263  0.61152     H
C       0.2932   0.0593   0.4943     C
C       0.2932   0.4407   0.9943     C
C       0.3055   0.5398   0.0934     C
C       0.3055   0.9602   0.5934     C
C       0.3072   0.6036   0.1258     C
C       0.3072   0.8964   0.6258     C
H      0.30974  0.69532   0.6977     H
H      0.30974  0.80468   0.1977     H
H      0.31562  0.12477  0.34064     H
H      0.31562  0.37523  0.84064     H
C       0.3161  0.69998  0.86915     C
C       0.3161  0.80002  0.36915     C
C       0.3227   0.0936   0.3765     C
C       0.3227   0.4064   0.8765     C
C       0.3433  0.71348   0.8018     C
C       0.3433  0.78652   0.3018     C
H      0.34347  0.67862  0.40048     H
H      0.34347  0.82138  0.90048     H
C       0.3436   0.0021   0.4814     C
C       0.3436   0.4979   0.9814     C
H      0.35244   0.5101  0.12451     H
H      0.35244   0.9899  0.62451     H
O       0.3548  0.54601  0.02815     O
O       0.3548  0.95399  0.52815     O
C       0.3765  0.73127  0.93277     C
C       0.3765  0.76873  0.43277     C
C       0.3769   0.0352   0.3647     C
C       0.3769   0.4648   0.8647     C
C       0.3816  0.70335  0.43736     C
C       0.3816  0.79665  0.93736     C
Zn     0.38434  0.01347  0.91516    Zn
Zn     0.38434  0.48653  0.41516    Zn
C       0.3865   0.5096   0.9166     C
C       0.3865   0.9904   0.4166     C
H       0.3877  0.62129  0.12841     H
H       0.3877  0.87871  0.62841     H
O       0.3972  0.57302  0.45043     O
O       0.3972  0.92698  0.95043     O
H       0.4024  0.74384  0.79554     H
H       0.4024  0.75616  0.29554     H
H      0.42257  0.54876  0.90835     H
H      0.42257  0.95124  0.40835     H
H       0.4238  0.57274    0.798     H
H       0.4238  0.92726    0.298     H
C       0.4275  0.02388   0.2974     C
C       0.4275  0.47612   0.7974     C
H      0.42881  0.65215  0.98552     H
H      0.42881  0.84785  0.48552     H
C       0.4312  0.69675   0.9877     C
C       0.4312  0.80325   0.4877     C
C       0.4413  0.67389  0.49493     C
C       0.4413  0.82611  0.99493     C
H      0.44627  0.11478  0.26745     H
H      0.44627  0.38522  0.76745     H
C       0.4485   0.5373    0.773     C
C       0.4485   0.9627    0.273     C
C       0.4516  0.60357   0.4978     C
C       0.4516  0.89643   0.9978     C
H      0.45952  0.59472  0.33038     H
H      0.45952  0.90528  0.83038     H
H      0.45974   0.1896  0.91217     H
H      0.45974   0.3104  0.41217     H
N       0.4606  0.50149  0.32548     N
N       0.4606  0.99851  0.82548     N
C       0.4616   0.0725   0.2552     C
C       0.4616   0.4275   0.7552     C
H      0.47526  0.20141  0.41587     H
H      0.47526  0.29859  0.91587     H
H      0.48126  0.08731  0.80105     H
H      0.48126  0.41269  0.30105     H
C       0.4833   0.5602   0.3035     C
C       0.4833   0.9398   0.8035     C
O       0.4893  0.08012  0.95149     O
O       0.4893  0.41988  0.45149     O
C       0.4898  0.72601   0.0462     C
C       0.4898  0.77399   0.5462     C
C       0.4958   0.0455   0.7865     C
C       0.4958   0.4545   0.2865     C
C       0.4971  0.70959    0.549     C
C       0.4971  0.79041    0.049     C
C       0.5029  0.20959    0.951     C
C       0.5029  0.29041    0.451     C
C       0.5042   0.5455   0.7135     C
C       0.5042   0.9545   0.2135     C
C       0.5102  0.22601   0.4538     C
C       0.5102  0.27399   0.9538     C
O       0.5107  0.58012  0.54851     O
O       0.5107  0.91988  0.04851     O
C       0.5167   0.0602   0.1965     C
C       0.5167   0.4398   0.6965     C
H      0.51874  0.58731  0.69895     H
H      0.51874  0.91269  0.19895     H
H      0.52474  0.70141  0.08413     H
H      0.52474  0.79859  0.58413     H
C       0.5384   0.5725   0.2448     C
C       0.5384   0.9275   0.7448     C
N       0.5394  0.00149  0.17452     N
N       0.5394  0.49851  0.67452     N
H      0.54026   0.6896  0.58783     H
H      0.54026   0.8104  0.08783     H
H      0.54048  0.09472  0.16962     H
H      0.54048  0.40528  0.66962     H
C       0.5484  0.10357   0.0022     C
C       0.5484  0.39643   0.5022     C
C       0.5515   0.0373    0.727     C
C       0.5515   0.4627    0.227     C
H      0.55373  0.61478  0.23255     H
H      0.55373  0.88522  0.73255     H
C       0.5587  0.17389  0.00507     C
C       0.5587  0.32611  0.50507     C
C       0.5688  0.19675   0.5123     C
C       0.5688  0.30325   0.0123     C
H      0.57119  0.15215  0.51448     H
H      0.57119  0.34785  0.01448     H
C       0.5725  0.52388   0.2026     C
C       0.5725  0.97612   0.7026     C
H       0.5762  0.07274    0.702     H
H       0.5762  0.42726    0.202     H
H      0.57743  0.04876  0.59165     H
H      0.57743  0.45124  0.09165     H
H       0.5976  0.24384  0.70446     H
H       0.5976  0.25616  0.20446     H
O       0.6028  0.07302  0.04957     O
O       0.6028  0.42698  0.54957     O
H       0.6123  0.12129  0.37159     H
H       0.6123  0.37871  0.87159     H
C       0.6135   0.0096   0.5834     C
C       0.6135   0.4904   0.0834     C
Zn     0.61566  0.51347  0.58484    Zn
Zn     0.61566  0.98653  0.08484    Zn
C       0.6184  0.20335  0.06264     C
C       0.6184  0.29665  0.56264     C
C       0.6231   0.5352   0.1353     C
C       0.6231   0.9648   0.6353     C
C       0.6235  0.23127  0.56723     C
C       0.6235  0.26873  0.06723     C
O       0.6452  0.04601  0.47185     O
O       0.6452  0.45399  0.97185     O
H      0.64756   0.0101  0.37549     H
H      0.64756   0.4899  0.87549     H
C       0.6564   0.5021   0.0186     C
C       0.6564   0.9979   0.5186     C
H      0.65653  0.17862  0.09952     H
H      0.65653  0.32138  0.59952     H
C       0.6567  0.21348   0.6982     C
C       0.6567  0.28652   0.1982     C
C       0.6773   0.5936   0.1235     C
C       0.6773   0.9064   0.6235     C
C       0.6839  0.19998  0.63085     C
C       0.6839  0.30002  0.13085     C
H      0.68438  0.62477  0.15936     H
H      0.68438  0.87523  0.65936     H
H      0.69026  0.19532   0.8023     H
H      0.69026  0.30468   0.3023     H
C       0.6928   0.1036   0.3742     C
C       0.6928   0.3964   0.8742     C
C       0.6945   0.0398   0.4066     C
C       0.6945   0.4602   0.9066     C
C       0.7068   0.5593   0.0057     C
C       0.7068   0.9407   0.5057     C
H      0.71052  0.22737  0.38848     H
H      0.71052  0.27263  0.88848     H
C       0.7129  0.18414   0.7573     C
C       0.7129  0.31586   0.2573     C
H      0.71705    0.101  0.32579     H
H      0.71705    0.399  0.82579     H
C       0.7194   0.6045   0.0594     C
C       0.7194   0.8955   0.5594     C
H      0.72385  0.10074  0.87461     H
H      0.72385  0.39926  0.37461     H
H      0.73279  0.56801  0.96078     H
H      0.73279  0.93199  0.46078     H
H      0.73783  0.73106  0.10072     H
H      0.73783  0.76894  0.60072     H
O       0.7634  0.59456  0.66174     O
O       0.7634  0.90544  0.16174     O
C       0.7697  0.15346  0.62633     C
C       0.7697  0.34654  0.12633     C
O       0.7717  0.14293  0.41634     O
O       0.7717  0.35707  0.91634     O
O       0.7744  0.53535  0.56814     O
O       0.7744  0.96465  0.06814     O
H      0.77611  0.02392  0.41433     H
H      0.77611  0.47608  0.91433     H
O       0.7783  0.65763  0.04245     O
O       0.7783  0.84237  0.54245     O
C       0.7837   0.2029   0.3857     C
C       0.7837   0.2971   0.8857     C
H      0.79689  0.19815   0.3354     H
H      0.79689  0.30185   0.8354     H
H      0.79913  0.13717   0.5246     H
H      0.79913  0.36283   0.0246     H
C       0.8005  0.13936  0.75378     C
C       0.8005  0.36064  0.25378     C
C       0.8064   0.7034   0.0961     C
C       0.8064   0.7966   0.5961     C
C        0.807    0.097   0.8768     C
C        0.807    0.403   0.3768     C
N       0.8163  0.12702  0.56913     N
N       0.8163  0.37298  0.06913     N
C         0.82   0.5717   0.6163     C
C         0.82   0.9283   0.1163     C
C       0.8267  0.12347  0.68568     C
C       0.8267  0.37653  0.18568     C
H      0.82727  0.68241   0.1419     H
H      0.82727  0.81759   0.6419     H
H      0.82882  0.06633  0.97828     H
H      0.82882  0.43367  0.47828     H
C        0.865  0.11283   0.8185     C
C        0.865  0.38717   0.3185     C
C       0.8692   0.0758   0.9382     C
C       0.8692   0.4242   0.4382     C
H      0.87719  0.23638  0.47482     H
H      0.87719  0.26362  0.97482     H
C       0.8842   0.2367   0.4235     C
C       0.8842   0.2633   0.9235     C
H      0.88546  0.21902  0.90746     H
H      0.88546  0.28098  0.40746     H
C       0.8939  0.08233  0.59457     C
C       0.8939  0.41767  0.09457     C
H      0.89735    0.749  0.52488     H
H      0.89735    0.751  0.02488     H
N       0.9048  0.07803  0.66391     N
N       0.9048  0.42197  0.16391     N
C       0.9077   0.7412   0.0758     C
C       0.9077   0.7588   0.5758     C
H      0.91317   0.7188  0.60243     H
H      0.91317   0.7812  0.10243     H
H       0.9491  0.53726  0.10829     H
H       0.9491  0.96274  0.60829     H
C       0.9504  0.58273    0.616     C
C       0.9504  0.91727    0.116     C
C       0.9522  0.04083  0.54706     C
C       0.9522  0.45917  0.04706     C
H      0.96832  0.55304  0.51676     H
H      0.96832  0.94696  0.01676     H
C       0.9696  0.52203   0.0642     C
C       0.9696  0.97797   0.5642     C
H      0.97231  0.10569  0.46996     H
H      0.97231  0.39431  0.96996     H
H      0.97286  0.61511  0.71764     H
H      0.97286  0.88489  0.21764     H
C       0.9834  0.06267   0.4822     C
C       0.9834  0.43733   0.9822     C
C       0.9864  0.10512  0.82213     C
C       0.9864  0.39488  0.32213     C
O       0.9895  0.20547   0.4084     O
O       0.9895  0.29453   0.9084     O
C       0.9898   0.0683   0.9413     C
C       0.9898   0.4317   0.4413     C
