data_I
_chemical_name_common  '/home/zhangsd/repos/MofS-CGCNN/ML/data/SSD/clean_cifs/SERWAP_clean'
_cell_length_a 15.15130
_cell_length_b 22.04400
_cell_length_c 22.04400
_cell_angle_alpha 90.00000
_cell_angle_beta  90.00000
_cell_angle_gamma 90.00000
_space_group_name_H-M_alt      'P 1'


loop_
_space_group_symop_operation_xyz
  'x, y, z' 

loop_
_atom_site_label
_atom_site_fract_x
_atom_site_fract_y
_atom_site_fract_z
_atom_site_type_symbol
Zn     0.00054      0.0      0.0    Zn
H       0.0048   0.0017   0.4192     H
H       0.0048   0.4192   0.9983     H
H       0.0048   0.5808   0.0017     H
H       0.0048   0.9983   0.5808     H
H       0.0166   0.1364   0.6262     H
H       0.0166   0.3738   0.1364     H
H       0.0166   0.6262   0.8636     H
H       0.0166   0.8636   0.3738     H
C       0.0215   0.1092   0.6618     C
C       0.0215   0.3382   0.1092     C
C       0.0215   0.6618   0.8908     C
C       0.0215   0.8908   0.3382     C
C       0.0233   0.1739   0.5053     C
C       0.0233   0.4947   0.1739     C
C       0.0233   0.5053   0.8261     C
C       0.0233   0.8261   0.4947     C
H       0.0275   0.0302   0.3173     H
H       0.0275   0.3173   0.9698     H
H       0.0275   0.6827   0.0302     H
H       0.0275   0.9698   0.6827     H
H       0.0403   0.1431   0.5352     H
H       0.0403   0.4648   0.1431     H
H       0.0403   0.5352   0.8569     H
H       0.0403   0.8569   0.4648     H
C       0.0462   0.3379   0.3944     C
C       0.0462   0.3944   0.6621     C
C       0.0462   0.6056   0.3379     C
C       0.0462   0.6621   0.6056     C
C       0.0468   0.0113   0.6741     C
C       0.0468   0.3259   0.0113     C
C       0.0468   0.6741   0.9887     C
C       0.0468   0.9887   0.3259     C
C       0.0475   0.3831   0.4383     C
C       0.0475   0.4383   0.6169     C
C       0.0475   0.5617   0.3831     C
C       0.0475   0.6169   0.5617     C
C       0.0541   0.1161   0.1567     C
C       0.0541   0.1567   0.8839     C
C       0.0541   0.8433   0.1161     C
C       0.0541   0.8839   0.8433     C
C       0.0551   0.0709   0.1113     C
C       0.0551   0.1113   0.9291     C
C       0.0551   0.8887   0.0709     C
C       0.0551   0.9291   0.8887     C
H       0.0555   0.1309   0.3753     H
H       0.0555   0.3753   0.8691     H
H       0.0555   0.6247   0.1309     H
H       0.0555   0.8691   0.6247     H
H       0.0683   0.0302   0.7116     H
H       0.0683   0.2884   0.0302     H
H       0.0683   0.7116   0.9698     H
H       0.0683   0.9698   0.2884     H
H        0.076    0.196    0.492     H
H        0.076    0.492    0.804     H
H        0.076    0.508    0.196     H
H        0.076    0.804    0.508     H
H       0.0845   0.1031   0.6718     H
H       0.0845   0.3282   0.1031     H
H       0.0845   0.6718   0.8969     H
H       0.0845   0.8969   0.3282     H
H       0.0883    0.306   0.3957     H
H       0.0883   0.3957    0.694     H
H       0.0883   0.6043    0.306     H
H       0.0883    0.694   0.6043     H
H       0.0905   0.3822   0.4696     H
H       0.0905   0.4696   0.6178     H
H       0.0905   0.5304   0.3822     H
H       0.0905   0.6178   0.5304     H
H       0.0944   0.0105    0.644     H
H       0.0944    0.356   0.0105     H
H       0.0944    0.644   0.9895     H
H       0.0944   0.9895    0.356     H
H       0.0957    0.115   0.1889     H
H       0.0957   0.1889    0.885     H
H       0.0957   0.8111    0.115     H
H       0.0957    0.885   0.8111     H
H       0.0993   0.0403    0.113     H
H       0.0993    0.113   0.9597     H
H       0.0993    0.887   0.0403     H
H       0.0993   0.9597    0.887     H
F       0.1226      0.5      0.5     F
F       0.1421      0.0      0.0     F
F        0.232   0.4273   0.5026     F
F        0.232   0.4974   0.4273     F
F        0.232   0.5026   0.5727     F
F        0.232   0.5727   0.4974     F
Si       0.237      0.5      0.5    Si
Si      0.2488      0.0      0.0    Si
F       0.2515   0.0095   0.9277     F
F       0.2515   0.0723   0.0095     F
F       0.2515   0.9277   0.9905     F
F       0.2515   0.9905   0.0723     F
F       0.3472      0.5      0.5     F
F       0.3669      0.0      0.0     F
H       0.3829   0.1857   0.5099     H
H       0.3829   0.4901   0.1857     H
H       0.3829   0.5099   0.8143     H
H       0.3829   0.8143   0.4901     H
H       0.3847   0.3908    0.457     H
H       0.3847    0.457   0.6092     H
H       0.3847    0.543   0.3908     H
H       0.3847   0.6092    0.543     H
H       0.3876   0.3117   0.3887     H
H       0.3876   0.3887   0.6883     H
H       0.3876   0.6113   0.3117     H
H       0.3876   0.6883   0.6113     H
H       0.3901   0.0117   0.3347     H
H       0.3901   0.3347   0.9883     H
H       0.3901   0.6653   0.0117     H
H       0.3901   0.9883   0.6653     H
H       0.3973   0.1027   0.1944     H
H       0.3973   0.1944   0.8973     H
H       0.3973   0.8056   0.1027     H
H       0.3973   0.8973   0.8056     H
H       0.3981   0.0305   0.1166     H
H       0.3981   0.1166   0.9695     H
H       0.3981   0.8834   0.0305     H
H       0.3981   0.9695   0.8834     H
H       0.4045   0.1652   0.6121     H
H       0.4045   0.3879   0.1652     H
H       0.4045   0.6121   0.8348     H
H       0.4045   0.8348   0.3879     H
C       0.4297   0.3436   0.3862     C
C       0.4297   0.3862   0.6564     C
C       0.4297   0.6138   0.3436     C
C       0.4297   0.6564   0.6138     C
C       0.4311   0.3898    0.428     C
C       0.4311    0.428   0.6102     C
C       0.4311    0.572   0.3898     C
C       0.4311   0.6102    0.572     C
C       0.4405   0.1049   0.1632     C
C       0.4405   0.1632   0.8951     C
C       0.4405   0.8368   0.1049     C
C       0.4405   0.8951   0.8368     C
C        0.441   0.0619    0.117     C
C        0.441    0.117   0.9381     C
C        0.441    0.883   0.0619     C
C        0.441   0.9381    0.883     C
H       0.4442   0.1265   0.3681     H
H       0.4442   0.3681   0.8735     H
H       0.4442   0.6319   0.1265     H
H       0.4442   0.8735   0.6319     H
C       0.4463    0.187   0.5011     C
C       0.4463   0.4989    0.187     C
C       0.4463   0.5011    0.813     C
C       0.4463    0.813   0.4989     C
H       0.4488   0.0137   0.2744     H
H       0.4488   0.2744   0.9863     H
H       0.4488   0.7256   0.0137     H
H       0.4488   0.9863   0.7256     H
C       0.4492   0.0048   0.3179     C
C       0.4492   0.3179   0.9952     C
C       0.4492   0.6821   0.0048     C
C       0.4492   0.9952   0.6821     C
H       0.4567   0.1721   0.4598     H
H       0.4567   0.4598   0.8279     H
H       0.4567   0.5402   0.1721     H
H       0.4567   0.8279   0.5402     H
H       0.4662   0.0376   0.6756     H
H       0.4662   0.3244   0.0376     H
H       0.4662   0.6756   0.9624     H
H       0.4662   0.9624   0.3244     H
H       0.4676   0.2288   0.5045     H
H       0.4676   0.4955   0.2288     H
H       0.4676   0.5045   0.7712     H
H       0.4676   0.7712   0.4955     H
C        0.469   0.1582   0.6103     C
C        0.469   0.3897   0.1582     C
C        0.469   0.6103   0.8418     C
C        0.469   0.8418   0.3897     C
H       0.4834   0.1231   0.6366     H
H       0.4834   0.3634   0.1231     H
H       0.4834   0.6366   0.8769     H
H       0.4834   0.8769   0.3634     H
H       0.4843   0.2264   0.3546     H
H       0.4843   0.3546   0.7736     H
H       0.4843   0.6454   0.2264     H
H       0.4843   0.7736   0.6454     H
Zn     0.48711      0.5      0.5    Zn
C       0.4883   0.2351   0.3124     C
C       0.4883   0.3124   0.7649     C
C       0.4883   0.6876   0.2351     C
C       0.4883   0.7649   0.6876     C
C       0.4902   0.1881   0.2705     C
C       0.4902   0.2705   0.8119     C
C       0.4902   0.7295   0.1881     C
C       0.4902   0.8119   0.7295     C
O       0.4906   0.0791   0.5302     O
O       0.4906   0.4698   0.0791     O
O       0.4906   0.5302   0.9209     O
O       0.4906   0.9209   0.4698     O
N       0.4908   0.4315   0.5673     N
N       0.4908   0.4327   0.4315     N
N       0.4908   0.5673   0.5685     N
N       0.4908   0.5685   0.4327     N
C       0.4923   0.2928    0.705     C
C       0.4923    0.295   0.2928     C
C       0.4923    0.705   0.7072     C
C       0.4923   0.7072    0.295     C
C       0.4931   0.3396   0.6547     C
C       0.4931   0.3453   0.3396     C
C       0.4931   0.6547   0.6604     C
C       0.4931   0.6604   0.3453     C
C       0.4961   0.2009   0.2089     C
C       0.4961   0.2089   0.7991     C
C       0.4961   0.7911   0.2009     C
C       0.4961   0.7991   0.7911     C
C       0.4967   0.1459   0.5472     C
C       0.4967   0.4528   0.1459     C
C       0.4967   0.5472   0.8541     C
C       0.4967   0.8541   0.4528     C
C       0.4982   0.2312   0.6922     C
C       0.4982   0.3078   0.2312     C
C       0.4982   0.6922   0.7688     C
C       0.4982   0.7688   0.3078     C
O          0.5   0.1299   0.2855     O
O          0.5   0.2855   0.8701     O
O          0.5   0.7145   0.1299     O
O          0.5   0.8701   0.7145     O
C       0.5001   0.1892   0.7392     C
C       0.5001   0.2608   0.1892     C
C       0.5001   0.7392   0.8108     C
C       0.5001   0.8108   0.2608     C
C       0.5006    0.115   0.3486     C
C       0.5006   0.3486    0.885     C
C       0.5006   0.6514    0.115     C
C       0.5006    0.885   0.6514     C
Zn     0.50239      0.0      0.0    Zn
C       0.5032   0.1509   0.1638     C
C       0.5032   0.1638   0.8491     C
C       0.5032   0.8362   0.1509     C
C       0.5032   0.8491   0.8362     C
H       0.5041   0.1471   0.7305     H
H       0.5041   0.2695   0.1471     H
H       0.5041   0.7305   0.8529     H
H       0.5041   0.8529   0.2695     H
N       0.5042   0.0651   0.0714     N
N       0.5042   0.0714   0.9349     N
N       0.5042   0.9286   0.0651     N
N       0.5042   0.9349   0.9286     N
O       0.5086   0.0337   0.4145     O
O       0.5086   0.4145   0.9663     O
O       0.5086   0.5855   0.0337     O
O       0.5086   0.9663   0.5855     O
C       0.5131   0.0451   0.3487     C
C       0.5131   0.3487   0.9549     C
C       0.5131   0.6513   0.0451     C
C       0.5131   0.9549   0.6513     C
O       0.5172   0.2131   0.6315     O
O       0.5172   0.3685   0.2131     O
O       0.5172   0.6315   0.7869     O
O       0.5172   0.7869   0.3685     O
H       0.5207   0.0585   0.5547     H
H       0.5207   0.4453   0.0585     H
H       0.5207   0.5547   0.9415     H
H       0.5207   0.9415   0.4453     H
H       0.5311   0.0631   0.4332     H
H       0.5311   0.4332   0.9369     H
H       0.5311   0.5668   0.0631     H
H       0.5311   0.9369   0.5668     H
H       0.5498   0.1355   0.3698     H
H       0.5498   0.3698   0.8645     H
H       0.5498   0.6302   0.1355     H
H       0.5498   0.8645   0.6302     H
C       0.5515   0.3868   0.5674     C
C       0.5515   0.4326   0.3868     C
C       0.5515   0.5674   0.6132     C
C       0.5515   0.6132   0.4326     C
C       0.5556   0.3425   0.6073     C
C       0.5556   0.3927   0.3425     C
C       0.5556   0.6073   0.6575     C
C       0.5556   0.6575   0.3927     C
H       0.5605   0.1573   0.5444     H
H       0.5605   0.4556   0.1573     H
H       0.5605   0.5444   0.8427     H
H       0.5605   0.8427   0.4556     H
C       0.5664   0.1182    0.846     C
C       0.5664    0.154   0.1182     C
C       0.5664    0.846   0.8818     C
C       0.5664   0.8818    0.154     C
C       0.5669    0.072   0.8889     C
C       0.5669   0.1111    0.072     C
C       0.5669   0.8889    0.928     C
C       0.5669    0.928   0.1111     C
H       0.5739   0.0353    0.334     H
H       0.5739    0.334   0.9647     H
H       0.5739    0.666   0.0353     H
H       0.5739   0.9647    0.666     H
H       0.5947   0.3873   0.5362     H
H       0.5947   0.4638   0.3873     H
H       0.5947   0.5362   0.6127     H
H       0.5947   0.6127   0.4638     H
H       0.6005   0.3126   0.6043     H
H       0.6005   0.3957   0.3126     H
H       0.6005   0.6043   0.6874     H
H       0.6005   0.6874   0.3957     H
H       0.6092   0.1186   0.8145     H
H       0.6092   0.1855   0.1186     H
H       0.6092   0.8145   0.8814     H
H       0.6092   0.8814   0.1855     H
H       0.6101   0.0408   0.8868     H
H       0.6101   0.1132   0.0408     H
H       0.6101   0.8868   0.9592     H
H       0.6101   0.9592   0.1132     H
F        0.624      0.5      0.5     F
F       0.6336      0.0      0.0     F
Si      0.7371      0.5      0.5    Si
F       0.7405  0.42654   0.4831     F
F       0.7405   0.4831  0.57346     F
F       0.7405   0.5169  0.42654     F
F       0.7405  0.57346   0.5169     F
Si       0.752      0.0      0.0    Si
F       0.7533  0.01903  0.07321     F
F       0.7533  0.07321  0.98097     F
F       0.7533  0.92679  0.01903     F
F       0.7533  0.98097  0.92679     F
F       0.8509      0.5      0.5     F
F       0.8611      0.0      0.0     F
H       0.8785   0.3153   0.6131     H
H       0.8785   0.3869   0.3153     H
H       0.8785   0.6131   0.6847     H
H       0.8785   0.6847   0.3869     H
H       0.8807   0.3892   0.5369     H
H       0.8807   0.4631   0.3892     H
H       0.8807   0.5369   0.6108     H
H       0.8807   0.6108   0.4631     H
H       0.8853   0.1066   0.8144     H
H       0.8853   0.1856   0.1066     H
H       0.8853   0.8144   0.8934     H
H       0.8853   0.8934   0.1856     H
H       0.8946   0.0362   0.8895     H
H       0.8946   0.1105   0.0362     H
H       0.8946   0.8895   0.9638     H
H       0.8946   0.9638   0.1105     H
H       0.9107   0.0392   0.6645     H
H       0.9107   0.3355   0.0392     H
H       0.9107   0.6645   0.9608     H
H       0.9107   0.9608   0.3355     H
H       0.9186    0.158   0.4547     H
H       0.9186   0.4547    0.842     H
H       0.9186   0.5453    0.158     H
H       0.9186    0.842   0.5453     H
C       0.9215   0.3466   0.6141     C
C       0.9215   0.3859   0.3466     C
C       0.9215   0.6141   0.6534     C
C       0.9215   0.6534   0.3859     C
C       0.9229   0.3905   0.5688     C
C       0.9229   0.4312   0.3905     C
C       0.9229   0.5688   0.6095     C
C       0.9229   0.6095   0.4312     C
H       0.9304   0.0649   0.4546     H
H       0.9304   0.4546   0.9351     H
H       0.9304   0.5454   0.0649     H
H       0.9304   0.9351   0.5454     H
C        0.932    0.109   0.8431     C
C        0.932   0.1569    0.109     C
C        0.932   0.8431    0.891     C
C        0.932    0.891   0.1569     C
C       0.9375   0.0676   0.8882     C
C       0.9375   0.1118   0.0676     C
C       0.9375   0.8882   0.9324     C
C       0.9375   0.9324   0.1118     C
H       0.9512   0.1281   0.3625     H
H       0.9512   0.3625   0.8719     H
H       0.9512   0.6375   0.1281     H
H       0.9512   0.8719   0.6375     H
H       0.9691   0.2296   0.6474     H
H       0.9691   0.3526   0.2296     H
H       0.9691   0.6474   0.7704     H
H       0.9691   0.7704   0.3526     H
C       0.9725   0.0463   0.6503     C
O       0.9725   0.1321    0.713     O
O       0.9725    0.287   0.1321     O
C       0.9725   0.3497   0.0463     C
C       0.9725   0.6503   0.9537     C
O       0.9725    0.713   0.8679     O
O       0.9725   0.8679    0.287     O
C       0.9725   0.9537   0.3497     C
O       0.9735   0.0815   0.4719     O
O       0.9735   0.4719   0.9185     O
O       0.9735   0.5281   0.0815     O
O       0.9735   0.9185   0.5281     O
C       0.9777   0.2379   0.6893     C
C       0.9777   0.3107   0.2379     C
C       0.9777   0.6893   0.7621     C
C       0.9777   0.7621   0.3107     C
C        0.981   0.1435   0.4515     C
C        0.981   0.4515   0.8565     C
C        0.981   0.5485   0.1435     C
C        0.981   0.8565   0.5485     C
C       0.9811   0.1919   0.7289     C
C       0.9811   0.2711   0.1919     C
C       0.9811   0.7289   0.8081     C
C       0.9811   0.8081   0.2711     C
H       0.9814   0.2022   0.5237     H
H       0.9814   0.4763   0.2022     H
H       0.9814   0.5237   0.7978     H
H       0.9814   0.7978   0.4763     H
C       0.9832   0.3393   0.3485     C
C       0.9832   0.3485   0.6607     C
C       0.9832   0.6515   0.3393     C
C       0.9832   0.6607   0.6515     C
Zn     0.98571      0.5      0.5    Zn
N       0.9858  0.42979  0.43633     N
N       0.9858  0.43633  0.57021     N
N       0.9858  0.56367  0.42979     N
N       0.9858  0.57021  0.56367     N
C       0.9864   0.2916   0.2974     C
C       0.9864   0.2974   0.7084     C
C       0.9864   0.7026   0.2916     C
C       0.9864   0.7084   0.7026     C
C        0.987   0.2318   0.3112     C
C        0.987   0.3112   0.7682     C
C        0.987   0.6888   0.2318     C
C        0.987   0.7682   0.6888     C
C       0.9911   0.2008    0.792     C
C       0.9911    0.208   0.2008     C
C       0.9911    0.792   0.7992     C
C       0.9911   0.7992    0.208     C
C       0.9913   0.1875   0.2633     C
C       0.9913   0.2633   0.8125     C
C       0.9913   0.7367   0.1875     C
C       0.9913   0.8125   0.7367     C
C       0.9927    0.154   0.8384     C
C       0.9927   0.1616    0.154     C
C       0.9927   0.8384    0.846     C
C       0.9927    0.846   0.1616     C
H       0.9943   0.1455   0.2725     H
H       0.9943   0.2725   0.8545     H
H       0.9943   0.7275   0.1455     H
H       0.9943   0.8545   0.7275     H
C       0.9979   0.1493   0.3857     C
C       0.9979   0.3857   0.8507     C
C       0.9979   0.6143   0.1493     C
C       0.9979   0.8507   0.6143     C
O       0.9982   0.2155   0.3706     O
O       0.9982   0.3706   0.7845     O
O       0.9982   0.6294   0.2155     O
O       0.9982   0.7845   0.6294     O
O        0.999   0.0358   0.5868     O
O        0.999   0.4132   0.0358     O
O        0.999   0.5868   0.9642     O
O        0.999   0.9642   0.4132     O
N       0.9992   0.0682   0.9304     N
N       0.9992   0.0696   0.0682     N
N       0.9992   0.9304   0.9318     N
N       0.9992   0.9318   0.0696     N
