data_I
_chemical_name_common  '/home/zhangsd/repos/MofS-CGCNN/ML/data/SSD/clean_cifs/SETWUL_clean'
_cell_length_a 10.54900
_cell_length_b 10.84200
_cell_length_c 13.80000
_cell_angle_alpha 87.13500
_cell_angle_beta  72.42800
_cell_angle_gamma 66.41200
_space_group_name_H-M_alt      'P 1'


loop_
_space_group_symop_operation_xyz
  'x, y, z' 

loop_
_atom_site_label
_atom_site_fract_x
_atom_site_fract_y
_atom_site_fract_z
_atom_site_type_symbol
H       0.0068   0.7712   0.6738     H
Mo     0.01004  0.22915   0.0175    Mo
Mo     0.02505   0.5014  0.86601    Mo
C       0.0443   0.8946   0.5605     C
C       0.0905   0.0002   0.4022     C
C        0.092   0.7775   0.6254     C
O       0.0936    0.602   0.0822     O
O       0.1236   0.3844   0.9949     O
O       0.1291   0.6031   0.8923     O
H       0.1323   0.0265    0.249     H
C       0.1375   0.8932   0.4634     C
H       0.1459   0.6939   0.5819     H
N       0.1609   0.9199   0.7164     N
O       0.1645   0.1591    0.894     O
O       0.1772   0.3687   0.7905     O
N       0.1799   0.6319   0.3869     N
N       0.1836   0.7949   0.6809     N
C       0.1894   0.9984   0.2958     C
C       0.2325   0.5288   0.3167     C
C       0.2552    0.893    0.766     C
H       0.2613    0.907   0.2733     H
N       0.2632   0.0879   0.2935     N
H       0.2657   0.9597   0.7986     H
Mo     0.28144  0.48368  0.98483    Mo
C       0.2876   0.7828    0.427     C
C       0.2889    0.701   0.7114     C
N       0.2922   0.1168   0.3768     N
N        0.295    0.674   0.3631     N
H       0.3174   0.1386   0.1478     H
H        0.318   0.7452   0.4855     H
C       0.3221   0.1448   0.2135     C
H        0.323   0.6085   0.6963     H
Mo     0.32442  0.20912  0.86873    Mo
N       0.3381   0.7571   0.7657     N
H       0.3547   0.8208   0.3881     H
O       0.3548   0.3907   0.0738     O
C       0.3671   0.1896   0.3415     C
O       0.3697   0.5883   0.9464     O
N       0.3773   0.4949   0.2581     N
O       0.3775   0.3598   0.8699     O
N       0.3872     0.21   0.2423     N
H       0.4035   0.2243   0.3818     H
C       0.4066   0.5851   0.2947     C
Co     0.49638  0.68178  0.84207    Co
H       0.4986   0.5864   0.2742     H
H       0.5014   0.4136   0.7258     H
Co     0.50362  0.31822  0.15793    Co
C       0.5934   0.4149   0.7053     C
H       0.5965   0.7757   0.6182     H
N       0.6128     0.79   0.7577     N
O       0.6225   0.6402   0.1301     O
N       0.6227   0.5051   0.7419     N
O       0.6303   0.4117   0.0536     O
C       0.6329   0.8104   0.6585     C
O       0.6452   0.6093   0.9262     O
H       0.6453   0.1792   0.6119     H
N       0.6619   0.2429   0.2343     N
Mo     0.67558  0.79088  0.13127    Mo
H        0.677   0.3915   0.3037     H
C       0.6779   0.8552   0.7865     C
H        0.682   0.2548   0.5145     H
H       0.6826   0.8614   0.8522     H
N        0.705    0.326   0.6369     N
N       0.7078   0.8832   0.6232     N
C       0.7111    0.299   0.2886     C
C       0.7124   0.2172    0.573     C
Mo     0.71856  0.51632  0.01517    Mo
H       0.7343   0.0403   0.2014     H
N       0.7368   0.9121   0.7065     N
H       0.7387    0.093   0.7267     H
C       0.7448    0.107    0.234     C
C       0.7675   0.4712   0.6833     C
C       0.8106   0.0016   0.7042     C
N       0.8164   0.2051   0.3191     N
N       0.8201   0.3681   0.6131     N
O       0.8228   0.6313   0.2095     O
O       0.8355   0.8409    0.106     O
N       0.8391   0.0801   0.2836     N
H       0.8541   0.3061   0.4181     H
C       0.8625   0.1068   0.5366     C
H       0.8677   0.9735    0.751     H
O       0.8709   0.3969   0.1077     O
O       0.8764   0.6156   0.0051     O
O       0.9064    0.398   0.9178     O
C        0.908   0.2225   0.3746     C
C       0.9095   0.9998   0.5978     C
C       0.9557   0.1054   0.4395     C
Mo     0.97495   0.4986  0.13399    Mo
Mo     0.98996  0.77085   0.9825    Mo
H       0.9932   0.2288   0.3262     H
