data_I
_chemical_name_common  '/home/zhangsd/repos/MofS-CGCNN/ML/data/SSD/clean_cifs/SETWOF_clean'
_cell_length_a 12.11300
_cell_length_b 12.22600
_cell_length_c 12.28900
_cell_angle_alpha 102.17800
_cell_angle_beta  100.54500
_cell_angle_gamma 119.66300
_space_group_name_H-M_alt      'P 1'


loop_
_space_group_symop_operation_xyz
  'x, y, z' 

loop_
_atom_site_label
_atom_site_fract_x
_atom_site_fract_y
_atom_site_fract_z
_atom_site_type_symbol
H        0.008     0.24   0.8628     H
C       0.0144   0.4438   0.0854     C
H       0.0162   0.7813   0.0205     H
C       0.0167   0.4578   0.8907     C
H        0.029   0.7369   0.6576     H
C       0.0295   0.4044   0.9776     C
C       0.0379   0.4167    0.778     C
C       0.0388   0.3942   0.1814     C
C       0.0417   0.2831   0.9481     C
H       0.0444   0.6879   0.4659     H
H       0.0743   0.4926   0.7512     H
H         0.08   0.4671   0.2567     H
N       0.0812   0.6967   0.3158     N
N       0.0834   0.7239   0.8152     N
C        0.097   0.7743   0.7299     C
C       0.1019   0.7384   0.4299     C
H       0.1031   0.3706   0.1731     H
H       0.1051   0.3953   0.7932     H
N        0.179   0.3141   0.9938     N
N       0.1808   0.7942   0.2916     N
N       0.1927   0.2066   0.9738     N
N       0.1997   0.8016   0.9079     N
N       0.2123   0.8587   0.4875     N
N       0.2168   0.8824   0.7586     N
C       0.2575   0.8887   0.3955     C
O       0.2614   0.4335   0.6475     O
C       0.2743   0.8949    0.869     C
Mo     0.29381  0.58133  0.58683    Mo
C       0.2993    0.428   0.0646     C
Co     0.31197  0.00568   0.6639    Co
H       0.3147    0.513   0.0917     H
C       0.3207   0.2655   0.0293     C
H       0.3361   0.9695   0.4067     H
O       0.3569   0.2626   0.4369     O
H       0.3622   0.2187   0.0285     H
H       0.3622   0.9659   0.9151     H
Mo     0.38993  0.37824  0.36334    Mo
N       0.3901   0.4008    0.089     N
O       0.3924   0.5158   0.4794     O
Mo     0.40168  0.48705  0.78442    Mo
O        0.406   0.7303    0.539     O
O       0.4216   0.1625    0.598     O
Mo     0.46054   0.6837  0.40733    Mo
O        0.498   0.5604   0.3264     O
O       0.4998    0.649   0.7154     O
O       0.5002    0.351   0.2846     O
O        0.502   0.4396   0.6736     O
Mo     0.53946   0.3163  0.59267    Mo
O       0.5784   0.8375    0.402     O
O        0.594   0.2697    0.461     O
Mo     0.59832  0.51295  0.21558    Mo
O       0.6076   0.4842   0.5206     O
N       0.6099   0.5992    0.911     N
Mo     0.61007  0.62176  0.63666    Mo
H       0.6378   0.0341   0.0849     H
H       0.6378   0.7813   0.9715     H
O       0.6431   0.7374   0.5631     O
H       0.6639   0.0305   0.5933     H
C       0.6793   0.7345   0.9707     C
H       0.6853    0.487   0.9083     H
Co     0.68803  0.99432   0.3361    Co
C       0.7007    0.572   0.9354     C
Mo     0.70619  0.41867  0.41317    Mo
C       0.7257   0.1051    0.131     C
O       0.7386   0.5665   0.3525     O
C       0.7425   0.1113   0.6045     C
N       0.7832   0.1176   0.2414     N
N       0.7877   0.1413   0.5125     N
N       0.8003   0.1984   0.0921     N
N       0.8073   0.7934   0.0262     N
N       0.8192   0.2058   0.7084     N
N        0.821   0.6859   0.0062     N
H       0.8949   0.6047   0.2068     H
H       0.8969   0.6294   0.8269     H
C       0.8981   0.2616   0.5701     C
C        0.903   0.2257   0.2701     C
N       0.9166   0.2761   0.1848     N
N       0.9188   0.3033   0.6842     N
H         0.92   0.5329   0.7433     H
H       0.9257   0.5074   0.2488     H
H       0.9556   0.3121   0.5341     H
C       0.9583   0.7169   0.0519     C
C       0.9612   0.6058   0.8186     C
C       0.9621   0.5833    0.222     C
C       0.9705   0.5956   0.0224     C
H        0.971   0.2631   0.3424     H
C       0.9833   0.5422   0.1093     C
H       0.9838   0.2187   0.9795     H
C       0.9856   0.5562   0.9146     C
H        0.992     0.76   0.1372     H
