data_I
_chemical_name_common  '/home/zhangsd/repos/MofS-CGCNN/ML/data/SSD/clean_cifs/SEYDUW_clean'
_cell_length_a  8.91080
_cell_length_b  9.02230
_cell_length_c 15.68370
_cell_angle_alpha 90.00000
_cell_angle_beta  90.00000
_cell_angle_gamma 90.00000
_space_group_name_H-M_alt      'P 1'


loop_
_space_group_symop_operation_xyz
  'x, y, z' 

loop_
_atom_site_label
_atom_site_fract_x
_atom_site_fract_y
_atom_site_fract_z
_atom_site_type_symbol
H       0.0119   0.7057   0.8028     H
O       0.0168    0.251   0.8463     O
C       0.0192   0.7789   0.7577     C
H       0.0193   0.8765   0.7837     H
O       0.0351    0.449  0.73265     O
P      0.06799  0.12751  0.29399     P
H       0.0961   0.2308   0.8224     H
O       0.0992   0.8121  0.12982     O
H       0.1086   0.9599   0.6654     H
Y      0.10927  0.53133  0.60391     Y
C        0.115   0.7356   0.1978     C
O       0.1458   0.0257  0.35531     O
N       0.1579    0.757   0.7102     N
H       0.1775      0.3   0.2032     H
O       0.1863   0.7449  0.53479     O
C       0.1931   0.8925    0.661     C
O        0.208   0.4684  0.47071     O
C       0.2162   0.2132   0.2323     C
H       0.2212   0.4407   0.3128     H
C       0.2267   0.8687   0.5695     C
O       0.2394   0.6835   0.2236     O
H       0.2476   0.6441   0.8104     H
H       0.2524   0.1441   0.1896     H
O       0.2606   0.1835   0.7764     O
C       0.2733   0.3687   0.4305     C
H       0.2788   0.9407   0.6872     H
C       0.2838   0.7132   0.7677     C
O        0.292   0.9684  0.52929     O
C       0.3069   0.3925    0.339     C
O       0.3137   0.2449  0.46521     O
H       0.3225      0.8   0.7968     H
N       0.3421    0.257   0.2898     N
O       0.3542   0.5257  0.64469     O
C        0.385   0.2356   0.8022     C
Y      0.39073  0.03133  0.39609     Y
H       0.3914   0.4599   0.3346     H
O       0.4008   0.3121  0.87018     O
H       0.4039   0.7308   0.1776     H
P      0.43201  0.62751  0.70601     P
O       0.4649    0.949  0.26735     O
H       0.4807   0.3765   0.2163     H
C       0.4808   0.2789   0.2423     C
O       0.4832    0.751   0.1537     O
H       0.4881   0.2057   0.1972     H
H       0.5119   0.2943   0.6972     H
O       0.5168    0.749   0.6537     O
C       0.5192   0.2211   0.7423     C
H       0.5193   0.1235   0.7163     H
O       0.5351    0.551  0.76735     O
P      0.56799  0.87249  0.20601     P
H       0.5961   0.7692   0.6776     H
O       0.5992   0.1879  0.37018     O
H       0.6086   0.0401   0.8346     H
Y      0.60927  0.46867  0.89609     Y
C        0.615   0.2644   0.3022     C
O       0.6458   0.9743  0.14469     O
N       0.6579    0.243   0.7898     N
H       0.6775      0.7   0.2968     H
O       0.6863   0.2551  0.96521     O
C       0.6931   0.1075    0.839     C
O        0.708   0.5316  0.02929     O
C       0.7162   0.7868   0.2677     C
H       0.7212   0.5593   0.1872     H
C       0.7267   0.1313   0.9305     C
O       0.7394   0.3165   0.2764     O
H       0.7476   0.3559   0.6896     H
H       0.7524   0.8559   0.3104     H
O       0.7606   0.8165   0.7236     O
C       0.7733   0.6313   0.0695     C
H       0.7788   0.0593   0.8128     H
C       0.7838   0.2868   0.7323     C
O        0.792   0.0316  0.97071     O
C       0.8069   0.6075    0.161     C
O       0.8137   0.7551  0.03479     O
H       0.8225      0.2   0.7032     H
N       0.8421    0.743   0.2102     N
O       0.8542   0.4743  0.85531     O
C        0.885   0.7644   0.6978     C
Y      0.89073  0.96867  0.10391     Y
H       0.8914   0.5401   0.1654     H
O       0.9008   0.6879  0.62982     O
H       0.9039   0.2692   0.3224     H
P      0.93201  0.37249  0.79399     P
O       0.9649    0.051  0.23265     O
H       0.9807   0.6235   0.2837     H
C       0.9808   0.7211   0.2577     C
O       0.9832    0.249   0.3463     O
H       0.9881   0.7943   0.3028     H
