data_I
_chemical_name_common  '/home/zhangsd/repos/MofS-CGCNN/ML/data/SSD/clean_cifs/SEYFEI_clean'
_cell_length_a  8.90620
_cell_length_b  8.94660
_cell_length_c 15.53530
_cell_angle_alpha 90.00000
_cell_angle_beta  90.00000
_cell_angle_gamma 90.00000
_space_group_name_H-M_alt      'P 1'


loop_
_space_group_symop_operation_xyz
  'x, y, z' 

loop_
_atom_site_label
_atom_site_fract_x
_atom_site_fract_y
_atom_site_fract_z
_atom_site_type_symbol
H       0.0121   0.7078   0.8056     H
O       0.0174   0.2503   0.8474     O
H       0.0175   0.8792   0.7836     H
C       0.0187   0.7795   0.7589     C
O        0.039   0.4507   0.7334     O
P      0.06669  0.12683   0.2939     P
O        0.096   0.8125   0.1293     O
H       0.0971   0.2296   0.8238     H
H       0.1085   0.9602   0.6656     H
Lu     0.11178  0.53214  0.60491    Lu
C       0.1148   0.7397   0.1985     C
O       0.1466   0.0248   0.3556     O
N       0.1598   0.7564   0.7107     N
H       0.1753   0.3039   0.2038     H
O       0.1848   0.7432   0.5344     O
C       0.1935   0.8928   0.6613     C
O       0.2086   0.4691   0.4719     O
C       0.2142   0.2151   0.2319     C
H       0.2208   0.4422   0.3127     H
C       0.2267   0.8658    0.568     C
O       0.2381   0.6847   0.2221     O
H       0.2495    0.147   0.1877     H
H       0.2505    0.647   0.8123     H
O       0.2619   0.1847   0.7779     O
C       0.2733   0.3658    0.432     C
H       0.2792   0.9422   0.6873     H
C       0.2858   0.7151   0.7681     C
O       0.2914   0.9691   0.5281     O
C       0.3065   0.3928   0.3387     C
O       0.3152   0.2432   0.4656     O
H       0.3247   0.8039   0.7962     H
N       0.3402   0.2564   0.2893     N
O       0.3534   0.5248   0.6444     O
C       0.3852   0.2397   0.8015     C
Lu     0.38822  0.03214  0.39509    Lu
H       0.3915   0.4602   0.3344     H
H       0.4029   0.7296   0.1762     H
O        0.404   0.3125   0.8707     O
P      0.43331  0.62683   0.7061     P
O        0.461   0.9507   0.2666     O
C       0.4813   0.2795   0.2411     C
H       0.4825   0.3792   0.2164     H
O       0.4826   0.7503   0.1526     O
H       0.4879   0.2078   0.1944     H
H       0.5121   0.2922   0.6944     H
O       0.5174   0.7497   0.6526     O
H       0.5175   0.1208   0.7164     H
C       0.5187   0.2205   0.7411     C
O        0.539   0.5493   0.7666     O
P      0.56669  0.87317   0.2061     P
O        0.596   0.1875   0.3707     O
H       0.5971   0.7704   0.6762     H
H       0.6085   0.0398   0.8344     H
Lu     0.61178  0.46786  0.89509    Lu
C       0.6148   0.2603   0.3015     C
O       0.6466   0.9752   0.1444     O
N       0.6598   0.2436   0.7893     N
H       0.6753   0.6961   0.2962     H
O       0.6848   0.2568   0.9656     O
C       0.6935   0.1072   0.8387     C
O       0.7086   0.5309   0.0281     O
C       0.7142   0.7849   0.2681     C
H       0.7208   0.5578   0.1873     H
C       0.7267   0.1342    0.932     C
O       0.7381   0.3153   0.2779     O
H       0.7495    0.853   0.3123     H
H       0.7505    0.353   0.6877     H
O       0.7619   0.8153   0.7221     O
C       0.7733   0.6342    0.068     C
H       0.7792   0.0578   0.8127     H
C       0.7858   0.2849   0.7319     C
O       0.7914   0.0309   0.9719     O
C       0.8065   0.6072   0.1613     C
O       0.8152   0.7568   0.0344     O
H       0.8247   0.1961   0.7038     H
N       0.8402   0.7436   0.2107     N
O       0.8534   0.4752   0.8556     O
C       0.8852   0.7603   0.6985     C
Lu     0.88822  0.96786  0.10491    Lu
H       0.8915   0.5398   0.1656     H
H       0.9029   0.2704   0.3238     H
O        0.904   0.6875   0.6293     O
P      0.93331  0.37317   0.7939     P
O        0.961   0.0493   0.2334     O
C       0.9813   0.7205   0.2589     C
H       0.9825   0.6208   0.2836     H
O       0.9826   0.2497   0.3474     O
H       0.9879   0.7922   0.3056     H
