data_I
_chemical_name_common  '/home/zhangsd/repos/MofS-CGCNN/ML/data/SSD/clean_cifs/SOHBUO_clean'
_cell_length_a 13.63100
_cell_length_b 16.78040
_cell_length_c 10.92610
_cell_angle_alpha 90.00000
_cell_angle_beta  115.62300
_cell_angle_gamma 90.00000
_space_group_name_H-M_alt      'P 1'


loop_
_space_group_symop_operation_xyz
  'x, y, z' 

loop_
_atom_site_label
_atom_site_fract_x
_atom_site_fract_y
_atom_site_fract_z
_atom_site_type_symbol
H       0.0059   0.3335   0.6351     H
H       0.0059   0.6665   0.1351     H
H       0.0221   0.1111   0.4425     H
H       0.0221   0.8889   0.9425     H
C       0.0228   0.0735   0.5128     C
C       0.0228   0.9265   0.0128     C
Ag     0.05286  0.05742  0.83075    Ag
Ag     0.05286  0.94258  0.33075    Ag
C       0.0815   0.0755   0.1504     C
H       0.0815   0.1126   0.2209     H
H       0.0815   0.8874   0.7209     H
C       0.0815   0.9245   0.6504     C
H        0.116   0.3229   0.0397     H
H        0.116   0.6771   0.5397     H
H       0.1181   0.1022   0.1007     H
H       0.1181   0.8978   0.6007     H
H        0.128    0.461   0.0583     H
H        0.128    0.539   0.5583     H
C       0.1384   0.0538   0.6086     C
C       0.1384   0.9462   0.1086     C
N       0.1412  0.00225   0.2152     N
N       0.1412  0.99775   0.7152     N
C       0.1566   0.3521   0.0027     C
C       0.1566   0.6479   0.5027     C
C       0.1646   0.4337    0.014     C
C       0.1646   0.5663    0.514     C
H       0.1755   0.0295   0.5575     H
H       0.1755   0.9705   0.0575     H
H       0.1777   0.1033   0.6516     H
H       0.1777   0.8967   0.1516     H
N       0.1908   0.1603   0.9131     N
N       0.1908   0.8397   0.4131     N
C       0.1995   0.2273   0.9205     C
C       0.1995   0.7727   0.4205     C
C       0.2095   0.3134   0.9355     C
C       0.2095   0.6866   0.4355     C
C       0.2249   0.4771   0.9624     C
C       0.2249   0.5229   0.4624     C
H       0.2273   0.4664   0.4688     H
H       0.2273   0.5336   0.9688     H
H       0.2513   0.0499   0.3927     H
H       0.2513   0.9501   0.8927     H
C       0.2549   0.0183   0.3184     C
C       0.2549   0.9817   0.8184     C
C       0.2708   0.3549   0.8842     C
C       0.2708   0.6451   0.3842     C
C       0.2808   0.4384   0.9023     C
C       0.2808   0.5616   0.4023     C
H       0.2893   0.0334   0.8575     H
H       0.2893   0.9666   0.3575     H
H       0.3017   0.1724   0.3195     H
H       0.3017   0.8276   0.8195     H
H       0.3057   0.3278   0.8376     H
H       0.3057   0.6722   0.3376     H
H       0.3143   0.4667   0.3049     H
H       0.3143   0.5333   0.8049     H
C       0.3272   0.0609   0.2695     C
C       0.3272   0.9391   0.7695     C
C       0.3391   0.1424   0.2791     C
C       0.3391   0.8576   0.7791     C
C       0.3506   0.4824   0.8454     C
C       0.3506   0.5176   0.3454     C
H       0.3541   0.4498   0.7719     H
H       0.3541   0.5502   0.2719     H
H       0.3763   0.0377   0.6972     H
H       0.3763   0.9623   0.1972     H
C       0.3836   0.0186   0.2061     C
C       0.3836   0.9814   0.7061     C
C       0.4061   0.1818   0.2296     C
C       0.4061   0.8182   0.7296     C
C       0.4176   0.2658   0.2437     C
C       0.4176   0.7342   0.7437     C
H       0.4259   0.3951   0.5095     H
H       0.4259   0.6049   0.0095     H
H       0.4277   0.4691   0.6033     H
H       0.4277   0.5309   0.1033     H
N       0.4282   0.3343   0.2567     N
N       0.4282   0.6657   0.7567     N
C       0.4499   0.0585   0.1563     C
C       0.4499   0.9415   0.6563     C
C       0.4612   0.1394   0.1682     C
C       0.4612   0.8606   0.6682     C
N       0.4633  0.49983   0.9474     N
N       0.4633  0.50017   0.4474     N
C       0.4652  0.44459   0.5528     C
C       0.4652  0.55541   0.0528     C
H       0.4864   0.4003   0.0633     H
H       0.4864   0.5997   0.5633     H
H       0.4867   0.0292   0.1145     H
H       0.4867   0.9708   0.6145     H
H       0.5059   0.1665   0.1351     H
H       0.5059   0.8335   0.6351     H
H       0.5221   0.3889   0.9425     H
H       0.5221   0.6111   0.4425     H
C       0.5228   0.4265   0.0128     C
C       0.5228   0.5735   0.5128     C
Ag     0.55286  0.44258  0.33075    Ag
Ag     0.55286  0.55742  0.83075    Ag
H       0.5815   0.3874   0.7209     H
C       0.5815   0.4245   0.6504     C
C       0.5815   0.5755   0.1504     C
H       0.5815   0.6126   0.2209     H
H        0.616   0.1771   0.5397     H
H        0.616   0.8229   0.0397     H
H       0.6181   0.3978   0.6007     H
H       0.6181   0.6022   0.1007     H
H        0.628    0.039   0.5583     H
H        0.628    0.961   0.0583     H
C       0.6384   0.4462   0.1086     C
C       0.6384   0.5538   0.6086     C
N       0.6412  0.49775   0.7152     N
N       0.6412  0.50225   0.2152     N
C       0.6566   0.1479   0.5027     C
C       0.6566   0.8521   0.0027     C
C       0.6646   0.0663    0.514     C
C       0.6646   0.9337    0.014     C
H       0.6755   0.4705   0.0575     H
H       0.6755   0.5295   0.5575     H
H       0.6777   0.3967   0.1516     H
H       0.6777   0.6033   0.6516     H
N       0.6908   0.3397   0.4131     N
N       0.6908   0.6603   0.9131     N
C       0.6995   0.2727   0.4205     C
C       0.6995   0.7273   0.9205     C
C       0.7095   0.1866   0.4355     C
C       0.7095   0.8134   0.9355     C
C       0.7249   0.0229   0.4624     C
C       0.7249   0.9771   0.9624     C
H       0.7273   0.0336   0.9688     H
H       0.7273   0.9664   0.4688     H
H       0.7513   0.4501   0.8927     H
H       0.7513   0.5499   0.3927     H
C       0.7549   0.4817   0.8184     C
C       0.7549   0.5183   0.3184     C
C       0.7708   0.1451   0.3842     C
C       0.7708   0.8549   0.8842     C
C       0.7808   0.0616   0.4023     C
C       0.7808   0.9384   0.9023     C
H       0.7893   0.4666   0.3575     H
H       0.7893   0.5334   0.8575     H
H       0.8017   0.3276   0.8195     H
H       0.8017   0.6724   0.3195     H
H       0.8057   0.1722   0.3376     H
H       0.8057   0.8278   0.8376     H
H       0.8143   0.0333   0.8049     H
H       0.8143   0.9667   0.3049     H
C       0.8272   0.4391   0.7695     C
C       0.8272   0.5609   0.2695     C
C       0.8391   0.3576   0.7791     C
C       0.8391   0.6424   0.2791     C
C       0.8506   0.0176   0.3454     C
C       0.8506   0.9824   0.8454     C
H       0.8541   0.0502   0.2719     H
H       0.8541   0.9498   0.7719     H
H       0.8763   0.4623   0.1972     H
H       0.8763   0.5377   0.6972     H
C       0.8836   0.4814   0.7061     C
C       0.8836   0.5186   0.2061     C
C       0.9061   0.3182   0.7296     C
C       0.9061   0.6818   0.2296     C
C       0.9176   0.2342   0.7437     C
C       0.9176   0.7658   0.2437     C
H       0.9259   0.1049   0.0095     H
H       0.9259   0.8951   0.5095     H
H       0.9277   0.0309   0.1033     H
H       0.9277   0.9691   0.6033     H
N       0.9282   0.1657   0.7567     N
N       0.9282   0.8343   0.2567     N
C       0.9499   0.4415   0.6563     C
C       0.9499   0.5585   0.1563     C
C       0.9612   0.3606   0.6682     C
C       0.9612   0.6394   0.1682     C
N       0.9633  0.00017   0.4474     N
N       0.9633  0.99983   0.9474     N
C       0.9652  0.05541   0.0528     C
C       0.9652  0.94459   0.5528     C
H       0.9864   0.0997   0.5633     H
H       0.9864   0.9003   0.0633     H
H       0.9867   0.4708   0.6145     H
H       0.9867   0.5292   0.1145     H
