data_I
_chemical_name_common  '/home/zhangsd/repos/MofS-CGCNN/ML/data/SSD/clean_cifs/SOTXEG_neutral'
_cell_length_a  9.28814
_cell_length_b 14.71130
_cell_length_c 19.84710
_cell_angle_alpha 74.97060
_cell_angle_beta  76.46780
_cell_angle_gamma 71.59810
_space_group_name_H-M_alt      'P 1'


loop_
_space_group_symop_operation_xyz
  'x, y, z' 

loop_
_atom_site_label
_atom_site_fract_x
_atom_site_fract_y
_atom_site_fract_z
_atom_site_type_symbol
C       0.0067   0.0937   0.2135     C
N       0.0085   0.6197   0.4377     N
H       0.0212    0.028   0.2348     H
H       0.0298   0.1878   0.9828     H
H       0.0409   0.4983   0.5699     H
H       0.0432   0.4193   0.6401     H
C       0.0462   0.4729   0.9827     C
H       0.0513   0.4304   0.2432     H
N       0.0659   0.8803   0.0623     N
C       0.0703   0.4297   0.5895     C
C       0.0723    0.814   0.0174     C
H       0.0739   0.3367   0.4701     H
H       0.0826   0.2495   0.5355     H
O       0.0847   0.7249   0.6017     O
C       0.0895   0.0703   0.9105     C
H       0.0941   0.7181   0.7921     H
C       0.0963    0.314   0.5174     C
H       0.1026   0.0807   0.8599     H
H       0.1082   0.3299   0.2187     H
H       0.1091   0.0017   0.9301     H
O       0.1155   0.1174   0.1746     O
H       0.1193   0.8367   0.9701     H
N       0.1292   0.8476    0.772     N
H       0.1324   0.7495   0.0355     H
C       0.1394   0.3837   0.2241     C
H       0.1531   0.7382   0.8532     H
C       0.1577   0.5969   0.4279     C
H       0.1602   0.0959   0.9233     H
C       0.1611   0.4108   0.9402     C
C       0.1638   0.7465   0.8029     C
O       0.1772   0.9617   0.1057     O
H       0.1794   0.4041   0.5767     H
H       0.1795   0.2851   0.0129     H
C       0.1825   0.9031   0.0721     C
H        0.185   0.4144   0.1788     H
H       0.1859   0.5169   0.8521     H
H       0.2004   0.3122   0.5172     H
H       0.2016   0.6288    0.449     H
C       0.2179   0.3117   0.9669     C
N       0.2181   0.6717   0.6051     N
H       0.2218   0.9144   0.6788     H
C       0.2231   0.4506    0.871     C
H       0.2334   0.2148   0.2842     H
O       0.2446   0.5383   0.3943     O
O         0.25     0.59   0.5854     O
N       0.2512   0.3476    0.272     N
C       0.2528   0.8837   0.7241     C
H       0.2555   0.2382   0.3532     H
H       0.2676   0.7148   0.7842     H
H       0.2751   0.9304   0.7432     H
H       0.2794   0.8712    0.051     H
H        0.284    0.472   0.2652     H
C       0.2868   0.2465   0.3029     C
C       0.3139   0.4063   0.2865     C
O       0.3146   0.6925   0.6249     O
O       0.3165   0.1116   0.0146     O
O       0.3167   0.5171   0.7277     O
C       0.3305   0.2524    0.926     C
C       0.3383   0.3918   0.8312     C
O       0.3399   0.9022   0.2274     O
H       0.3432   0.8299   0.7187     H
Yb      0.3471  0.03187  0.12487    Yb
O        0.368   0.1925   0.1249     O
C        0.382   0.1441   0.9543     C
C       0.3937   0.2935   0.8575     C
H       0.3957   0.2181   0.2921     H
C       0.3998   0.4394   0.7578     C
C        0.403   0.9394   0.2578     C
O       0.4075   0.3826   0.3254     O
O       0.4113   0.7751   0.8983     O
O       0.4254     0.91   0.9146     O
O       0.4385   0.0171   0.2277     O
C       0.4387   0.8918   0.3312     C
O       0.4427   0.3884   0.4854     O
H       0.4429   0.7545   0.3303     H
H       0.4451   0.0169   0.3521     H
C       0.4553   0.7935   0.3575     C
C       0.4553   0.9506    0.371     C
O       0.4695   0.5978   0.2726     O
H       0.4723   0.2545   0.8303     H
H       0.4775   0.2149   0.4871     H
C       0.4804   0.3559   0.5457     C
O       0.4846   0.0935   0.9159     O
C       0.4879   0.9108   0.4402     C
C       0.4911   0.7524    0.426     C
O        0.494   0.4065   0.5841     O
N       0.4949   0.8283   0.8949     N
Yb     0.49616  0.53187  0.62487    Yb
C       0.4965   0.1883   0.5331     C
C       0.4982   0.9729   0.4827     C
C       0.5018   0.0271   0.5173     C
C       0.5035   0.8117   0.4669     C
Yb     0.50384  0.46813  0.37513    Yb
N       0.5051   0.1717   0.1051     N
O        0.506   0.5935   0.4159     O
C       0.5089   0.2476    0.574     C
C       0.5121   0.0892   0.5598     C
O       0.5154   0.9065   0.0841     O
C       0.5196   0.6441   0.4543     C
H       0.5225   0.7851   0.5129     H
H       0.5277   0.7455   0.1697     H
O       0.5305   0.4022   0.7274     O
C       0.5447   0.0494    0.629     C
C       0.5447   0.2065   0.6425     C
H       0.5549   0.9831   0.6479     H
H       0.5571   0.2455   0.6697     H
O       0.5573   0.6116   0.5146     O
C       0.5613   0.1082   0.6688     C
O       0.5615   0.9829   0.7723     O
O       0.5746     0.09   0.0854     O
O       0.5887   0.2249   0.1017     O
O       0.5925   0.6174   0.6746     O
C        0.597   0.0606   0.7422     C
C       0.6002   0.5606   0.2422     C
H       0.6043   0.7819   0.7079     H
C       0.6063   0.7065   0.1425     C
C        0.618   0.8559   0.0457     C
O        0.632   0.8075   0.8751     O
Yb      0.6529  0.96813  0.87513    Yb
H       0.6568   0.1701   0.2813     H
O       0.6601   0.0978   0.7726     O
C       0.6617   0.6082   0.1688     C
C       0.6695   0.7476    0.074     C
O       0.6833   0.4829   0.2723     O
O       0.6835   0.8884   0.9854     O
O       0.6854   0.3075   0.3751     O
C       0.6861   0.5937   0.7135     C
C       0.7132   0.7535   0.6971     C
H        0.716    0.528   0.7348     H
H       0.7206   0.1288    0.949     H
H       0.7249   0.0696   0.2568     H
H       0.7324   0.2852   0.2158     H
H       0.7445   0.7618   0.6468     H
C       0.7472   0.1163   0.2759     C
N       0.7488   0.6524    0.728     N
O         0.75     0.41   0.4146     O
O       0.7554   0.4617   0.6057     O
H       0.7666   0.7852   0.7158     H
C       0.7769   0.5494    0.129     C
H       0.7782   0.0856   0.3212     H
N       0.7819   0.3283   0.3949     N
C       0.7821   0.6883   0.0331     C
H       0.7984   0.3712    0.551     H
H       0.7996   0.6878   0.4828     H
H       0.8141   0.4831   0.1479     H
H        0.815   0.5856   0.8212     H
C       0.8175   0.0969   0.9279     C
H       0.8205   0.7149   0.9871     H
H       0.8206   0.5959   0.4233     H
O       0.8228   0.0383   0.8943     O
C       0.8362   0.2535   0.1971     C
C       0.8389   0.5892   0.0598     C
H       0.8398   0.9041   0.0767     H
C       0.8423   0.4031   0.5721     C
H       0.8469   0.2618   0.1468     H
C       0.8606   0.6163   0.7759     C
H       0.8676   0.2505   0.9645     H
N       0.8708   0.1524    0.228     N
H       0.8807   0.1633   0.0299     H
O       0.8845   0.8826   0.8254     O
H       0.8909   0.9983   0.0699     H
H       0.8918   0.6701   0.7813     H
H       0.8974   0.9193   0.1401     H
C       0.9037    0.686   0.4826     C
H       0.9059   0.2819   0.2079     H
C       0.9105   0.9297   0.0895     C
O       0.9153   0.2751   0.3983     O
H       0.9174   0.7505   0.4645     H
H       0.9261   0.6633   0.5299     H
C       0.9277    0.186   0.9826     C
C       0.9297   0.5703   0.4105     C
N       0.9341   0.1197   0.9377     N
H       0.9487   0.5696   0.7568     H
C       0.9538   0.5271   0.0173     C
H       0.9568   0.5807   0.3599     H
H       0.9591   0.5017   0.4301     H
H       0.9702   0.8122   0.0172     H
H       0.9788    0.972   0.7652     H
N       0.9915   0.3803   0.5623     N
C       0.9933   0.9063   0.7865     C
