data_I
_chemical_name_common  '/home/zhangsd/repos/MofS-CGCNN/ML/data/SSD/clean_cifs/SUFJIO_clean'
_cell_length_a 13.36500
_cell_length_b 13.36500
_cell_length_c 27.42900
_cell_angle_alpha 90.00000
_cell_angle_beta  90.00000
_cell_angle_gamma 90.00000
_space_group_name_H-M_alt      'P 1'


loop_
_space_group_symop_operation_xyz
  'x, y, z' 

loop_
_atom_site_label
_atom_site_fract_x
_atom_site_fract_y
_atom_site_fract_z
_atom_site_type_symbol
C       0.0002   0.1063  0.71505     C
C       0.0002   0.3937  0.21505     C
C       0.0153   0.5885  0.64754     C
C       0.0153   0.9115  0.14754     C
N       0.0161   0.7324  0.53546     N
N       0.0161   0.7676  0.03546     N
C       0.0183   0.1221  0.76446     C
C       0.0183   0.3779  0.26446     C
N       0.0228   0.1068  0.46444     N
N       0.0228   0.3932  0.96444     N
Zn     0.02348  0.58775  0.55332    Zn
Zn     0.02348  0.91225  0.05332    Zn
C       0.0331   0.1937  0.44181     C
C       0.0331   0.3063  0.94181     C
H       0.0347   0.1432   0.6917     H
H       0.0347   0.3568   0.1917     H
C       0.0351     0.57  0.70079     C
C       0.0351     0.93  0.20079     C
N       0.0374   0.6245  0.99596     N
N       0.0374   0.8755  0.49596     N
O       0.0493  0.57607  0.88322     O
O       0.0493  0.92393  0.38322     O
O       0.0576  0.14022  0.86533     O
O       0.0576  0.35978  0.36533     O
C       0.0595    0.721   0.9974     C
C       0.0595    0.779   0.4974     C
H       0.0667   0.1681   0.7741     H
H       0.0667   0.3319   0.2741     H
C         0.07   0.5351  0.79921     C
C         0.07   0.9649  0.29921     C
H       0.0703   0.2025   0.4134     H
H       0.0703   0.2975   0.9134     H
O      0.07607   0.5493  0.61678     O
O      0.07607   0.9507  0.11678     O
Zn     0.08775  0.52348  0.94668    Zn
Zn     0.08775  0.97652  0.44668    Zn
C       0.0885   0.5153  0.85246     C
C       0.0885   0.9847  0.35246     C
H       0.1002   0.7471   0.4747     H
H       0.1002   0.7529   0.9747     H
C       0.1063   0.0002  0.21505     C
C       0.1063   0.4998  0.71505     C
N       0.1068   0.0228  0.96444     N
N       0.1068   0.4772  0.46444     N
C       0.1221   0.0183  0.26446     C
C       0.1221   0.4817  0.76446     C
N       0.1245   0.5374  0.50404     N
N       0.1245   0.9626  0.00404     N
O      0.14022   0.0576  0.36533     O
O      0.14022   0.4424  0.86533     O
H       0.1432   0.0347   0.1917     H
H       0.1432   0.4653   0.6917     H
H       0.1681   0.0667   0.2741     H
H       0.1681   0.4333   0.7741     H
C       0.1937   0.0331  0.94181     C
C       0.1937   0.4669  0.44181     C
H       0.2025   0.0703   0.9134     H
H       0.2025   0.4297   0.4134     H
C        0.221   0.5595   0.5026     C
C        0.221   0.9405   0.0026     C
N       0.2324   0.5161  0.96454     N
N       0.2324   0.9839  0.46454     N
H       0.2471   0.6002   0.0253     H
H       0.2471   0.8998   0.5253     H
H       0.2529   0.6002   0.5253     H
H       0.2529   0.8998   0.0253     H
N       0.2676   0.5161  0.46454     N
N       0.2676   0.9839  0.96454     N
C        0.279   0.5595   0.0026     C
C        0.279   0.9405   0.5026     C
H       0.2975   0.0703   0.4134     H
H       0.2975   0.4297   0.9134     H
C       0.3063   0.0331  0.44181     C
C       0.3063   0.4669  0.94181     C
H       0.3319   0.0667   0.7741     H
H       0.3319   0.4333   0.2741     H
H       0.3568   0.0347   0.6917     H
H       0.3568   0.4653   0.1917     H
O      0.35978   0.0576  0.86533     O
O      0.35978   0.4424  0.36533     O
N       0.3755   0.5374  0.00404     N
N       0.3755   0.9626  0.50404     N
C       0.3779   0.0183  0.76446     C
C       0.3779   0.4817  0.26446     C
N       0.3932   0.0228  0.46444     N
N       0.3932   0.4772  0.96444     N
C       0.3937   0.0002  0.71505     C
C       0.3937   0.4998  0.21505     C
H       0.3998   0.7471   0.9747     H
H       0.3998   0.7529   0.4747     H
C       0.4115   0.5153  0.35246     C
C       0.4115   0.9847  0.85246     C
Zn     0.41225  0.52348  0.44668    Zn
Zn     0.41225  0.97652  0.94668    Zn
O      0.42393   0.5493  0.11678     O
O      0.42393   0.9507  0.61678     O
H       0.4297   0.2025   0.9134     H
H       0.4297   0.2975   0.4134     H
C         0.43   0.5351  0.29921     C
C         0.43   0.9649  0.79921     C
H       0.4333   0.1681   0.2741     H
H       0.4333   0.3319   0.7741     H
C       0.4405    0.721   0.4974     C
C       0.4405    0.779   0.9974     C
O       0.4424  0.14022  0.36533     O
O       0.4424  0.35978  0.86533     O
O       0.4507  0.57607  0.38322     O
O       0.4507  0.92393  0.88322     O
N       0.4626   0.6245  0.49596     N
N       0.4626   0.8755  0.99596     N
C       0.4649     0.57  0.20079     C
C       0.4649     0.93  0.70079     C
H       0.4653   0.1432   0.1917     H
H       0.4653   0.3568   0.6917     H
C       0.4669   0.1937  0.94181     C
C       0.4669   0.3063  0.44181     C
Zn     0.47652  0.58775  0.05332    Zn
Zn     0.47652  0.91225  0.55332    Zn
N       0.4772   0.1068  0.96444     N
N       0.4772   0.3932  0.46444     N
C       0.4817   0.1221  0.26446     C
C       0.4817   0.3779  0.76446     C
N       0.4839   0.7324  0.03546     N
N       0.4839   0.7676  0.53546     N
C       0.4847   0.5885  0.14754     C
C       0.4847   0.9115  0.64754     C
C       0.4998   0.1063  0.21505     C
C       0.4998   0.3937  0.71505     C
C       0.5002   0.6063  0.28495     C
C       0.5002   0.8937  0.78495     C
C       0.5153   0.0885  0.35246     C
C       0.5153   0.4115  0.85246     C
N       0.5161   0.2324  0.46454     N
N       0.5161   0.2676  0.96454     N
C       0.5183   0.6221  0.23554     C
C       0.5183   0.8779  0.73554     C
N       0.5228   0.6068  0.53556     N
N       0.5228   0.8932  0.03556     N
Zn     0.52348  0.08775  0.44668    Zn
Zn     0.52348  0.41225  0.94668    Zn
C       0.5331   0.6937  0.55819     C
C       0.5331   0.8063  0.05819     C
H       0.5347   0.6432   0.3083     H
H       0.5347   0.8568   0.8083     H
C       0.5351     0.07  0.29921     C
C       0.5351     0.43  0.79921     C
N       0.5374   0.1245  0.00404     N
N       0.5374   0.3755  0.50404     N
O       0.5493  0.07607  0.11678     O
O       0.5493  0.42393  0.61678     O
O       0.5576  0.64022  0.13467     O
O       0.5576  0.85978  0.63467     O
C       0.5595    0.221   0.0026     C
C       0.5595    0.279   0.5026     C
H       0.5667   0.6681   0.2259     H
H       0.5667   0.8319   0.7259     H
C         0.57   0.0351  0.20079     C
C         0.57   0.4649  0.70079     C
H       0.5703   0.7025   0.5866     H
H       0.5703   0.7975   0.0866     H
O      0.57607   0.0493  0.38322     O
O      0.57607   0.4507  0.88322     O
Zn     0.58775  0.02348  0.05332    Zn
Zn     0.58775  0.47652  0.55332    Zn
C       0.5885   0.0153  0.14754     C
C       0.5885   0.4847  0.64754     C
H       0.6002   0.2471   0.5253     H
H       0.6002   0.2529   0.0253     H
C       0.6063   0.5002  0.78495     C
C       0.6063   0.9998  0.28495     C
N       0.6068   0.5228  0.03556     N
N       0.6068   0.9772  0.53556     N
C       0.6221   0.5183  0.73554     C
C       0.6221   0.9817  0.23554     C
N       0.6245   0.0374  0.49596     N
N       0.6245   0.4626  0.99596     N
O      0.64022   0.5576  0.63467     O
O      0.64022   0.9424  0.13467     O
H       0.6432   0.5347   0.8083     H
H       0.6432   0.9653   0.3083     H
H       0.6681   0.5667   0.7259     H
H       0.6681   0.9333   0.2259     H
C       0.6937   0.5331  0.05819     C
C       0.6937   0.9669  0.55819     C
H       0.7025   0.5703   0.0866     H
H       0.7025   0.9297   0.5866     H
C        0.721   0.0595   0.4974     C
C        0.721   0.4405   0.9974     C
N       0.7324   0.0161  0.03546     N
N       0.7324   0.4839  0.53546     N
H       0.7471   0.1002   0.9747     H
H       0.7471   0.3998   0.4747     H
H       0.7529   0.1002   0.4747     H
H       0.7529   0.3998   0.9747     H
N       0.7676   0.0161  0.53546     N
N       0.7676   0.4839  0.03546     N
C        0.779   0.0595   0.9974     C
C        0.779   0.4405   0.4974     C
H       0.7975   0.5703   0.5866     H
H       0.7975   0.9297   0.0866     H
C       0.8063   0.5331  0.55819     C
C       0.8063   0.9669  0.05819     C
H       0.8319   0.5667   0.2259     H
H       0.8319   0.9333   0.7259     H
H       0.8568   0.5347   0.3083     H
H       0.8568   0.9653   0.8083     H
O      0.85978   0.5576  0.13467     O
O      0.85978   0.9424  0.63467     O
N       0.8755   0.0374  0.99596     N
N       0.8755   0.4626  0.49596     N
C       0.8779   0.5183  0.23554     C
C       0.8779   0.9817  0.73554     C
N       0.8932   0.5228  0.53556     N
N       0.8932   0.9772  0.03556     N
C       0.8937   0.5002  0.28495     C
C       0.8937   0.9998  0.78495     C
H       0.8998   0.2471   0.0253     H
H       0.8998   0.2529   0.5253     H
C       0.9115   0.0153  0.64754     C
C       0.9115   0.4847  0.14754     C
Zn     0.91225  0.02348  0.55332    Zn
Zn     0.91225  0.47652  0.05332    Zn
O      0.92393   0.0493  0.88322     O
O      0.92393   0.4507  0.38322     O
H       0.9297   0.7025   0.0866     H
H       0.9297   0.7975   0.5866     H
C         0.93   0.0351  0.70079     C
C         0.93   0.4649  0.20079     C
H       0.9333   0.6681   0.7259     H
H       0.9333   0.8319   0.2259     H
C       0.9405    0.221   0.5026     C
C       0.9405    0.279   0.0026     C
O       0.9424  0.64022  0.63467     O
O       0.9424  0.85978  0.13467     O
O       0.9507  0.07607  0.61678     O
O       0.9507  0.42393  0.11678     O
N       0.9626   0.1245  0.50404     N
N       0.9626   0.3755  0.00404     N
C       0.9649     0.07  0.79921     C
C       0.9649     0.43  0.29921     C
H       0.9653   0.6432   0.8083     H
H       0.9653   0.8568   0.3083     H
C       0.9669   0.6937  0.05819     C
C       0.9669   0.8063  0.55819     C
Zn     0.97652  0.08775  0.94668    Zn
Zn     0.97652  0.41225  0.44668    Zn
N       0.9772   0.6068  0.03556     N
N       0.9772   0.8932  0.53556     N
C       0.9817   0.6221  0.73554     C
C       0.9817   0.8779  0.23554     C
N       0.9839   0.2324  0.96454     N
N       0.9839   0.2676  0.46454     N
C       0.9847   0.0885  0.85246     C
C       0.9847   0.4115  0.35246     C
C       0.9998   0.6063  0.78495     C
C       0.9998   0.8937  0.28495     C
