data_I
_chemical_name_common  '/home/zhangsd/repos/MofS-CGCNN/ML/data/SSD/clean_cifs/SUJQOE_clean'
_cell_length_a 13.73720
_cell_length_b 14.77310
_cell_length_c 21.07500
_cell_angle_alpha 90.00000
_cell_angle_beta  90.00000
_cell_angle_gamma 90.00000
_space_group_name_H-M_alt      'P 1'


loop_
_space_group_symop_operation_xyz
  'x, y, z' 

loop_
_atom_site_label
_atom_site_fract_x
_atom_site_fract_y
_atom_site_fract_z
_atom_site_type_symbol
C       0.0034   0.5719  0.58374     C
C       0.0034   0.9281  0.08374     C
H       0.0079   0.0896   0.2925     H
H       0.0079   0.4104   0.7925     H
C       0.0124   0.1061  0.41624     C
C       0.0124   0.3939  0.91624     C
H       0.0134   0.1341   0.1799     H
H       0.0134   0.3659   0.6799     H
C       0.0162   0.1509   0.3032     C
C       0.0162   0.3491   0.8032     C
C       0.0192   0.1955  0.19108     C
C       0.0192   0.3045  0.69108     C
H       0.0206   0.0449    0.879     H
H       0.0206   0.4551    0.379     H
C       0.0207    0.173  0.36395     C
C       0.0207    0.327  0.86395     C
O      0.02327  0.53049  0.09623     O
O      0.02327  0.96951  0.59623     O
C       0.0233   0.2359  0.63906     C
C       0.0233   0.2641  0.13906     C
C       0.0234   0.2166  0.25211     C
C       0.0234   0.2834  0.75211     C
O       0.0251  0.23814  0.08308     O
O       0.0251  0.26186  0.58308     O
O      0.02531  0.15267  0.65305     O
O      0.02531  0.34733  0.15305     O
Zn     0.02877  0.09766  0.56161    Zn
Zn     0.02877  0.40234  0.06161    Zn
H       0.0296   0.2342   0.3746     H
H       0.0296   0.2658   0.8746     H
H       0.0316   0.2221    0.763     H
H       0.0316   0.2779    0.263     H
H       0.0364   0.1295   0.9951     H
H       0.0364   0.3705   0.4951     H
O      0.04249  0.13257  0.46966     O
O      0.04249  0.36743  0.96966     O
C       0.0614   0.1032  0.95793     C
C       0.0614   0.3968  0.45793     C
C       0.1093   0.5768  0.57571     C
C       0.1093   0.9232  0.07571     C
H       0.1169   0.6412   0.4903     H
H       0.1169   0.8588   0.9903     H
N      0.12856  0.60094  0.94491     N
N      0.12856  0.89906  0.44491     N
H       0.1404   0.6737   0.0226     H
H       0.1404   0.8263   0.5226     H
H       0.1449   0.5146   0.6587     H
H       0.1449   0.9854   0.1587     H
H        0.153   0.5307   0.8665     H
H        0.153   0.9693   0.3665     H
C       0.1546    0.617  0.52343     C
C       0.1546    0.883  0.02343     C
C       0.1676   0.1007   0.9517     C
C       0.1676   0.3993   0.4517     C
C       0.1712   0.5425  0.62248     C
C       0.1712   0.9575  0.12248     C
C        0.177   0.6429  0.99174     C
C        0.177   0.8571  0.49174     C
H        0.181   0.0278   0.8704     H
H        0.181   0.4722   0.3704     H
C       0.1844   0.5597   0.9005     C
C       0.1844   0.9403   0.4005     C
N      0.18652  0.08791  0.56563     N
N      0.18652  0.41209  0.06563     N
H       0.1896   0.0257   0.6479     H
H       0.1896   0.4743   0.1479     H
H       0.1932   0.1729   0.0318     H
H       0.1932   0.3271   0.5318     H
C       0.2162   0.0578   0.9023     C
C       0.2162   0.4422   0.4023     C
H       0.2175   0.1486    0.485     H
H       0.2175   0.3514    0.985     H
C       0.2232   0.1436  0.99738     C
C       0.2232   0.3564  0.49738     C
C       0.2294   0.0494  0.61565     C
C       0.2294   0.4506  0.11565     C
C        0.246    0.121  0.52067     C
C        0.246    0.379  0.02067     C
C        0.254    0.621  0.52067     C
C        0.254    0.879  0.02067     C
C       0.2706   0.5494  0.61565     C
C       0.2706   0.9506  0.11565     C
C       0.2768   0.6436  0.99738     C
C       0.2768   0.8564  0.49738     C
H       0.2825   0.6486    0.485     H
H       0.2825   0.8514    0.985     H
C       0.2838   0.5578   0.9023     C
C       0.2838   0.9422   0.4023     C
H       0.3068   0.6729   0.0318     H
H       0.3068   0.8271   0.5318     H
H       0.3104   0.5257   0.6479     H
H       0.3104   0.9743   0.1479     H
N      0.31348  0.58791  0.56563     N
N      0.31348  0.91209  0.06563     N
C       0.3156   0.0597   0.9005     C
C       0.3156   0.4403   0.4005     C
H        0.319   0.5278   0.8704     H
H        0.319   0.9722   0.3704     H
C        0.323   0.1429  0.99174     C
C        0.323   0.3571  0.49174     C
C       0.3288   0.0425  0.62248     C
C       0.3288   0.4575  0.12248     C
C       0.3324   0.6007   0.9517     C
C       0.3324   0.8993   0.4517     C
C       0.3454    0.117  0.52343     C
C       0.3454    0.383  0.02343     C
H        0.347   0.0307   0.8665     H
H        0.347   0.4693   0.3665     H
H       0.3551   0.0146   0.6587     H
H       0.3551   0.4854   0.1587     H
H       0.3596   0.1737   0.0226     H
H       0.3596   0.3263   0.5226     H
N      0.37144  0.10094  0.94491     N
N      0.37144  0.39906  0.44491     N
H       0.3831   0.1412   0.4903     H
H       0.3831   0.3588   0.9903     H
C       0.3907   0.0768  0.57571     C
C       0.3907   0.4232  0.07571     C
C       0.4386   0.6032  0.95793     C
C       0.4386   0.8968  0.45793     C
O      0.45751  0.63257  0.46966     O
O      0.45751  0.86743  0.96966     O
H       0.4636   0.6295   0.9951     H
H       0.4636   0.8705   0.4951     H
H       0.4684   0.7221    0.763     H
H       0.4684   0.7779    0.263     H
H       0.4704   0.7342   0.3746     H
H       0.4704   0.7658   0.8746     H
Zn     0.47123  0.59766  0.56161    Zn
Zn     0.47123  0.90234  0.06161    Zn
O      0.47469  0.65267  0.65305     O
O      0.47469  0.84733  0.15305     O
O       0.4749  0.73814  0.08308     O
O       0.4749  0.76186  0.58308     O
C       0.4766   0.7166  0.25211     C
C       0.4766   0.7834  0.75211     C
C       0.4767   0.7359  0.63906     C
C       0.4767   0.7641  0.13906     C
O      0.47673  0.03049  0.09623     O
O      0.47673  0.46951  0.59623     O
C       0.4793    0.673  0.36395     C
C       0.4793    0.827  0.86395     C
H       0.4794   0.5449    0.879     H
H       0.4794   0.9551    0.379     H
C       0.4808   0.6955  0.19108     C
C       0.4808   0.8045  0.69108     C
C       0.4838   0.6509   0.3032     C
C       0.4838   0.8491   0.8032     C
H       0.4866   0.6341   0.1799     H
H       0.4866   0.8659   0.6799     H
C       0.4876   0.6061  0.41624     C
C       0.4876   0.8939  0.91624     C
H       0.4921   0.5896   0.2925     H
H       0.4921   0.9104   0.7925     H
C       0.4966   0.0719  0.58374     C
C       0.4966   0.4281  0.08374     C
C       0.5034   0.5719  0.91626     C
C       0.5034   0.9281  0.41626     C
H       0.5079   0.0896   0.2075     H
H       0.5079   0.4104   0.7075     H
C       0.5124   0.1061  0.08376     C
C       0.5124   0.3939  0.58376     C
H       0.5134   0.1341   0.3201     H
H       0.5134   0.3659   0.8201     H
C       0.5162   0.1509   0.1968     C
C       0.5162   0.3491   0.6968     C
C       0.5192   0.1955  0.30892     C
C       0.5192   0.3045  0.80892     C
H       0.5206   0.0449    0.621     H
H       0.5206   0.4551    0.121     H
C       0.5207    0.173  0.13605     C
C       0.5207    0.327  0.63605     C
O      0.52327  0.53049  0.40377     O
O      0.52327  0.96951  0.90377     O
C       0.5233   0.2359  0.86094     C
C       0.5233   0.2641  0.36094     C
C       0.5234   0.2166  0.24789     C
C       0.5234   0.2834  0.74789     C
O       0.5251  0.23814  0.41692     O
O       0.5251  0.26186  0.91692     O
O      0.52531  0.15267  0.84695     O
O      0.52531  0.34733  0.34695     O
Zn     0.52877  0.09766  0.93839    Zn
Zn     0.52877  0.40234  0.43839    Zn
H       0.5296   0.2342   0.1254     H
H       0.5296   0.2658   0.6254     H
H       0.5316   0.2221    0.737     H
H       0.5316   0.2779    0.237     H
H       0.5364   0.1295   0.5049     H
H       0.5364   0.3705   0.0049     H
O      0.54249  0.13257  0.03034     O
O      0.54249  0.36743  0.53034     O
C       0.5614   0.1032  0.54207     C
C       0.5614   0.3968  0.04207     C
C       0.6093   0.5768  0.92429     C
C       0.6093   0.9232  0.42429     C
H       0.6169   0.6412   0.0097     H
H       0.6169   0.8588   0.5097     H
N      0.62856  0.60094  0.55509     N
N      0.62856  0.89906  0.05509     N
H       0.6404   0.6737   0.4774     H
H       0.6404   0.8263   0.9774     H
H       0.6449   0.5146   0.8413     H
H       0.6449   0.9854   0.3413     H
H        0.653   0.5307   0.6335     H
H        0.653   0.9693   0.1335     H
C       0.6546    0.617  0.97657     C
C       0.6546    0.883  0.47657     C
C       0.6676   0.1007   0.5483     C
C       0.6676   0.3993   0.0483     C
C       0.6712   0.5425  0.87752     C
C       0.6712   0.9575  0.37752     C
C        0.677   0.6429  0.50826     C
C        0.677   0.8571  0.00826     C
H        0.681   0.0278   0.6296     H
H        0.681   0.4722   0.1296     H
C       0.6844   0.5597   0.5995     C
C       0.6844   0.9403   0.0995     C
N      0.68652  0.08791  0.93437     N
N      0.68652  0.41209  0.43437     N
H       0.6896   0.0257   0.8521     H
H       0.6896   0.4743   0.3521     H
H       0.6932   0.1729   0.4682     H
H       0.6932   0.3271   0.9682     H
C       0.7162   0.0578   0.5977     C
C       0.7162   0.4422   0.0977     C
H       0.7175   0.1486    0.015     H
H       0.7175   0.3514    0.515     H
C       0.7232   0.1436  0.50262     C
C       0.7232   0.3564  0.00262     C
C       0.7294   0.0494  0.88435     C
C       0.7294   0.4506  0.38435     C
C        0.746    0.121  0.97933     C
C        0.746    0.379  0.47933     C
C        0.754    0.621  0.97933     C
C        0.754    0.879  0.47933     C
C       0.7706   0.5494  0.88435     C
C       0.7706   0.9506  0.38435     C
C       0.7768   0.6436  0.50262     C
C       0.7768   0.8564  0.00262     C
H       0.7825   0.6486    0.015     H
H       0.7825   0.8514    0.515     H
C       0.7838   0.5578   0.5977     C
C       0.7838   0.9422   0.0977     C
H       0.8068   0.6729   0.4682     H
H       0.8068   0.8271   0.9682     H
H       0.8104   0.5257   0.8521     H
H       0.8104   0.9743   0.3521     H
N      0.81348  0.58791  0.93437     N
N      0.81348  0.91209  0.43437     N
C       0.8156   0.0597   0.5995     C
C       0.8156   0.4403   0.0995     C
H        0.819   0.5278   0.6296     H
H        0.819   0.9722   0.1296     H
C        0.823   0.1429  0.50826     C
C        0.823   0.3571  0.00826     C
C       0.8288   0.0425  0.87752     C
C       0.8288   0.4575  0.37752     C
C       0.8324   0.6007   0.5483     C
C       0.8324   0.8993   0.0483     C
C       0.8454    0.117  0.97657     C
C       0.8454    0.383  0.47657     C
H        0.847   0.0307   0.6335     H
H        0.847   0.4693   0.1335     H
H       0.8551   0.0146   0.8413     H
H       0.8551   0.4854   0.3413     H
H       0.8596   0.1737   0.4774     H
H       0.8596   0.3263   0.9774     H
N      0.87144  0.10094  0.55509     N
N      0.87144  0.39906  0.05509     N
H       0.8831   0.1412   0.0097     H
H       0.8831   0.3588   0.5097     H
C       0.8907   0.0768  0.92429     C
C       0.8907   0.4232  0.42429     C
C       0.9386   0.6032  0.54207     C
C       0.9386   0.8968  0.04207     C
O      0.95751  0.63257  0.03034     O
O      0.95751  0.86743  0.53034     O
H       0.9636   0.6295   0.5049     H
H       0.9636   0.8705   0.0049     H
H       0.9684   0.7221    0.737     H
H       0.9684   0.7779    0.237     H
H       0.9704   0.7342   0.1254     H
H       0.9704   0.7658   0.6254     H
Zn     0.97123  0.59766  0.93839    Zn
Zn     0.97123  0.90234  0.43839    Zn
O      0.97469  0.65267  0.84695     O
O      0.97469  0.84733  0.34695     O
O       0.9749  0.73814  0.41692     O
O       0.9749  0.76186  0.91692     O
C       0.9766   0.7166  0.24789     C
C       0.9766   0.7834  0.74789     C
C       0.9767   0.7359  0.86094     C
C       0.9767   0.7641  0.36094     C
O      0.97673  0.03049  0.40377     O
O      0.97673  0.46951  0.90377     O
C       0.9793    0.673  0.13605     C
C       0.9793    0.827  0.63605     C
H       0.9794   0.5449    0.621     H
H       0.9794   0.9551    0.121     H
C       0.9808   0.6955  0.30892     C
C       0.9808   0.8045  0.80892     C
C       0.9838   0.6509   0.1968     C
C       0.9838   0.8491   0.6968     C
H       0.9866   0.6341   0.3201     H
H       0.9866   0.8659   0.8201     H
C       0.9876   0.6061  0.08376     C
C       0.9876   0.8939  0.58376     C
H       0.9921   0.5896   0.2075     H
H       0.9921   0.9104   0.7075     H
C       0.9966   0.0719  0.91626     C
C       0.9966   0.4281  0.41626     C
