data_I
_chemical_name_common  '/home/zhangsd/repos/MofS-CGCNN/ML/data/SSD/clean_cifs/SUJRIZ_clean'
_cell_length_a 13.57070
_cell_length_b 15.00600
_cell_length_c 20.07400
_cell_angle_alpha 90.00000
_cell_angle_beta  90.00000
_cell_angle_gamma 90.00000
_space_group_name_H-M_alt      'P 1'


loop_
_space_group_symop_operation_xyz
  'x, y, z' 

loop_
_atom_site_label
_atom_site_fract_x
_atom_site_fract_y
_atom_site_fract_z
_atom_site_type_symbol
C       0.0005   0.7166   0.7121     C
C       0.0005   0.7834   0.2121     C
C       0.0007   0.2215   0.6633     C
C       0.0007   0.2785   0.1633     C
H       0.0008   0.7225   0.6119     H
H       0.0008   0.7775   0.1119     H
C       0.0013    0.243   0.3497     C
C       0.0013    0.257   0.8497     C
C       0.0024   0.2325   0.2308     C
C       0.0024   0.2675   0.7308     C
Zn     0.00248  0.10974  0.56487    Zn
Zn     0.00248  0.39026  0.06487    Zn
H       0.0037   0.6549   0.7152     H
H       0.0037   0.8451   0.2152     H
O       0.0048    0.025   0.4243     O
O       0.0048    0.475   0.9243     O
O       0.0048   0.6383   0.8368     O
O       0.0048   0.8617   0.3368     O
C       0.0062   0.1407   0.2351     C
C       0.0062   0.1506   0.3544     C
C       0.0062   0.3494   0.8544     C
C       0.0062   0.3593   0.7351     C
O       0.0068   0.2323   0.1116     O
O       0.0068   0.2677   0.6116     O
H       0.0069   0.0036   0.0902     H
H       0.0069   0.4964   0.5902     H
H       0.0074   0.1068   0.1963     H
H       0.0074   0.3932   0.6963     H
C       0.0082   0.0983   0.2963     C
C       0.0082   0.4017   0.7963     C
C       0.0083   0.1064   0.4217     C
C       0.0083   0.3936   0.9217     C
H       0.0084   0.1178   0.0159     H
H       0.0084   0.3822   0.5159     H
H       0.0108   0.0364   0.2989     H
H       0.0108   0.4636   0.7989     H
O       0.0127   0.1587   0.4721     O
O       0.0127   0.3413   0.9721     O
C       0.0373   0.5153   0.5483     C
C       0.0373   0.9847   0.0483     C
C       0.0388   0.0647   0.9961     C
C       0.0388   0.4353   0.4961     C
C       0.1358   0.5569   0.5609     C
C       0.1358   0.9431   0.0609     C
C       0.1401   0.0873   0.9699     C
C       0.1401   0.4127   0.4699     C
H       0.1449   0.6363   0.4797     H
H       0.1449   0.8637   0.9797     H
H       0.1464   0.0185   0.8839     H
H       0.1464   0.4815   0.3839     H
N       0.1585   0.6118   0.9449     N
N       0.1585   0.8882   0.4449     N
H       0.1638   0.0005   0.1502     H
H       0.1638   0.4995   0.6502     H
N       0.1647   0.1005   0.5707     N
N       0.1647   0.3995   0.0707     N
H       0.1662    0.689   0.0222     H
H       0.1662    0.811   0.5222     H
H       0.1693   0.1736    0.045     H
H       0.1693   0.3264    0.545     H
H       0.1714   0.0346   0.6543     H
H       0.1714   0.4654   0.1543     H
C        0.181   0.6123   0.5147     C
C        0.181   0.8877   0.0147     C
C       0.1836   0.0513   0.9141     C
C       0.1836   0.4487   0.4141     C
H        0.187   0.5396   0.8655     H
H        0.187   0.9604   0.3655     H
H        0.191   0.1676   0.4893     H
H        0.191   0.3324   0.9893     H
C       0.1924   0.5313   0.6155     C
C       0.1924   0.9687   0.1155     C
C       0.1972    0.143   0.0094     C
C       0.1972    0.357   0.5094     C
C       0.2037   0.6521   0.9949     C
C       0.2037   0.8479   0.4949     C
C       0.2085   0.0535    0.618     C
C       0.2085   0.4465    0.118     C
C       0.2156   0.5646   0.9032     C
C       0.2156   0.9354   0.4032     C
C       0.2204   0.1313   0.5212     C
C       0.2204   0.3687   0.0212     C
C       0.2796   0.6313   0.5212     C
C       0.2796   0.8687   0.0212     C
C       0.2844   0.0646   0.9032     C
C       0.2844   0.4354   0.4032     C
C       0.2915   0.5535    0.618     C
C       0.2915   0.9465    0.118     C
C       0.2963   0.1521   0.9949     C
C       0.2963   0.3479   0.4949     C
C       0.3028    0.643   0.0094     C
C       0.3028    0.857   0.5094     C
C       0.3076   0.0313   0.6155     C
C       0.3076   0.4687   0.1155     C
H        0.309   0.6676   0.4893     H
H        0.309   0.8324   0.9893     H
H        0.313   0.0396   0.8655     H
H        0.313   0.4604   0.3655     H
C       0.3164   0.5513   0.9141     C
C       0.3164   0.9487   0.4141     C
C        0.319   0.1123   0.5147     C
C        0.319   0.3877   0.0147     C
H       0.3286   0.5346   0.6543     H
H       0.3286   0.9654   0.1543     H
H       0.3307   0.6736    0.045     H
H       0.3307   0.8264    0.545     H
H       0.3338    0.189   0.0222     H
H       0.3338    0.311   0.5222     H
N       0.3353   0.6005   0.5707     N
N       0.3353   0.8995   0.0707     N
H       0.3362   0.5005   0.1502     H
H       0.3362   0.9995   0.6502     H
N       0.3415   0.1118   0.9449     N
N       0.3415   0.3882   0.4449     N
H       0.3536   0.5185   0.8839     H
H       0.3536   0.9815   0.3839     H
H       0.3551   0.1363   0.4797     H
H       0.3551   0.3637   0.9797     H
C       0.3599   0.5873   0.9699     C
C       0.3599   0.9127   0.4699     C
C       0.3642   0.0569   0.5609     C
C       0.3642   0.4431   0.0609     C
C       0.4612   0.5647   0.9961     C
C       0.4612   0.9353   0.4961     C
C       0.4627   0.0153   0.5483     C
C       0.4627   0.4847   0.0483     C
O       0.4873   0.6587   0.4721     O
O       0.4873   0.8413   0.9721     O
H       0.4892   0.5364   0.2989     H
H       0.4892   0.9636   0.7989     H
H       0.4916   0.6178   0.0159     H
H       0.4916   0.8822   0.5159     H
C       0.4917   0.6064   0.4217     C
C       0.4917   0.8936   0.9217     C
C       0.4918   0.5983   0.2963     C
C       0.4918   0.9017   0.7963     C
H       0.4926   0.6068   0.1963     H
H       0.4926   0.8932   0.6963     H
H       0.4931   0.5036   0.0902     H
H       0.4931   0.9964   0.5902     H
O       0.4932   0.7323   0.1116     O
O       0.4932   0.7677   0.6116     O
C       0.4938   0.6407   0.2351     C
C       0.4938   0.6506   0.3544     C
C       0.4938   0.8494   0.8544     C
C       0.4938   0.8593   0.7351     C
O       0.4952   0.1383   0.8368     O
O       0.4952   0.3617   0.3368     O
O       0.4952    0.525   0.4243     O
O       0.4952    0.975   0.9243     O
H       0.4963   0.1549   0.7152     H
H       0.4963   0.3451   0.2152     H
Zn     0.49752  0.60974  0.56487    Zn
Zn     0.49752  0.89026  0.06487    Zn
C       0.4976   0.7325   0.2308     C
C       0.4976   0.7675   0.7308     C
C       0.4987    0.743   0.3497     C
C       0.4987    0.757   0.8497     C
H       0.4992   0.2225   0.6119     H
H       0.4992   0.2775   0.1119     H
C       0.4993   0.7215   0.6633     C
C       0.4993   0.7785   0.1633     C
C       0.4995   0.2166   0.7121     C
C       0.4995   0.2834   0.2121     C
C       0.5005   0.7166   0.7879     C
C       0.5005   0.7834   0.2879     C
C       0.5007   0.2215   0.8367     C
C       0.5007   0.2785   0.3367     C
H       0.5008   0.7225   0.8881     H
H       0.5008   0.7775   0.3881     H
C       0.5013    0.243   0.1503     C
C       0.5013    0.257   0.6503     C
C       0.5024   0.2325   0.2692     C
C       0.5024   0.2675   0.7692     C
Zn     0.50248  0.10974  0.93513    Zn
Zn     0.50248  0.39026  0.43513    Zn
H       0.5037   0.6549   0.7848     H
H       0.5037   0.8451   0.2848     H
O       0.5048    0.025   0.0757     O
O       0.5048    0.475   0.5757     O
O       0.5048   0.6383   0.6632     O
O       0.5048   0.8617   0.1632     O
C       0.5062   0.1407   0.2649     C
C       0.5062   0.1506   0.1456     C
C       0.5062   0.3494   0.6456     C
C       0.5062   0.3593   0.7649     C
O       0.5068   0.2323   0.3884     O
O       0.5068   0.2677   0.8884     O
H       0.5069   0.0036   0.4098     H
H       0.5069   0.4964   0.9098     H
H       0.5074   0.1068   0.3037     H
H       0.5074   0.3932   0.8037     H
C       0.5082   0.0983   0.2037     C
C       0.5082   0.4017   0.7037     C
C       0.5083   0.1064   0.0783     C
C       0.5083   0.3936   0.5783     C
H       0.5084   0.1178   0.4841     H
H       0.5084   0.3822   0.9841     H
H       0.5108   0.0364   0.2011     H
H       0.5108   0.4636   0.7011     H
O       0.5127   0.1587   0.0279     O
O       0.5127   0.3413   0.5279     O
C       0.5373   0.5153   0.9517     C
C       0.5373   0.9847   0.4517     C
C       0.5388   0.0647   0.5039     C
C       0.5388   0.4353   0.0039     C
C       0.6358   0.5569   0.9391     C
C       0.6358   0.9431   0.4391     C
C       0.6401   0.0873   0.5301     C
C       0.6401   0.4127   0.0301     C
H       0.6449   0.6363   0.0203     H
H       0.6449   0.8637   0.5203     H
H       0.6464   0.0185   0.6161     H
H       0.6464   0.4815   0.1161     H
N       0.6585   0.6118   0.5551     N
N       0.6585   0.8882   0.0551     N
H       0.6638   0.0005   0.3498     H
H       0.6638   0.4995   0.8498     H
N       0.6647   0.1005   0.9293     N
N       0.6647   0.3995   0.4293     N
H       0.6662    0.689   0.4778     H
H       0.6662    0.811   0.9778     H
H       0.6693   0.1736    0.455     H
H       0.6693   0.3264    0.955     H
H       0.6714   0.0346   0.8457     H
H       0.6714   0.4654   0.3457     H
C        0.681   0.6123   0.9853     C
C        0.681   0.8877   0.4853     C
C       0.6836   0.0513   0.5859     C
C       0.6836   0.4487   0.0859     C
H        0.687   0.5396   0.6345     H
H        0.687   0.9604   0.1345     H
H        0.691   0.1676   0.0107     H
H        0.691   0.3324   0.5107     H
C       0.6924   0.5313   0.8845     C
C       0.6924   0.9687   0.3845     C
C       0.6972    0.143   0.4906     C
C       0.6972    0.357   0.9906     C
C       0.7037   0.6521   0.5051     C
C       0.7037   0.8479   0.0051     C
C       0.7085   0.0535    0.882     C
C       0.7085   0.4465    0.382     C
C       0.7156   0.5646   0.5968     C
C       0.7156   0.9354   0.0968     C
C       0.7204   0.1313   0.9788     C
C       0.7204   0.3687   0.4788     C
C       0.7796   0.6313   0.9788     C
C       0.7796   0.8687   0.4788     C
C       0.7844   0.0646   0.5968     C
C       0.7844   0.4354   0.0968     C
C       0.7915   0.5535    0.882     C
C       0.7915   0.9465    0.382     C
C       0.7963   0.1521   0.5051     C
C       0.7963   0.3479   0.0051     C
C       0.8028    0.643   0.4906     C
C       0.8028    0.857   0.9906     C
C       0.8076   0.0313   0.8845     C
C       0.8076   0.4687   0.3845     C
H        0.809   0.6676   0.0107     H
H        0.809   0.8324   0.5107     H
H        0.813   0.0396   0.6345     H
H        0.813   0.4604   0.1345     H
C       0.8164   0.5513   0.5859     C
C       0.8164   0.9487   0.0859     C
C        0.819   0.1123   0.9853     C
C        0.819   0.3877   0.4853     C
H       0.8286   0.5346   0.8457     H
H       0.8286   0.9654   0.3457     H
H       0.8307   0.6736    0.455     H
H       0.8307   0.8264    0.955     H
H       0.8338    0.189   0.4778     H
H       0.8338    0.311   0.9778     H
N       0.8353   0.6005   0.9293     N
N       0.8353   0.8995   0.4293     N
H       0.8362   0.5005   0.3498     H
H       0.8362   0.9995   0.8498     H
N       0.8415   0.1118   0.5551     N
N       0.8415   0.3882   0.0551     N
H       0.8536   0.5185   0.6161     H
H       0.8536   0.9815   0.1161     H
H       0.8551   0.1363   0.0203     H
H       0.8551   0.3637   0.5203     H
C       0.8599   0.5873   0.5301     C
C       0.8599   0.9127   0.0301     C
C       0.8642   0.0569   0.9391     C
C       0.8642   0.4431   0.4391     C
C       0.9612   0.5647   0.5039     C
C       0.9612   0.9353   0.0039     C
C       0.9627   0.0153   0.9517     C
C       0.9627   0.4847   0.4517     C
O       0.9873   0.6587   0.0279     O
O       0.9873   0.8413   0.5279     O
H       0.9892   0.5364   0.2011     H
H       0.9892   0.9636   0.7011     H
H       0.9916   0.6178   0.4841     H
H       0.9916   0.8822   0.9841     H
C       0.9917   0.6064   0.0783     C
C       0.9917   0.8936   0.5783     C
C       0.9918   0.5983   0.2037     C
C       0.9918   0.9017   0.7037     C
H       0.9926   0.6068   0.3037     H
H       0.9926   0.8932   0.8037     H
H       0.9931   0.5036   0.4098     H
H       0.9931   0.9964   0.9098     H
O       0.9932   0.7323   0.3884     O
O       0.9932   0.7677   0.8884     O
C       0.9938   0.6407   0.2649     C
C       0.9938   0.6506   0.1456     C
C       0.9938   0.8494   0.6456     C
C       0.9938   0.8593   0.7649     C
O       0.9952   0.1383   0.6632     O
O       0.9952   0.3617   0.1632     O
O       0.9952    0.525   0.0757     O
O       0.9952    0.975   0.5757     O
H       0.9963   0.1549   0.7848     H
H       0.9963   0.3451   0.2848     H
Zn     0.99752  0.60974  0.93513    Zn
Zn     0.99752  0.89026  0.43513    Zn
C       0.9976   0.7325   0.2692     C
C       0.9976   0.7675   0.7692     C
C       0.9987    0.743   0.1503     C
C       0.9987    0.757   0.6503     C
H       0.9992   0.2225   0.8881     H
H       0.9992   0.2775   0.3881     H
C       0.9993   0.7215   0.8367     C
C       0.9993   0.7785   0.3367     C
C       0.9995   0.2166   0.7879     C
C       0.9995   0.2834   0.2879     C
