data_I
_chemical_name_common  '/home/zhangsd/repos/MofS-CGCNN/ML/data/SSD/clean_cifs/SUKKUF_clean'
_cell_length_a 13.45190
_cell_length_b 13.45190
_cell_length_c 17.26500
_cell_angle_alpha 90.00000
_cell_angle_beta  90.00000
_cell_angle_gamma 90.00000
_space_group_name_H-M_alt      'P 1'


loop_
_space_group_symop_operation_xyz
  'x, y, z' 

loop_
_atom_site_label
_atom_site_fract_x
_atom_site_fract_y
_atom_site_fract_z
_atom_site_type_symbol
Pt         0.0      0.0  0.08293    Pt
Pt         0.0      0.0  0.24258    Pt
I          0.0      0.0  0.40216     I
Pt         0.0      0.0  0.57308    Pt
Pt         0.0      0.0  0.73887    Pt
I          0.0      0.0  0.92027     I
O       0.0142   0.2423    0.541     O
O       0.0266   0.2399   0.2758     O
O       0.0654   0.2266   0.7922     O
P       0.0747    0.157  0.56958     P
O       0.0842   0.2192   0.0273     O
P       0.0859   0.1517   0.2475     P
O       0.1005   0.7799   0.0554     O
P        0.105  0.13686   0.7399     P
O       0.1064   0.1907   0.6562     O
P       0.1169   0.1289  0.07985     P
O         0.12   0.7879   0.7628     O
O       0.1287   0.1803   0.1636     O
P       0.1289   0.8831  0.07985     P
P      0.13686    0.895   0.7399     P
O       0.1445   0.8157   0.2962     O
P       0.1517   0.9141   0.2475     P
P        0.157   0.9253  0.56958     P
O       0.1611   0.8253   0.5241     O
O       0.1747   0.1611   0.5241     O
O       0.1803   0.8713   0.1636     O
O       0.1843   0.1445   0.2962     O
O       0.1907   0.8936   0.6562     O
O       0.2121     0.12   0.7628     O
K      0.21544  0.76821  0.90782     K
O       0.2192   0.9158   0.0273     O
O       0.2201   0.1005   0.0554     O
O       0.2266   0.9346   0.7922     O
K      0.23179  0.21544  0.90782     K
O       0.2399   0.9734   0.2758     O
O       0.2423   0.9858    0.541     O
O       0.2577   0.4858    0.041     O
O       0.2601   0.4734   0.7758     O
K      0.26821  0.71544  0.40782     K
O       0.2734   0.4346   0.2922     O
O       0.2799   0.6005   0.5554     O
O       0.2808   0.4158   0.5273     O
K      0.28456  0.26821  0.40782     K
O       0.2879     0.62   0.2628     O
O       0.3093   0.3936   0.1562     O
O       0.3157   0.6445   0.7962     O
O       0.3197   0.3713   0.6636     O
O       0.3253   0.6611   0.0241     O
O       0.3389   0.3253   0.0241     O
P        0.343   0.4253  0.06958     P
P       0.3483   0.4141   0.7475     P
O       0.3555   0.3157   0.7962     O
P      0.36314    0.395   0.2399     P
P       0.3711   0.3831  0.57985     P
O       0.3713   0.6803   0.6636     O
O         0.38   0.2879   0.2628     O
P       0.3831   0.6289  0.57985     P
O       0.3936   0.6907   0.1562     O
P        0.395  0.63686   0.2399     P
O       0.3995   0.2799   0.5554     O
P       0.4141   0.6517   0.7475     P
O       0.4158   0.7192   0.5273     O
P       0.4253    0.657  0.06958     P
O       0.4346   0.7266   0.2922     O
O       0.4734   0.7399   0.7758     O
O       0.4858   0.7423    0.041     O
Pt         0.5      0.5  0.07308    Pt
Pt         0.5      0.5  0.23887    Pt
I          0.5      0.5  0.42027     I
Pt         0.5      0.5  0.58293    Pt
Pt         0.5      0.5  0.74258    Pt
I          0.5      0.5  0.90216     I
O       0.5142   0.2577    0.041     O
O       0.5266   0.2601   0.7758     O
O       0.5654   0.2734   0.2922     O
P       0.5747    0.343  0.06958     P
O       0.5842   0.2808   0.5273     O
P       0.5859   0.3483   0.7475     P
O       0.6005   0.7201   0.5554     O
P        0.605  0.36314   0.2399     P
O       0.6064   0.3093   0.1562     O
P       0.6169   0.3711  0.57985     P
O         0.62   0.7121   0.2628     O
O       0.6287   0.3197   0.6636     O
P       0.6289   0.6169  0.57985     P
P      0.63686    0.605   0.2399     P
O       0.6445   0.6843   0.7962     O
P       0.6517   0.5859   0.7475     P
P        0.657   0.5747  0.06958     P
O       0.6611   0.6747   0.0241     O
O       0.6747   0.3389   0.0241     O
O       0.6803   0.6287   0.6636     O
O       0.6843   0.3555   0.7962     O
O       0.6907   0.6064   0.1562     O
O       0.7121     0.38   0.2628     O
K      0.71544  0.73179  0.40782     K
O       0.7192   0.5842   0.5273     O
O       0.7201   0.3995   0.5554     O
O       0.7266   0.5654   0.2922     O
K      0.73179  0.28456  0.40782     K
O       0.7399   0.5266   0.7758     O
O       0.7423   0.5142    0.041     O
O       0.7577   0.0142    0.541     O
O       0.7601   0.0266   0.2758     O
K      0.76821  0.78456  0.90782     K
O       0.7734   0.0654   0.7922     O
O       0.7799   0.8995   0.0554     O
O       0.7808   0.0842   0.0273     O
K      0.78456  0.23179  0.90782     K
O       0.7879     0.88   0.7628     O
O       0.8093   0.1064   0.6562     O
O       0.8157   0.8555   0.2962     O
O       0.8197   0.1287   0.1636     O
O       0.8253   0.8389   0.5241     O
O       0.8389   0.1747   0.5241     O
P        0.843   0.0747  0.56958     P
P       0.8483   0.0859   0.2475     P
O       0.8555   0.1843   0.2962     O
P      0.86314    0.105   0.7399     P
P       0.8711   0.1169  0.07985     P
O       0.8713   0.8197   0.1636     O
O         0.88   0.2121   0.7628     O
P       0.8831   0.8711  0.07985     P
O       0.8936   0.8093   0.6562     O
P        0.895  0.86314   0.7399     P
O       0.8995   0.2201   0.0554     O
P       0.9141   0.8483   0.2475     P
O       0.9158   0.7808   0.0273     O
P       0.9253    0.843  0.56958     P
O       0.9346   0.7734   0.7922     O
O       0.9734   0.7601   0.2758     O
O       0.9858   0.7577    0.541     O
