data_I
_chemical_name_common  '/home/zhangsd/repos/MofS-CGCNN/ML/data/SSD/clean_cifs/SUSZOW_clean'
_cell_length_a 14.80220
_cell_length_b 27.33070
_cell_length_c  8.34870
_cell_angle_alpha 90.00000
_cell_angle_beta  90.00000
_cell_angle_gamma 90.00000
_space_group_name_H-M_alt      'P 1'


loop_
_space_group_symop_operation_xyz
  'x, y, z' 

loop_
_atom_site_label
_atom_site_fract_x
_atom_site_fract_y
_atom_site_fract_z
_atom_site_type_symbol
O       0.0005  0.34574   0.6847     O
O       0.0005  0.65426   0.1847     O
O        0.008  0.19805   0.2037     O
O        0.008  0.80195   0.7037     O
O        0.013  0.07502   0.2076     O
O        0.013  0.92498   0.7076     O
O       0.0913  0.22783   0.9679     O
O       0.0913  0.77217   0.4679     O
Al     0.09319  0.05547   0.7648    Al
Al     0.09319  0.94453   0.2648    Al
Al      0.0936  0.22134   0.7682    Al
Al      0.0936  0.77866   0.2682    Al
P      0.09497  0.32935   0.6387     P
P      0.09497  0.67065   0.1387     P
P      0.09795  0.21796   0.1424     P
P      0.09795  0.78204   0.6424     P
Al     0.09974  0.32545    0.261    Al
Al     0.09974  0.67455    0.761    Al
O       0.1011  0.05472   0.9657     O
O       0.1011  0.94528   0.4657     O
P      0.10111  0.05285   0.1428     P
P      0.10111  0.94715   0.6428     P
O       0.1025  0.33102   0.4617     O
O       0.1025  0.66898   0.9617     O
O       0.1119  0.27802   0.6906     O
O       0.1119  0.72198   0.1906     O
O       0.1138  0.00086   0.1923     O
O       0.1138  0.99914   0.6923     O
O       0.1205   0.2659   0.2211     O
O       0.1205   0.7341   0.7211     O
O      0.16185  0.36536     0.71     O
O      0.16185  0.63464     0.21     O
O       0.1719   0.1812    0.167     O
O       0.1719   0.8188    0.667     O
O       0.1748  0.09367   0.6933     O
O       0.1748  0.90633   0.1933     O
O       0.1795  0.18454    0.711     O
O       0.1795  0.81546    0.211     O
O      0.18139  0.36383   0.1879     O
O      0.18139  0.63617   0.6879     O
O       0.1815  0.08061   0.2086     O
O       0.1815  0.91939   0.7086     O
O       0.2149  0.14469   0.4608     O
O       0.2149  0.85531   0.9608     O
P      0.21995  0.13952   0.6377     P
P      0.21995  0.86048   0.1377     P
Al     0.22619  0.13522   0.2632    Al
Al     0.22619  0.86478   0.7632    Al
Al     0.27381  0.36478   0.7632    Al
Al     0.27381  0.63522   0.2632    Al
P      0.28005  0.36048   0.1377     P
P      0.28005  0.63952   0.6377     P
O       0.2851  0.35531   0.9608     O
O       0.2851  0.64469   0.4608     O
O       0.3185  0.41939   0.7086     O
O       0.3185  0.58061   0.2086     O
O      0.31861  0.13617   0.6879     O
O      0.31861  0.86383   0.1879     O
O       0.3205  0.31546    0.211     O
O       0.3205  0.68454    0.711     O
O       0.3252  0.40633   0.1933     O
O       0.3252  0.59367   0.6933     O
O       0.3281   0.3188    0.667     O
O       0.3281   0.6812    0.167     O
O      0.33815  0.13464     0.21     O
O      0.33815  0.86536     0.71     O
O       0.3795   0.2341   0.7211     O
O       0.3795   0.7659   0.2211     O
O       0.3862  0.49914   0.6923     O
O       0.3862  0.50086   0.1923     O
O       0.3881  0.22198   0.1906     O
O       0.3881  0.77802   0.6906     O
O       0.3975  0.16898   0.9617     O
O       0.3975  0.83102   0.4617     O
P      0.39889  0.44715   0.6428     P
P      0.39889  0.55285   0.1428     P
O       0.3989  0.44528   0.4657     O
O       0.3989  0.55472   0.9657     O
Al     0.40026  0.17455    0.761    Al
Al     0.40026  0.82545    0.261    Al
P      0.40205  0.28204   0.6424     P
P      0.40205  0.71796   0.1424     P
P      0.40503  0.17065   0.1387     P
P      0.40503  0.82935   0.6387     P
Al      0.4064  0.27866   0.2682    Al
Al      0.4064  0.72134   0.7682    Al
Al     0.40681  0.44453   0.2648    Al
Al     0.40681  0.55547   0.7648    Al
O       0.4087  0.27217   0.4679     O
O       0.4087  0.72783   0.9679     O
O        0.487  0.42498   0.7076     O
O        0.487  0.57502   0.2076     O
O        0.492  0.30195   0.7037     O
O        0.492  0.69805   0.2037     O
O       0.4995  0.15426   0.1847     O
O       0.4995  0.84574   0.6847     O
O       0.5005  0.15426   0.6847     O
O       0.5005  0.84574   0.1847     O
O        0.508  0.30195   0.2037     O
O        0.508  0.69805   0.7037     O
O        0.513  0.42498   0.2076     O
O        0.513  0.57502   0.7076     O
O       0.5913  0.27217   0.9679     O
O       0.5913  0.72783   0.4679     O
Al     0.59319  0.44453   0.7648    Al
Al     0.59319  0.55547   0.2648    Al
Al      0.5936  0.27866   0.7682    Al
Al      0.5936  0.72134   0.2682    Al
P      0.59497  0.17065   0.6387     P
P      0.59497  0.82935   0.1387     P
P      0.59795  0.28204   0.1424     P
P      0.59795  0.71796   0.6424     P
Al     0.59974  0.17455    0.261    Al
Al     0.59974  0.82545    0.761    Al
O       0.6011  0.44528   0.9657     O
O       0.6011  0.55472   0.4657     O
P      0.60111  0.44715   0.1428     P
P      0.60111  0.55285   0.6428     P
O       0.6025  0.16898   0.4617     O
O       0.6025  0.83102   0.9617     O
O       0.6119  0.22198   0.6906     O
O       0.6119  0.77802   0.1906     O
O       0.6138  0.49914   0.1923     O
O       0.6138  0.50086   0.6923     O
O       0.6205   0.2341   0.2211     O
O       0.6205   0.7659   0.7211     O
O      0.66185  0.13464     0.71     O
O      0.66185  0.86536     0.21     O
O       0.6719   0.3188    0.167     O
O       0.6719   0.6812    0.667     O
O       0.6748  0.40633   0.6933     O
O       0.6748  0.59367   0.1933     O
O       0.6795  0.31546    0.711     O
O       0.6795  0.68454    0.211     O
O      0.68139  0.13617   0.1879     O
O      0.68139  0.86383   0.6879     O
O       0.6815  0.41939   0.2086     O
O       0.6815  0.58061   0.7086     O
O       0.7149  0.35531   0.4608     O
O       0.7149  0.64469   0.9608     O
P      0.71995  0.36048   0.6377     P
P      0.71995  0.63952   0.1377     P
Al     0.72619  0.36478   0.2632    Al
Al     0.72619  0.63522   0.7632    Al
Al     0.77381  0.13522   0.7632    Al
Al     0.77381  0.86478   0.2632    Al
P      0.78005  0.13952   0.1377     P
P      0.78005  0.86048   0.6377     P
O       0.7851  0.14469   0.9608     O
O       0.7851  0.85531   0.4608     O
O       0.8185  0.08061   0.7086     O
O       0.8185  0.91939   0.2086     O
O      0.81861  0.36383   0.6879     O
O      0.81861  0.63617   0.1879     O
O       0.8205  0.18454    0.211     O
O       0.8205  0.81546    0.711     O
O       0.8252  0.09367   0.1933     O
O       0.8252  0.90633   0.6933     O
O       0.8281   0.1812    0.667     O
O       0.8281   0.8188    0.167     O
O      0.83815  0.36536     0.21     O
O      0.83815  0.63464     0.71     O
O       0.8795   0.2659   0.7211     O
O       0.8795   0.7341   0.2211     O
O       0.8862  0.00086   0.6923     O
O       0.8862  0.99914   0.1923     O
O       0.8881  0.27802   0.1906     O
O       0.8881  0.72198   0.6906     O
O       0.8975  0.33102   0.9617     O
O       0.8975  0.66898   0.4617     O
P      0.89889  0.05285   0.6428     P
P      0.89889  0.94715   0.1428     P
O       0.8989  0.05472   0.4657     O
O       0.8989  0.94528   0.9657     O
Al     0.90026  0.32545    0.761    Al
Al     0.90026  0.67455    0.261    Al
P      0.90205  0.21796   0.6424     P
P      0.90205  0.78204   0.1424     P
P      0.90503  0.32935   0.1387     P
P      0.90503  0.67065   0.6387     P
Al      0.9064  0.22134   0.2682    Al
Al      0.9064  0.77866   0.7682    Al
Al     0.90681  0.05547   0.2648    Al
Al     0.90681  0.94453   0.7648    Al
O       0.9087  0.22783   0.4679     O
O       0.9087  0.77217   0.9679     O
O        0.987  0.07502   0.7076     O
O        0.987  0.92498   0.2076     O
O        0.992  0.19805   0.7037     O
O        0.992  0.80195   0.2037     O
O       0.9995  0.34574   0.1847     O
O       0.9995  0.65426   0.6847     O
