data_I
_chemical_name_common  '/home/zhangsd/repos/MofS-CGCNN/ML/data/SSD/clean_cifs/TAGBUZ_clean'
_cell_length_a 10.33500
_cell_length_b 10.33500
_cell_length_c 17.01500
_cell_angle_alpha 84.84120
_cell_angle_beta  74.69060
_cell_angle_gamma 114.66300
_space_group_name_H-M_alt      'P 1'


loop_
_space_group_symop_operation_xyz
  'x, y, z' 

loop_
_atom_site_label
_atom_site_fract_x
_atom_site_fract_y
_atom_site_fract_z
_atom_site_type_symbol
H       0.0056    0.652   0.9574     H
C      0.00924  0.25483  0.59953     C
C      0.03586  0.39987  0.57767     C
N       0.0482   0.5817   0.2345     N
C      0.05086  0.82144   0.0151     C
C       0.0554    0.102   0.8698     C
H       0.0574   0.8574   0.5532     H
C       0.0602   0.2577   0.9717     C
C       0.0837   0.7294   0.9677     C
H       0.0894   0.3894   0.0532     H
C      0.10447  0.71101  0.49452     C
O      0.10743  0.09186  0.62511     O
C      0.11609  0.21231   0.6266     C
H       0.1174   0.4165   0.7159     H
H       0.1246   0.4765   0.5795     H
C       0.1328   0.8475   0.5127     C
C      0.13855   0.2097  0.91055     C
C       0.1398   0.3545   0.0127     C
H       0.1455   0.0019   0.0602     H
C       0.1521   0.6902   0.2197     C
H       0.1623   0.9343   0.2556     H
C      0.16729  0.93821   0.0293     C
H        0.191   0.6035   0.4205     H
C        0.212   0.6952   0.4332     C
C      0.21235  0.41796  0.70069     C
C       0.2309   0.7515   0.9358     C
C      0.23679  0.32034  0.65447     C
H        0.253   0.6891   0.9039     H
C       0.2591   0.9493   0.2242     C
C       0.2706   0.9681   0.4717     C
C       0.2828    0.833   0.2002     C
H       0.2909   0.0597   0.4844     H
C       0.2935   0.2578   0.8903     C
C      0.29447  0.40101  0.99452     C
H       0.3101   0.5821   0.7556     H
C       0.3141   0.9597   0.9978     C
C       0.3265   0.5167   0.7242     C
O      0.33512  0.60128   0.0594     O
H       0.3446   0.2256   0.8486     H
C       0.3459   0.8663    0.951     C
C       0.3519   0.8162   0.3903     C
H       0.3676   0.1667   0.2159     H
C       0.3716   0.3548   0.9332     C
C       0.3759   0.3175   0.6346     C
C      0.37737  0.51191  0.03792     C
C      0.37975   0.9509  0.41055     C
C      0.38135  0.08696  0.20069     C
H       0.3911   0.2486   0.6059     H
H       0.3924   0.0372    0.008     H
C        0.425   0.8507   0.1575     C
H       0.4258   0.8068   0.3486     H
H       0.4379   0.7943   0.5602     H
H       0.4386     0.77    0.144     H
H        0.444   0.2959   0.0795     H
H       0.4548   0.5996    0.508     H
C       0.4668    0.517   0.7002     C
H        0.476   0.3885   0.9205     H
C       0.4918   0.4175   0.6575     C
C       0.4981   0.8827   0.9202     C
C      0.51528  0.51432   0.0534     C
C      0.52246  0.38647  0.07767     C
C      0.52519  0.10874  0.15447     C
C       0.5282   0.0748   0.3698     C
C      0.53249  0.80341   0.5293     C
O      0.53354  0.07258  0.55656     O
C       0.5425   0.6881   0.4978     C
C       0.5479   0.9895   0.1346     C
H        0.586   0.4174    0.644     H
C       0.5901   0.6282   0.7197     C
N       0.6145   0.8886   0.8963     N
H       0.6285   0.7359    0.032     H
C      0.63449  0.64921   0.0469     C
N      0.64457   0.1701  0.33993     N
H       0.6455    0.003   0.1059     H
C      0.64564  0.39123  0.09953     C
C      0.64843  0.06018  0.54719     C
C      0.66109  0.25731   0.1266     C
C      0.66346  0.93404   0.5151     C
C       0.6827   0.7031    0.451     C
N       0.6838   0.7173   0.7345     N
C       0.6971   0.5817   0.4202     C
N       0.7151   0.4892   0.3963     N
H       0.7321   0.3395    0.532     H
C      0.76207  0.65567  0.06246     C
C      0.76624  0.52768  0.09068     C
C      0.78187  0.17547  0.56246     C
O      0.78303  0.26746  0.12511     O
C       0.8029   0.9486   0.4677     C
C      0.80389  0.31861   0.5469     C
C       0.8127   0.8333   0.4358     C
Ag     0.81723  0.83806  0.80825    Ag
O      0.83932  0.60548   0.5594     O
H       0.8507   0.5326   0.1039     H
Ag     0.85369  0.37452  0.30825    Ag
H       0.8635   0.0454   0.6039     H
O      0.87086   0.9099  0.05656     O
C      0.88164  0.14308  0.59068     C
H       0.8906    0.037   0.4574     H
C      0.89263  0.80438  0.04719     C
H        0.907   0.8431   0.4039     H
C      0.93228  0.43132   0.5534     C
C      0.95017  0.58471  0.53792     C
H       0.9559   0.2247   0.9844     H
N      0.98997   0.0155  0.83993     N
