data_I
_chemical_name_common  '/home/zhangsd/repos/MofS-CGCNN/ML/data/SSD/clean_cifs/TAGTUT_clean'
_cell_length_a 53.59800
_cell_length_b 16.40900
_cell_length_c 21.67200
_cell_angle_alpha 90.00000
_cell_angle_beta  113.85000
_cell_angle_gamma 90.00000
_space_group_name_H-M_alt      'P 1'


loop_
_space_group_symop_operation_xyz
  'x, y, z' 

loop_
_atom_site_label
_atom_site_fract_x
_atom_site_fract_y
_atom_site_fract_z
_atom_site_type_symbol
Mg         0.0  0.24712     0.25    Mg
Mg         0.0  0.75288     0.75    Mg
C        0.001   0.0706   0.3984     C
C        0.001   0.9294   0.8984     C
C       0.0014   0.4236   0.1013     C
C       0.0014   0.5764   0.6013     C
O      0.00627   0.3295   0.3236     O
O      0.00627   0.6705   0.8236     O
C      0.00679   0.1047   0.1723     C
C      0.00679   0.8953   0.6723     C
C       0.0096   0.3755   0.1695     C
C       0.0096   0.6245   0.6695     C
O      0.01191   0.1509   0.3209     O
O      0.01191   0.8491   0.8209     O
C      0.01238   0.0084   0.5258     C
C      0.01238   0.9916   0.0258     C
C       0.0129    0.497   0.5235     C
C       0.0129    0.503   0.0235     C
C      0.01807   0.0276   0.0913     C
C      0.01807   0.9724   0.5913     C
C       0.0193   0.4755   0.0915     C
C       0.0193   0.5245   0.5915     C
C       0.0229   0.4001   0.4499     C
C       0.0229   0.5999   0.9499     C
C      0.02627   0.0892   0.4498     C
C      0.02627   0.9108   0.9498     C
O      0.02892   0.0894   0.2161     O
O      0.02892   0.9106   0.7161     O
C      0.03087   0.0581   0.5121     C
C      0.03087   0.9419   0.0121     C
C       0.0311   0.4301   0.5158     C
C       0.0311   0.5699   0.0158     C
O      0.03411   0.3957   0.2121     O
O      0.03411   0.6043   0.7121     O
H       0.0342   0.3637   0.4404     H
H       0.0342   0.6363   0.9404     H
H        0.035   0.4927   0.1273     H
H        0.035   0.5073   0.6273     H
H       0.0351   0.0206   0.1264     H
H       0.0351   0.9794   0.6264     H
O      0.03826   0.2438  0.27056     O
O      0.03826   0.7562  0.77056     O
H       0.0392   0.1207   0.4422     H
H       0.0392   0.8793   0.9422     H
H       0.0463   0.4106   0.5519     H
H       0.0463   0.5894   0.0519     H
H       0.0473   0.0707   0.5477     H
H       0.0473   0.9293   0.0477     H
Mg     0.05205   0.1377  0.30782    Mg
Mg     0.05205   0.8623  0.80782    Mg
Mg     0.05954  0.34489  0.29759    Mg
Mg     0.05954  0.65511  0.79759    Mg
O      0.07129   0.3209   0.3936     O
O      0.07129   0.6791   0.8936     O
O      0.07193   0.1821   0.4023     O
O      0.07193   0.8179   0.9023     O
C      0.07652   0.2537   0.4257     C
C      0.07652   0.7463   0.9257     C
O      0.08409   0.1554   0.2783     O
O      0.08409   0.8446   0.7783     O
O      0.08776   0.2945   0.2758     O
O      0.08776   0.7055   0.7758     O
C      0.09002   0.2592   0.5016     C
C      0.09002   0.7408   0.0016     C
H       0.0905     0.38   0.5031     H
H       0.0905     0.62   0.0031     H
C      0.09273   0.2246   0.2616     C
C      0.09273   0.7754   0.7616     C
H       0.0934    0.141   0.5218     H
H       0.0934    0.859   0.0218     H
C      0.09596   0.3345    0.531     C
C      0.09596   0.6655    0.031     C
C      0.09737   0.1925   0.5412     C
C      0.09737   0.8075   0.0412     C
H       0.1083   0.0891   0.2141     H
H       0.1083   0.9109   0.7141     H
C       0.1093   0.3469   0.5984     C
C       0.1093   0.6531   0.0984     C
C      0.11124   0.2116   0.2234     C
C      0.11124   0.7884   0.7234     C
C      0.11125   0.2002   0.6131     C
C      0.11125   0.7998   0.1131     C
H       0.1131   0.3994   0.6159     H
H       0.1131   0.6006   0.1159     H
C      0.11516   0.1357   0.2021     C
C      0.11516   0.8643   0.7021     C
C      0.11705   0.2806   0.6402     C
C      0.11705   0.7194   0.1402     C
H       0.1174   0.0793   0.6377     H
H       0.1174   0.9207   0.1377     H
H       0.1194   0.3317   0.2257     H
H       0.1194   0.6683   0.7257     H
C      0.12057   0.1316   0.6557     C
C      0.12057   0.8684   0.1557     C
C      0.12184   0.2821   0.2081     C
C      0.12184   0.7179   0.7081     C
C      0.13001   0.1315   0.1613     C
C      0.13001   0.8685   0.6613     C
C      0.13237   0.2866   0.7102     C
C      0.13237   0.7134   0.2102     C
H       0.1334    0.081   0.1468     H
H       0.1334    0.919   0.6468     H
C      0.13416   0.1432   0.7232     C
C      0.13416   0.8568   0.2232     C
C      0.13546   0.2797   0.1684     C
C      0.13546   0.7203   0.6684     C
H       0.1373   0.3377     0.73     H
H       0.1373   0.6623     0.23     H
H       0.1394   0.0982   0.7516     H
H       0.1394   0.9018   0.2516     H
C       0.1396   0.2014   0.1428     C
C       0.1396   0.7986   0.6428     C
C      0.14013   0.2179   0.7497     C
C      0.14013   0.7821   0.2497     C
H       0.1406   0.3956   0.1624     H
H       0.1406   0.6044   0.6624     H
C       0.1438   0.3453   0.1474     C
C       0.1438   0.6547   0.6474     C
C      0.15343   0.1968   0.0967     C
C      0.15343   0.8032   0.5967     C
H       0.1567   0.1466   0.0815     H
H       0.1567   0.8534   0.5815     H
C      0.15706   0.2316   0.8266     C
C      0.15706   0.7684   0.3266     C
C      0.15796   0.3443   0.1018     C
C      0.15796   0.6557   0.6018     C
C      0.16141   0.2677   0.0762     C
C      0.16141   0.7323   0.5762     C
O      0.16316   0.3058   0.8445     O
O      0.16316   0.6942   0.3445     O
O      0.16365   0.1688   0.8614     O
O      0.16365   0.8312   0.3614     O
H       0.1644    0.392   0.0902     H
H       0.1644    0.608   0.5902     H
C      0.17408   0.2657   0.0244     C
C      0.17408   0.7343   0.5244     C
O      0.17803    0.332   0.0019     O
O      0.17803    0.668   0.5019     O
O      0.17876   0.1941   0.0086     O
O      0.17876   0.8059   0.5086     O
Mg        0.19  0.35636   0.9282    Mg
Mg        0.19  0.64364   0.4282    Mg
Mg     0.19685  0.14812  0.94934    Mg
Mg     0.19685  0.85188  0.44934    Mg
H       0.2002   0.0684   0.1924     H
H       0.2002   0.9316   0.6924     H
H       0.2096   0.1137   0.1073     H
H       0.2096   0.8863   0.6073     H
H       0.2115   0.0231    0.794     H
H       0.2115   0.9769    0.294     H
O      0.21159   0.2584  0.94628     O
O      0.21159   0.7416  0.44628     O
H        0.212   0.3913   0.2344     H
H        0.212   0.6087   0.7344     H
C      0.21579   0.0502   0.1878     C
C      0.21579   0.9498   0.6878     C
O      0.21646   0.1035   0.8932     O
O      0.21646   0.8965   0.3932     O
H       0.2199    0.344   0.1477     H
H       0.2199    0.656   0.6477     H
H       0.2205     0.49   0.3288     H
H       0.2205     0.51   0.8288     H
O      0.22173   0.4116   0.9136     O
O      0.22173   0.5884   0.4136     O
C      0.22191   0.0782   0.1382     C
C      0.22191   0.9218   0.6382     C
C       0.2269   0.0404   0.7879     C
C       0.2269   0.9596   0.2879     C
C      0.22742   0.4094   0.2292     C
C      0.22742   0.5906   0.7292     C
C      0.23233   0.3798    0.178     C
C      0.23233   0.6202    0.678     C
C      0.23313   0.0075    0.734     C
C      0.23313   0.9925    0.234     C
C      0.23687    0.497   0.8261     C
C      0.23687    0.503   0.3261     C
O      0.23731   0.1469   0.0376     O
O      0.23731   0.8531   0.5376     O
C       0.2379   0.1294   0.8878     C
C       0.2379   0.8706   0.3878     C
C      0.24401   0.4658   0.2751     C
C      0.24401   0.5342   0.7751     C
C      0.24419   0.0984   0.8306     C
C      0.24419   0.9016   0.3306     C
C       0.2454   0.0583    0.129     C
C       0.2454   0.4002    0.918     C
C       0.2454   0.5998    0.418     C
C       0.2454   0.9417    0.629     C
O      0.24574   0.3192   0.0755     O
O      0.24574   0.6808   0.5755     O
Mg        0.25     0.25      0.0    Mg
Mg        0.25     0.75      0.5    Mg
O      0.25426   0.1808   0.9245     O
O      0.25426   0.8192   0.4245     O
C       0.2546   0.0998    0.082     C
C       0.2546   0.4417    0.871     C
C       0.2546   0.5583    0.371     C
C       0.2546   0.9002    0.582     C
C      0.25581   0.4016   0.1694     C
C      0.25581   0.5984   0.6694     C
C      0.25599   0.0342   0.7249     C
C      0.25599   0.9658   0.2249     C
C       0.2621   0.3706   0.1122     C
C       0.2621   0.6294   0.6122     C
O      0.26269   0.3531   0.9624     O
O      0.26269   0.6469   0.4624     O
C      0.26313    0.003   0.1739     C
C      0.26313    0.997   0.6739     C
C      0.26687   0.4925    0.266     C
C      0.26687   0.5075    0.766     C
C      0.26767   0.1202    0.822     C
C      0.26767   0.8798    0.322     C
C      0.27258   0.0906   0.7708     C
C      0.27258   0.9094   0.2708     C
C       0.2731   0.4596   0.2121     C
C       0.2731   0.5404   0.7121     C
C      0.27809   0.4218   0.8618     C
C      0.27809   0.5782   0.3618     C
O      0.27827   0.0884   0.0864     O
O      0.27827   0.9116   0.5864     O
H       0.2795     0.01   0.6712     H
H       0.2795     0.99   0.1712     H
H       0.2801    0.156   0.8523     H
H       0.2801    0.844   0.3523     H
O      0.28354   0.3965   0.1068     O
O      0.28354   0.6035   0.6068     O
C      0.28421   0.4498   0.8122     C
C      0.28421   0.5502   0.3122     C
H        0.288   0.1087   0.7656     H
H        0.288   0.8913   0.2656     H
O      0.28841   0.2416  0.05372     O
O      0.28841   0.7584  0.55372     O
H       0.2885   0.4769    0.206     H
H       0.2885   0.5231    0.706     H
H       0.2904   0.3863   0.8927     H
H       0.2904   0.6137   0.3927     H
H       0.2998   0.4316   0.8076     H
H       0.2998   0.5684   0.3076     H
Mg     0.30315  0.35188  0.05066    Mg
Mg     0.30315  0.64812  0.55066    Mg
Mg        0.31  0.14364   0.0718    Mg
Mg        0.31  0.85636   0.5718    Mg
O      0.32124   0.3059   0.9914     O
O      0.32124   0.6941   0.4914     O
O      0.32197    0.168   0.9981     O
O      0.32197    0.832   0.4981     O
C      0.32592   0.2343   0.9756     C
C      0.32592   0.7657   0.4756     C
H       0.3356    0.108   0.9098     H
H       0.3356    0.892   0.4098     H
O      0.33635   0.3312   0.1386     O
O      0.33635   0.6688   0.6386     O
O      0.33684   0.1942   0.1555     O
O      0.33684   0.8058   0.6555     O
C      0.33859   0.2323   0.9238     C
C      0.33859   0.7677   0.4238     C
C      0.34204   0.1557   0.8982     C
C      0.34204   0.8443   0.3982     C
C      0.34294   0.2684   0.1734     C
C      0.34294   0.7316   0.6734     C
H       0.3433   0.3534   0.9185     H
H       0.3433   0.6466   0.4185     H
C      0.34657   0.3032   0.9033     C
C      0.34657   0.6968   0.4033     C
C       0.3562   0.1547   0.8526     C
C       0.3562   0.8453   0.3526     C
H       0.3594   0.1044   0.8376     H
H       0.3594   0.8956   0.3376     H
C      0.35987   0.2821   0.2503     C
C      0.35987   0.7179   0.7503     C
C       0.3604   0.2986   0.8572     C
C       0.3604   0.7014   0.3572     C
H       0.3606   0.4018   0.2484     H
H       0.3606   0.5982   0.7484     H
H       0.3627   0.1623     0.27     H
H       0.3627   0.8377     0.77     H
C      0.36454   0.2203   0.8316     C
C      0.36454   0.7797   0.3316     C
C      0.36584   0.3568   0.2768     C
C      0.36584   0.6432   0.7768     C
H       0.3666    0.419   0.8532     H
H       0.3666    0.581   0.3532     H
C      0.36763   0.2134   0.2898     C
C      0.36763   0.7866   0.7898     C
C      0.36999   0.3685   0.8387     C
C      0.36999   0.6315   0.3387     C
C      0.37816   0.2179   0.7919     C
C      0.37816   0.7821   0.2919     C
C      0.37943   0.3684   0.3443     C
C      0.37943   0.6316   0.8443     C
H       0.3806   0.1683   0.7743     H
H       0.3806   0.8317   0.2743     H
H       0.3826   0.4207   0.3623     H
H       0.3826   0.5793   0.8623     H
C      0.38295   0.2194   0.3598     C
C      0.38295   0.7806   0.8598     C
C      0.38484   0.3643   0.7979     C
C      0.38484   0.6357   0.2979     C
H       0.3869   0.1006   0.3841     H
H       0.3869   0.8994   0.8841     H
C      0.38875   0.2998   0.3869     C
C      0.38875   0.7002   0.8869     C
C      0.38876   0.2884   0.7766     C
C      0.38876   0.7116   0.2766     C
C       0.3907   0.1531   0.4016     C
C       0.3907   0.8469   0.9016     C
H       0.3917   0.4109   0.7859     H
H       0.3917   0.5891   0.2859     H
C      0.40263   0.3075   0.4588     C
C      0.40263   0.6925   0.9588     C
C      0.40404   0.1655    0.469     C
C      0.40404   0.8345    0.969     C
H       0.4066    0.359   0.4782     H
H       0.4066    0.641   0.9782     H
C      0.40727   0.2754   0.7384     C
C      0.40727   0.7246   0.2384     C
H       0.4095     0.12   0.4969     H
H       0.4095     0.88   0.9969     H
C      0.40998   0.2408   0.4984     C
C      0.40998   0.7592   0.9984     C
O      0.41224   0.2055   0.7242     O
O      0.41224   0.7945   0.2242     O
O      0.41591   0.3446   0.7217     O
O      0.41591   0.6554   0.2217     O
C      0.42348   0.2463   0.5743     C
C      0.42348   0.7537   0.0743     C
O      0.42807   0.3179   0.5977     O
O      0.42807   0.6821   0.0977     O
O      0.42871   0.1791   0.6064     O
O      0.42871   0.8209   0.1064     O
Mg     0.44046  0.15511  0.70241    Mg
Mg     0.44046  0.84489  0.20241    Mg
Mg     0.44795   0.3623  0.69218    Mg
Mg     0.44795   0.6377  0.19218    Mg
H       0.4527   0.4293   0.4523     H
H       0.4527   0.5707   0.9523     H
H       0.4537   0.0894   0.4481     H
H       0.4537   0.9106   0.9481     H
H       0.4608   0.3793   0.5578     H
H       0.4608   0.6207   0.0578     H
O      0.46174   0.2562  0.72944     O
O      0.46174   0.7438  0.22944     O
H       0.4649   0.4794   0.8736     H
H       0.4649   0.5206   0.3736     H
H        0.465   0.0073   0.8727     H
H        0.465   0.9927   0.3727     H
H       0.4658   0.1363   0.5596     H
H       0.4658   0.8637   0.0596     H
O      0.46589   0.1043   0.7879     O
O      0.46589   0.8957   0.2879     O
C       0.4689   0.0699   0.4842     C
C       0.4689   0.9301   0.9842     C
C      0.46913   0.4419   0.4879     C
C      0.46913   0.5581   0.9879     C
O      0.47108   0.4106   0.7839     O
O      0.47108   0.5894   0.2839     O
C      0.47373   0.4108   0.5502     C
C      0.47373   0.5892   0.0502     C
C       0.4771   0.0999   0.5501     C
C       0.4771   0.9001   0.0501     C
C       0.4807   0.0245   0.9085     C
C       0.4807   0.9755   0.4085     C
C      0.48193   0.4724   0.9087     C
C      0.48193   0.5276   0.4087     C
C       0.4871    0.003   0.4765     C
C       0.4871    0.997   0.9765     C
C      0.48762   0.4916   0.4742     C
C      0.48762   0.5084   0.9742     C
O      0.48809   0.3491   0.6791     O
O      0.48809   0.6509   0.1791     O
C       0.4904   0.1245   0.8305     C
C       0.4904   0.8755   0.3305     C
C      0.49321   0.3953   0.8277     C
C      0.49321   0.6047   0.3277     C
O      0.49373   0.1705   0.6764     O
O      0.49373   0.8295   0.1764     O
C       0.4986   0.0764   0.8987     C
C       0.4986   0.9236   0.3987     C
C        0.499   0.4294   0.6016     C
C        0.499   0.5706   0.1016     C
Mg         0.5  0.25288     0.75    Mg
Mg         0.5  0.74712     0.25    Mg
C        0.501   0.4294   0.8984     C
C        0.501   0.5706   0.3984     C
C       0.5014   0.0764   0.6013     C
C       0.5014   0.9236   0.1013     C
O      0.50627   0.1705   0.8236     O
O      0.50627   0.8295   0.3236     O
C      0.50679   0.3953   0.6723     C
C      0.50679   0.6047   0.1723     C
C       0.5096   0.1245   0.6695     C
C       0.5096   0.8755   0.1695     C
O      0.51191   0.3491   0.8209     O
O      0.51191   0.6509   0.3209     O
C      0.51238   0.4916   0.0258     C
C      0.51238   0.5084   0.5258     C
C       0.5129    0.003   0.0235     C
C       0.5129    0.997   0.5235     C
C      0.51807   0.4724   0.5913     C
C      0.51807   0.5276   0.0913     C
C       0.5193   0.0245   0.5915     C
C       0.5193   0.9755   0.0915     C
C       0.5229   0.0999   0.9499     C
C       0.5229   0.9001   0.4499     C
C      0.52627   0.4108   0.9498     C
C      0.52627   0.5892   0.4498     C
O      0.52892   0.4106   0.7161     O
O      0.52892   0.5894   0.2161     O
C      0.53087   0.4419   0.0121     C
C      0.53087   0.5581   0.5121     C
C       0.5311   0.0699   0.0158     C
C       0.5311   0.9301   0.5158     C
O      0.53411   0.1043   0.7121     O
O      0.53411   0.8957   0.2121     O
H       0.5342   0.1363   0.9404     H
H       0.5342   0.8637   0.4404     H
H        0.535   0.0073   0.6273     H
H        0.535   0.9927   0.1273     H
H       0.5351   0.4794   0.6264     H
H       0.5351   0.5206   0.1264     H
O      0.53826   0.2562  0.77056     O
O      0.53826   0.7438  0.27056     O
H       0.5392   0.3793   0.9422     H
H       0.5392   0.6207   0.4422     H
H       0.5463   0.0894   0.0519     H
H       0.5463   0.9106   0.5519     H
H       0.5473   0.4293   0.0477     H
H       0.5473   0.5707   0.5477     H
Mg     0.55205   0.3623  0.80782    Mg
Mg     0.55205   0.6377  0.30782    Mg
Mg     0.55954  0.15511  0.79759    Mg
Mg     0.55954  0.84489  0.29759    Mg
O      0.57129   0.1791   0.8936     O
O      0.57129   0.8209   0.3936     O
O      0.57193   0.3179   0.9023     O
O      0.57193   0.6821   0.4023     O
C      0.57652   0.2463   0.9257     C
C      0.57652   0.7537   0.4257     C
O      0.58409   0.3446   0.7783     O
O      0.58409   0.6554   0.2783     O
O      0.58776   0.2055   0.7758     O
O      0.58776   0.7945   0.2758     O
C      0.59002   0.2408   0.0016     C
C      0.59002   0.7592   0.5016     C
H       0.5905     0.12   0.0031     H
H       0.5905     0.88   0.5031     H
C      0.59273   0.2754   0.7616     C
C      0.59273   0.7246   0.2616     C
H       0.5934    0.359   0.0218     H
H       0.5934    0.641   0.5218     H
C      0.59596   0.1655    0.031     C
C      0.59596   0.8345    0.531     C
C      0.59737   0.3075   0.0412     C
C      0.59737   0.6925   0.5412     C
H       0.6083   0.4109   0.7141     H
H       0.6083   0.5891   0.2141     H
C       0.6093   0.1531   0.0984     C
C       0.6093   0.8469   0.5984     C
C      0.61124   0.2884   0.7234     C
C      0.61124   0.7116   0.2234     C
C      0.61125   0.2998   0.1131     C
C      0.61125   0.7002   0.6131     C
H       0.6131   0.1006   0.1159     H
H       0.6131   0.8994   0.6159     H
C      0.61516   0.3643   0.7021     C
C      0.61516   0.6357   0.2021     C
C      0.61705   0.2194   0.1402     C
C      0.61705   0.7806   0.6402     C
H       0.6174   0.4207   0.1377     H
H       0.6174   0.5793   0.6377     H
H       0.6194   0.1683   0.7257     H
H       0.6194   0.8317   0.2257     H
C      0.62057   0.3684   0.1557     C
C      0.62057   0.6316   0.6557     C
C      0.62184   0.2179   0.7081     C
C      0.62184   0.7821   0.2081     C
C      0.63001   0.3685   0.6613     C
C      0.63001   0.6315   0.1613     C
C      0.63237   0.2134   0.2102     C
C      0.63237   0.7866   0.7102     C
H       0.6334    0.419   0.6468     H
H       0.6334    0.581   0.1468     H
C      0.63416   0.3568   0.2232     C
C      0.63416   0.6432   0.7232     C
C      0.63546   0.2203   0.6684     C
C      0.63546   0.7797   0.1684     C
H       0.6373   0.1623     0.23     H
H       0.6373   0.8377     0.73     H
H       0.6394   0.4018   0.2516     H
H       0.6394   0.5982   0.7516     H
C       0.6396   0.2986   0.6428     C
C       0.6396   0.7014   0.1428     C
C      0.64013   0.2821   0.2497     C
C      0.64013   0.7179   0.7497     C
H       0.6406   0.1044   0.6624     H
H       0.6406   0.8956   0.1624     H
C       0.6438   0.1547   0.6474     C
C       0.6438   0.8453   0.1474     C
C      0.65343   0.3032   0.5967     C
C      0.65343   0.6968   0.0967     C
H       0.6567   0.3534   0.5815     H
H       0.6567   0.6466   0.0815     H
C      0.65706   0.2684   0.3266     C
C      0.65706   0.7316   0.8266     C
C      0.65796   0.1557   0.6018     C
C      0.65796   0.8443   0.1018     C
C      0.66141   0.2323   0.5762     C
C      0.66141   0.7677   0.0762     C
O      0.66316   0.1942   0.3445     O
O      0.66316   0.8058   0.8445     O
O      0.66365   0.3312   0.3614     O
O      0.66365   0.6688   0.8614     O
H       0.6644    0.108   0.5902     H
H       0.6644    0.892   0.0902     H
C      0.67408   0.2343   0.5244     C
C      0.67408   0.7657   0.0244     C
O      0.67803    0.168   0.5019     O
O      0.67803    0.832   0.0019     O
O      0.67876   0.3059   0.5086     O
O      0.67876   0.6941   0.0086     O
Mg        0.69  0.14364   0.4282    Mg
Mg        0.69  0.85636   0.9282    Mg
Mg     0.69685  0.35188  0.44934    Mg
Mg     0.69685  0.64812  0.94934    Mg
H       0.7002   0.4316   0.6924     H
H       0.7002   0.5684   0.1924     H
H       0.7096   0.3863   0.6073     H
H       0.7096   0.6137   0.1073     H
H       0.7115   0.4769    0.294     H
H       0.7115   0.5231    0.794     H
O      0.71159   0.2416  0.44628     O
O      0.71159   0.7584  0.94628     O
H        0.712   0.1087   0.7344     H
H        0.712   0.8913   0.2344     H
C      0.71579   0.4498   0.6878     C
C      0.71579   0.5502   0.1878     C
O      0.71646   0.3965   0.3932     O
O      0.71646   0.6035   0.8932     O
H       0.7199    0.156   0.6477     H
H       0.7199    0.844   0.1477     H
H       0.7205     0.01   0.8288     H
H       0.7205     0.99   0.3288     H
O      0.72173   0.0884   0.4136     O
O      0.72173   0.9116   0.9136     O
C      0.72191   0.4218   0.6382     C
C      0.72191   0.5782   0.1382     C
C       0.7269   0.4596   0.2879     C
C       0.7269   0.5404   0.7879     C
C      0.72742   0.0906   0.7292     C
C      0.72742   0.9094   0.2292     C
C      0.73233   0.1202    0.678     C
C      0.73233   0.8798    0.178     C
C      0.73313   0.4925    0.234     C
C      0.73313   0.5075    0.734     C
C      0.73687    0.003   0.3261     C
C      0.73687    0.997   0.8261     C
O      0.73731   0.3531   0.5376     O
O      0.73731   0.6469   0.0376     O
C       0.7379   0.3706   0.3878     C
C       0.7379   0.6294   0.8878     C
C      0.74401   0.0342   0.7751     C
C      0.74401   0.9658   0.2751     C
C      0.74419   0.4016   0.3306     C
C      0.74419   0.5984   0.8306     C
C       0.7454   0.0998    0.418     C
C       0.7454   0.4417    0.629     C
C       0.7454   0.5583    0.129     C
C       0.7454   0.9002    0.918     C
O      0.74574   0.1808   0.5755     O
O      0.74574   0.8192   0.0755     O
Mg        0.75     0.25      0.5    Mg
Mg        0.75     0.75      0.0    Mg
O      0.75426   0.3192   0.4245     O
O      0.75426   0.6808   0.9245     O
C       0.7546   0.0583    0.371     C
C       0.7546   0.4002    0.582     C
C       0.7546   0.5998    0.082     C
C       0.7546   0.9417    0.871     C
C      0.75581   0.0984   0.6694     C
C      0.75581   0.9016   0.1694     C
C      0.75599   0.4658   0.2249     C
C      0.75599   0.5342   0.7249     C
C       0.7621   0.1294   0.6122     C
C       0.7621   0.8706   0.1122     C
O      0.76269   0.1469   0.4624     O
O      0.76269   0.8531   0.9624     O
C      0.76313    0.497   0.6739     C
C      0.76313    0.503   0.1739     C
C      0.76687   0.0075    0.766     C
C      0.76687   0.9925    0.266     C
C      0.76767   0.3798    0.322     C
C      0.76767   0.6202    0.822     C
C      0.77258   0.4094   0.2708     C
C      0.77258   0.5906   0.7708     C
C       0.7731   0.0404   0.7121     C
C       0.7731   0.9596   0.2121     C
C      0.77809   0.0782   0.3618     C
C      0.77809   0.9218   0.8618     C
O      0.77827   0.4116   0.5864     O
O      0.77827   0.5884   0.0864     O
H       0.7795     0.49   0.1712     H
H       0.7795     0.51   0.6712     H
H       0.7801    0.344   0.3523     H
H       0.7801    0.656   0.8523     H
O      0.78354   0.1035   0.6068     O
O      0.78354   0.8965   0.1068     O
C      0.78421   0.0502   0.3122     C
C      0.78421   0.9498   0.8122     C
H        0.788   0.3913   0.2656     H
H        0.788   0.6087   0.7656     H
O      0.78841   0.2584  0.55372     O
O      0.78841   0.7416  0.05372     O
H       0.7885   0.0231    0.706     H
H       0.7885   0.9769    0.206     H
H       0.7904   0.1137   0.3927     H
H       0.7904   0.8863   0.8927     H
H       0.7998   0.0684   0.3076     H
H       0.7998   0.9316   0.8076     H
Mg     0.80315  0.14812  0.55066    Mg
Mg     0.80315  0.85188  0.05066    Mg
Mg        0.81  0.35636   0.5718    Mg
Mg        0.81  0.64364   0.0718    Mg
O      0.82124   0.1941   0.4914     O
O      0.82124   0.8059   0.9914     O
O      0.82197    0.332   0.4981     O
O      0.82197    0.668   0.9981     O
C      0.82592   0.2657   0.4756     C
C      0.82592   0.7343   0.9756     C
H       0.8356    0.392   0.4098     H
H       0.8356    0.608   0.9098     H
O      0.83635   0.1688   0.6386     O
O      0.83635   0.8312   0.1386     O
O      0.83684   0.3058   0.6555     O
O      0.83684   0.6942   0.1555     O
C      0.83859   0.2677   0.4238     C
C      0.83859   0.7323   0.9238     C
C      0.84204   0.3443   0.3982     C
C      0.84204   0.6557   0.8982     C
C      0.84294   0.2316   0.6734     C
C      0.84294   0.7684   0.1734     C
H       0.8433   0.1466   0.4185     H
H       0.8433   0.8534   0.9185     H
C      0.84657   0.1968   0.4033     C
C      0.84657   0.8032   0.9033     C
C       0.8562   0.3453   0.3526     C
C       0.8562   0.6547   0.8526     C
H       0.8594   0.3956   0.3376     H
H       0.8594   0.6044   0.8376     H
C      0.85987   0.2179   0.7503     C
C      0.85987   0.7821   0.2503     C
C       0.8604   0.2014   0.3572     C
C       0.8604   0.7986   0.8572     C
H       0.8606   0.0982   0.7484     H
H       0.8606   0.9018   0.2484     H
H       0.8627   0.3377     0.77     H
H       0.8627   0.6623     0.27     H
C      0.86454   0.2797   0.3316     C
C      0.86454   0.7203   0.8316     C
C      0.86584   0.1432   0.7768     C
C      0.86584   0.8568   0.2768     C
H       0.8666    0.081   0.3532     H
H       0.8666    0.919   0.8532     H
C      0.86763   0.2866   0.7898     C
C      0.86763   0.7134   0.2898     C
C      0.86999   0.1315   0.3387     C
C      0.86999   0.8685   0.8387     C
C      0.87816   0.2821   0.2919     C
C      0.87816   0.7179   0.7919     C
C      0.87943   0.1316   0.8443     C
C      0.87943   0.8684   0.3443     C
H       0.8806   0.3317   0.2743     H
H       0.8806   0.6683   0.7743     H
H       0.8826   0.0793   0.8623     H
H       0.8826   0.9207   0.3623     H
C      0.88295   0.2806   0.8598     C
C      0.88295   0.7194   0.3598     C
C      0.88484   0.1357   0.2979     C
C      0.88484   0.8643   0.7979     C
H       0.8869   0.3994   0.8841     H
H       0.8869   0.6006   0.3841     H
C      0.88875   0.2002   0.8869     C
C      0.88875   0.7998   0.3869     C
C      0.88876   0.2116   0.2766     C
C      0.88876   0.7884   0.7766     C
C       0.8907   0.3469   0.9016     C
C       0.8907   0.6531   0.4016     C
H       0.8917   0.0891   0.2859     H
H       0.8917   0.9109   0.7859     H
C      0.90263   0.1925   0.9588     C
C      0.90263   0.8075   0.4588     C
C      0.90404   0.3345    0.969     C
C      0.90404   0.6655    0.469     C
H       0.9066    0.141   0.9782     H
H       0.9066    0.859   0.4782     H
C      0.90727   0.2246   0.2384     C
C      0.90727   0.7754   0.7384     C
H       0.9095     0.38   0.9969     H
H       0.9095     0.62   0.4969     H
C      0.90998   0.2592   0.9984     C
C      0.90998   0.7408   0.4984     C
O      0.91224   0.2945   0.2242     O
O      0.91224   0.7055   0.7242     O
O      0.91591   0.1554   0.2217     O
O      0.91591   0.8446   0.7217     O
C      0.92348   0.2537   0.0743     C
C      0.92348   0.7463   0.5743     C
O      0.92807   0.1821   0.0977     O
O      0.92807   0.8179   0.5977     O
O      0.92871   0.3209   0.1064     O
O      0.92871   0.6791   0.6064     O
Mg     0.94046  0.34489  0.20241    Mg
Mg     0.94046  0.65511  0.70241    Mg
Mg     0.94795   0.1377  0.19218    Mg
Mg     0.94795   0.8623  0.69218    Mg
H       0.9527   0.0707   0.9523     H
H       0.9527   0.9293   0.4523     H
H       0.9537   0.4106   0.9481     H
H       0.9537   0.5894   0.4481     H
H       0.9608   0.1207   0.0578     H
H       0.9608   0.8793   0.5578     H
O      0.96174   0.2438  0.22944     O
O      0.96174   0.7562  0.72944     O
H       0.9649   0.0206   0.3736     H
H       0.9649   0.9794   0.8736     H
H        0.965   0.4927   0.3727     H
H        0.965   0.5073   0.8727     H
H       0.9658   0.3637   0.0596     H
H       0.9658   0.6363   0.5596     H
O      0.96589   0.3957   0.2879     O
O      0.96589   0.6043   0.7879     O
C       0.9689   0.4301   0.9842     C
C       0.9689   0.5699   0.4842     C
C      0.96913   0.0581   0.9879     C
C      0.96913   0.9419   0.4879     C
O      0.97108   0.0894   0.2839     O
O      0.97108   0.9106   0.7839     O
C      0.97373   0.0892   0.0502     C
C      0.97373   0.9108   0.5502     C
C       0.9771   0.4001   0.0501     C
C       0.9771   0.5999   0.5501     C
C       0.9807   0.4755   0.4085     C
C       0.9807   0.5245   0.9085     C
C      0.98193   0.0276   0.4087     C
C      0.98193   0.9724   0.9087     C
C       0.9871    0.497   0.9765     C
C       0.9871    0.503   0.4765     C
C      0.98762   0.0084   0.9742     C
C      0.98762   0.9916   0.4742     C
O      0.98809   0.1509   0.1791     O
O      0.98809   0.8491   0.6791     O
C       0.9904   0.3755   0.3305     C
C       0.9904   0.6245   0.8305     C
C      0.99321   0.1047   0.3277     C
C      0.99321   0.8953   0.8277     C
O      0.99373   0.3295   0.1764     O
O      0.99373   0.6705   0.6764     O
C       0.9986   0.4236   0.3987     C
C       0.9986   0.5764   0.8987     C
C        0.999   0.0706   0.1016     C
C        0.999   0.9294   0.6016     C
