data_I
_chemical_name_common  '/home/zhangsd/repos/MofS-CGCNN/ML/data/SSD/clean_cifs/TAGTED_clean'
_cell_length_a 22.80300
_cell_length_b 13.45710
_cell_length_c 15.56370
_cell_angle_alpha 90.00000
_cell_angle_beta  93.76100
_cell_angle_gamma 90.00000
_space_group_name_H-M_alt      'P 1'


loop_
_space_group_symop_operation_xyz
  'x, y, z' 

loop_
_atom_site_label
_atom_site_fract_x
_atom_site_fract_y
_atom_site_fract_z
_atom_site_type_symbol
S          0.0  0.09549      0.5     S
S          0.0  0.99283      0.0     S
C       0.0168   0.9146   0.4635     C
C       0.0213   0.1753   0.0357     C
C       0.0326   0.0075   0.4402     C
C       0.0354   0.0802   0.0614     C
C       0.0713   0.0376   0.3703     C
O       0.0763   0.1282   0.3591     O
C       0.0789   0.0466   0.1318     C
O       0.0897   0.9561   0.1363     O
O       0.0935   0.9679   0.3301     O
Mg      0.0942  0.22721  0.26594    Mg
O      0.10407    0.108   0.1835     O
O       0.1131   0.3377    0.364     O
O       0.1184   0.3184   0.1705     O
C       0.1283   0.4508   0.0313     C
C       0.1495   0.5089   0.9582     C
Mg       0.154  0.97119  0.23796    Mg
C       0.1651   0.3133   0.1322     C
C       0.1673    0.316   0.3735     C
C        0.168   0.3817   0.0581     C
S      0.17445  0.45765  0.50302     S
O       0.1893   0.2526   0.3265     O
C       0.2032   0.4798   0.9356     C
C       0.2042   0.3673   0.4406     C
O       0.2082   0.2592   0.1512     O
O       0.2082   0.6191   0.6324     O
O       0.2107   0.0473   0.3168     O
O       0.2143   0.5919    0.825     O
O       0.2149    0.981   0.1456     O
C       0.2168   0.9151   0.4683     C
S      0.23022  0.38479  0.99951     S
C       0.2373    0.522   0.8667     C
C       0.2381   0.8535   0.5371     C
C       0.2401    0.477   0.5606     C
C       0.2452   0.5517   0.6291     C
Mg     0.24815  0.69108  0.74504    Mg
Mg     0.25185  0.19108  0.25496    Mg
C       0.2548   0.0517   0.3709     C
C       0.2599    0.977   0.4394     C
C       0.2619   0.3535   0.4629     C
C       0.2627    0.022   0.1333     C
S      0.26978  0.88479  0.00049     S
C       0.2832   0.4151   0.5317     C
O       0.2851    0.481   0.8544     O
O       0.2857   0.0919    0.175     O
O       0.2893   0.5473   0.6832     O
O       0.2918   0.1191   0.3676     O
O       0.2918   0.7592   0.8488     O
C       0.2958   0.8673   0.5594     C
C       0.2968   0.9798   0.0644     C
O       0.3107   0.7526   0.6735     O
S      0.32555  0.95765  0.49698     S
C        0.332   0.8817   0.9419     C
C       0.3327    0.816   0.6265     C
C       0.3349   0.8133   0.8678     C
Mg       0.346  0.47119  0.76204    Mg
C       0.3505   0.0089   0.0418     C
C       0.3717   0.9508   0.9687     C
O       0.3816   0.8184   0.8295     O
O       0.3869   0.8377    0.636     O
O      0.39593    0.608   0.8165     O
Mg      0.4058  0.72721  0.73406    Mg
O       0.4065   0.4679   0.6699     O
O       0.4103   0.4561   0.8637     O
C       0.4211   0.5466   0.8682     C
O       0.4237   0.6282   0.6409     O
C       0.4287   0.5376   0.6297     C
C       0.4646   0.5802   0.9386     C
C       0.4674   0.5075   0.5598     C
C       0.4787   0.6753   0.9643     C
C       0.4832   0.4146   0.5365     C
S          0.5  0.49283      0.0     S
S          0.5  0.59549      0.5     S
C       0.5168   0.4146   0.4635     C
C       0.5213   0.6753   0.0357     C
C       0.5326   0.5075   0.4402     C
C       0.5354   0.5802   0.0614     C
C       0.5713   0.5376   0.3703     C
O       0.5763   0.6282   0.3591     O
C       0.5789   0.5466   0.1318     C
O       0.5897   0.4561   0.1363     O
O       0.5935   0.4679   0.3301     O
Mg      0.5942  0.72721  0.26594    Mg
O      0.60407    0.608   0.1835     O
O       0.6131   0.8377    0.364     O
O       0.6184   0.8184   0.1705     O
C       0.6283   0.9508   0.0313     C
C       0.6495   0.0089   0.9582     C
Mg       0.654  0.47119  0.23796    Mg
C       0.6651   0.8133   0.1322     C
C       0.6673    0.816   0.3735     C
C        0.668   0.8817   0.0581     C
S      0.67445  0.95765  0.50302     S
O       0.6893   0.7526   0.3265     O
C       0.7032   0.9798   0.9356     C
C       0.7042   0.8673   0.4406     C
O       0.7082   0.1191   0.6324     O
O       0.7082   0.7592   0.1512     O
O       0.7107   0.5473   0.3168     O
O       0.7143   0.0919    0.825     O
O       0.7149    0.481   0.1456     O
C       0.7168   0.4151   0.4683     C
S      0.73022  0.88479  0.99951     S
C       0.7373    0.022   0.8667     C
C       0.7381   0.3535   0.5371     C
C       0.7401    0.977   0.5606     C
C       0.7452   0.0517   0.6291     C
Mg     0.74815  0.19108  0.74504    Mg
Mg     0.75185  0.69108  0.25496    Mg
C       0.7548   0.5517   0.3709     C
C       0.7599    0.477   0.4394     C
C       0.7619   0.8535   0.4629     C
C       0.7627    0.522   0.1333     C
S      0.76978  0.38479  0.00049     S
C       0.7832   0.9151   0.5317     C
O       0.7851    0.981   0.8544     O
O       0.7857   0.5919    0.175     O
O       0.7893   0.0473   0.6832     O
O       0.7918   0.2592   0.8488     O
O       0.7918   0.6191   0.3676     O
C       0.7958   0.3673   0.5594     C
C       0.7968   0.4798   0.0644     C
O       0.8107   0.2526   0.6735     O
S      0.82555  0.45765  0.49698     S
C        0.832   0.3817   0.9419     C
C       0.8327    0.316   0.6265     C
C       0.8349   0.3133   0.8678     C
Mg       0.846  0.97119  0.76204    Mg
C       0.8505   0.5089   0.0418     C
C       0.8717   0.4508   0.9687     C
O       0.8816   0.3184   0.8295     O
O       0.8869   0.3377    0.636     O
O      0.89593    0.108   0.8165     O
Mg      0.9058  0.22721  0.73406    Mg
O       0.9065   0.9679   0.6699     O
O       0.9103   0.9561   0.8637     O
C       0.9211   0.0466   0.8682     C
O       0.9237   0.1282   0.6409     O
C       0.9287   0.0376   0.6297     C
C       0.9646   0.0802   0.9386     C
C       0.9674   0.0075   0.5598     C
C       0.9787   0.1753   0.9643     C
C       0.9832   0.9146   0.5365     C
