data_I
_chemical_name_common  '/home/zhangsd/repos/MofS-CGCNN/ML/data/SSD/clean_cifs/TAKGOE_clean'
_cell_length_a  9.77600
_cell_length_b 16.33700
_cell_length_c 21.53400
_cell_angle_alpha 103.82000
_cell_angle_beta  100.74000
_cell_angle_gamma 95.87000
_space_group_name_H-M_alt      'P 1'


loop_
_space_group_symop_operation_xyz
  'x, y, z' 

loop_
_atom_site_label
_atom_site_fract_x
_atom_site_fract_y
_atom_site_fract_z
_atom_site_type_symbol
Cu     0.01122  0.94095  0.53717    Cu
I      0.01765  0.22328  0.53421     I
H       0.0285   0.3136   0.3268     H
Cu     0.04016  0.18735  0.40788    Cu
C       0.0455   0.4423    0.724     C
C       0.0508   0.4674   0.7905     C
O        0.051   0.5103   0.9238     O
C       0.0581    0.531   0.1123     C
C       0.0651   0.6977   0.6706     C
C       0.0669   0.5554   0.1855     C
C       0.0756   0.6047   0.3179     C
H        0.076   0.6231   0.3622     H
I      0.08137  0.97505  0.66816     I
N       0.0958   0.7473   0.6334     N
H       0.1139   0.2334    0.702     H
H       0.1234   0.4571   0.7077     H
H       0.1315   0.6284   0.7309     H
H       0.1323   0.4993   0.8192     H
H         0.15   0.8872   0.2805     H
C       0.1614   0.6621   0.7052     C
O       0.1702   0.5549   0.0942     O
H       0.1824   0.3285   0.8069     H
Cu     0.18475  0.05888  0.38233    Cu
C       0.1892   0.6009   0.2287     C
C       0.1993   0.6262   0.2968     C
C       0.2033   0.2372   0.7276     C
C       0.2297   0.7609   0.6304     C
I      0.23756  0.00696  0.50045     I
H       0.2415   0.7608   0.3981     H
C        0.245   0.2944   0.7906     C
C       0.2474   0.9029   0.2929     C
Cu      0.2485  0.17421  0.50142    Cu
H       0.2547   0.7957   0.6046     H
H        0.267   0.6152   0.2121     H
H       0.2696   0.1504   0.6633     H
La     0.27874  0.52002  0.99834    La
H        0.284   0.7957   0.2354     H
H       0.2881   0.4265   0.2593     H
C       0.2962   0.1878    0.705     C
N        0.297   0.9788   0.3357     N
I      0.30128   0.2178  0.39288     I
C       0.3029   0.6743   0.7036     C
H       0.3117   0.4421   0.1561     H
H       0.3125   0.6341   0.8156     H
C       0.3268   0.7428   0.3927     C
C       0.3271   0.8467   0.2658     C
O       0.3279   0.4018    0.915     O
C        0.329   0.6738    0.343     C
H       0.3334   0.3226   0.6206     H
C       0.3358   0.7264   0.6635     C
O        0.353   0.5879   0.9153     O
C       0.3673   0.4123   0.2436     C
H       0.3764   0.0363   0.6589     H
C       0.3768      0.3   0.8278     C
C       0.3833   0.4242   0.1822     C
C       0.3944    0.623   0.8012     C
C       0.4117   0.6394   0.7419     C
C       0.4164   0.3592   0.8936     C
C         0.42   0.3051   0.6174     C
N       0.4243   0.2372   0.5692     N
H       0.4281   0.7378    0.659     H
C       0.4301   0.1913   0.7425     C
C       0.4366   0.9978   0.3515     C
O       0.4385   0.4525   0.0644     O
H       0.4406   0.7488   0.1718     H
H       0.4479   0.8343   0.4683     H
C       0.4516   0.7865   0.4353     C
H        0.456   0.3708     0.32     H
O       0.4585   0.6359   0.0732     O
C       0.4598   0.6494   0.3371     C
H       0.4665   0.6035   0.3032     H
C       0.4684   0.3798   0.2802     C
C       0.4688   0.5737   0.9011     C
C       0.4695   0.2476    0.803     C
C       0.4732   0.0541   0.6721     C
C       0.4735   0.8658   0.2837     C
H        0.476   0.0502   0.3808     H
C       0.4938   0.5911   0.8389     C
C       0.5062   0.4089   0.1611     C
H        0.524   0.9498   0.6192     H
C       0.5265   0.1342   0.7163     C
C       0.5268   0.9459   0.3279     C
C       0.5305   0.7524    0.197     C
C       0.5312   0.4263   0.0989     C
C       0.5316   0.6202   0.7198     C
H       0.5335   0.3965   0.6968     H
C       0.5402   0.3506   0.6629     C
O       0.5415   0.3641   0.9268     O
H        0.544   0.6292     0.68     H
C       0.5484   0.2135   0.5647     C
H       0.5521   0.1657   0.5317     H
H       0.5594   0.2512   0.8282     H
O       0.5615   0.5475   0.9356     O
C       0.5634   0.0022   0.6485     C
C       0.5699   0.8087   0.2575     C
H       0.5719   0.2622    0.341     H
N       0.5757   0.7628   0.4308     N
C         0.58   0.6949   0.3826     C
C       0.5836   0.6408   0.1064     C
C       0.5883   0.3606   0.2581     C
C       0.6056    0.377   0.1988     C
C       0.6167   0.5758   0.8178     C
C       0.6232      0.7   0.1722     C
H       0.6236   0.9637   0.3411     H
C       0.6327   0.5877   0.7564     C
O        0.647   0.4121   0.0847     O
C       0.6642   0.2736   0.3365     C
H       0.6666   0.6774   0.3794     H
C        0.671   0.3262    0.657     C
O       0.6721   0.5982    0.085     O
C       0.6729   0.1533   0.7342     C
C       0.6732   0.2572   0.6073     C
H       0.6875   0.3659   0.1844     H
H       0.6883   0.5579   0.8439     H
C       0.6971   0.3257   0.2964     C
I      0.69872   0.7822  0.60712     I
N        0.703   0.0212   0.6643     N
C       0.7038   0.8122    0.295     C
H       0.7119   0.5735   0.7407     H
H        0.716   0.2043   0.7646     H
La     0.72126  0.47998  0.00166    La
H       0.7304   0.8496   0.3367     H
H        0.733   0.3848   0.7879     H
H       0.7453   0.2043   0.3954     H
Cu      0.7515  0.82579  0.49858    Cu
C       0.7526   0.0971   0.7071     C
C        0.755   0.7056   0.2094     C
H       0.7585   0.2392   0.6019     H
I      0.76244  0.99304  0.49955     I
C       0.7703   0.2391   0.3696     C
C       0.7967   0.7628   0.2724     C
C       0.8007   0.3738   0.7032     C
C       0.8108   0.3991   0.7713     C
Cu     0.81525  0.94112  0.61767    Cu
H       0.8176   0.6715   0.1931     H
O       0.8298   0.4451   0.9058     O
C       0.8386   0.3379   0.2948     C
H         0.85   0.1128   0.7195     H
H       0.8677   0.5007   0.1808     H
H       0.8685   0.3716   0.2691     H
H       0.8766   0.5429   0.2923     H
H       0.8861   0.7666    0.298     H
N       0.9042   0.2527   0.3666     N
I      0.91863  0.02495  0.33184     I
H        0.924   0.3769   0.6378     H
C       0.9244   0.3953   0.6821     C
C       0.9331   0.4446   0.8145     C
C       0.9349   0.3023   0.3294     C
C       0.9419    0.469   0.8877     C
O        0.949   0.4897   0.0762     O
C       0.9492   0.5326   0.2095     C
C       0.9545   0.5577    0.276     C
Cu     0.95984  0.81265  0.59212    Cu
H       0.9715   0.6864   0.6732     H
I      0.98235  0.77672  0.46579     I
Cu     0.98878  0.05905  0.46283    Cu
