data_I
_chemical_name_common  '/home/zhangsd/repos/MofS-CGCNN/ML/data/SSD/clean_cifs/TATPOV_clean'
_cell_length_a 10.52360
_cell_length_b 25.76800
_cell_length_c 25.95070
_cell_angle_alpha 90.00000
_cell_angle_beta  90.00000
_cell_angle_gamma 90.00000
_space_group_name_H-M_alt      'P 1'


loop_
_space_group_symop_operation_xyz
  'x, y, z' 

loop_
_atom_site_label
_atom_site_fract_x
_atom_site_fract_y
_atom_site_fract_z
_atom_site_type_symbol
H       0.0008   0.1245   0.3685     H
H       0.0008   0.3755   0.3685     H
C       0.0055  0.07044  0.31159     C
C       0.0055  0.42956  0.31159     C
C       0.0097  0.55902  0.09351     C
C       0.0097  0.94098  0.09351     C
C       0.0352  0.11695  0.33549     C
C       0.0352  0.38305  0.33549     C
H       0.0397   0.0267   0.2477     H
H       0.0397   0.4733   0.2477     H
O       0.0491  0.56849  0.13722     O
O       0.0491  0.93151  0.13722     O
C       0.0573  0.05912  0.26355     C
C       0.0573  0.44088  0.26355     C
Zn     0.06216  0.07847  0.63148    Zn
Zn     0.06216  0.42153  0.63148    Zn
O        0.064  0.52703  0.06399     O
O        0.064  0.97297  0.06399     O
O       0.0737  0.01454  0.67704     O
O       0.0737  0.48546  0.67704     O
C       0.0812  0.53243  0.66261     C
C       0.0812  0.96757  0.66261     C
H        0.094     0.25   0.2795     H
O       0.1073   0.1181  0.56551     O
O       0.1073   0.3819  0.56551     O
C       0.1088  0.08599    0.926     C
C       0.1088  0.41401    0.926     C
C       0.1152  0.15282  0.31145     C
C       0.1152  0.34718  0.31145     C
H        0.119   0.1615   0.4785     H
H        0.119   0.3385   0.4785     H
C       0.1248     0.25  0.31393     C
H       0.1284   0.0435   0.9914     H
H       0.1284   0.4565   0.9914     H
H       0.1292   0.1333   0.8637     H
H       0.1292   0.3667   0.8637     H
C       0.1339  0.09464  0.23886     C
C       0.1339  0.40536  0.23886     C
O       0.1399  0.04253  0.16474     O
O       0.1399  0.45747  0.16474     O
C       0.1466  0.20264  0.33826     C
C       0.1466  0.29736  0.33826     C
O       0.1576  0.54993  0.62985     O
O       0.1576  0.95007  0.62985     O
C       0.1612  0.07225  0.97271     C
C       0.1612  0.42775  0.97271     C
C       0.1618  0.12595  0.89711     C
C       0.1618  0.37405  0.89711     C
C       0.1642   0.1412   0.2628     C
C       0.1642   0.3588   0.2628     C
C       0.1818  0.08686  0.54352     C
C       0.1818  0.41314  0.54352     C
C       0.1877  0.14205  0.46469     C
C       0.1877  0.35795  0.46469     C
C       0.1896  0.08017  0.18737     C
C       0.1896  0.41983  0.18737     C
C       0.1947  0.20283  0.38911     C
C       0.1947  0.29717  0.38911     C
Zn     0.20121  0.50389  0.11123    Zn
Zn     0.20121  0.99611  0.11123    Zn
O       0.2059  0.04352  0.56347     O
O       0.2059  0.45648  0.56347     O
C       0.2154     0.25  0.41343     C
O       0.2176  0.10707  0.67104     O
O       0.2176  0.39293  0.67104     O
H       0.2186   0.1653    0.246     H
H       0.2186   0.3347    0.246     H
C       0.2367  0.10095  0.49244     C
C       0.2367  0.39905  0.49244     C
C       0.2376  0.15553  0.41652     C
C       0.2376  0.34447  0.41652     C
H       0.2448     0.25    0.448     H
H       0.2552     0.25    0.948     H
C       0.2624  0.15553  0.91652     C
C       0.2624  0.34447  0.91652     C
C       0.2633  0.10095  0.99244     C
C       0.2633  0.39905  0.99244     C
H       0.2814   0.1653    0.746     H
H       0.2814   0.3347    0.746     H
O       0.2824  0.10707  0.17104     O
O       0.2824  0.39293  0.17104     O
C       0.2846     0.25  0.91343     C
O       0.2941  0.04352  0.06347     O
O       0.2941  0.45648  0.06347     O
Zn     0.29879  0.50389  0.61123    Zn
Zn     0.29879  0.99611  0.61123    Zn
C       0.3053  0.20283  0.88911     C
C       0.3053  0.29717  0.88911     C
C       0.3104  0.08017  0.68737     C
C       0.3104  0.41983  0.68737     C
C       0.3123  0.14205  0.96469     C
C       0.3123  0.35795  0.96469     C
C       0.3182  0.08686  0.04352     C
C       0.3182  0.41314  0.04352     C
C       0.3358   0.1412   0.7628     C
C       0.3358   0.3588   0.7628     C
C       0.3382  0.12595  0.39711     C
C       0.3382  0.37405  0.39711     C
C       0.3388  0.07225  0.47271     C
C       0.3388  0.42775  0.47271     C
O       0.3424  0.54993  0.12985     O
O       0.3424  0.95007  0.12985     O
C       0.3534  0.20264  0.83826     C
C       0.3534  0.29736  0.83826     C
O       0.3601  0.04253  0.66474     O
O       0.3601  0.45747  0.66474     O
C       0.3661  0.09464  0.73886     C
C       0.3661  0.40536  0.73886     C
H       0.3708   0.1333   0.3637     H
H       0.3708   0.3667   0.3637     H
H       0.3716   0.0435   0.4914     H
H       0.3716   0.4565   0.4914     H
C       0.3752     0.25  0.81393     C
H        0.381   0.1615   0.9785     H
H        0.381   0.3385   0.9785     H
C       0.3848  0.15282  0.81145     C
C       0.3848  0.34718  0.81145     C
C       0.3912  0.08599    0.426     C
C       0.3912  0.41401    0.426     C
O       0.3927   0.1181  0.06551     O
O       0.3927   0.3819  0.06551     O
H        0.406     0.25   0.7795     H
C       0.4188  0.53243  0.16261     C
C       0.4188  0.96757  0.16261     C
O       0.4263  0.01454  0.17704     O
O       0.4263  0.48546  0.17704     O
O        0.436  0.52703  0.56399     O
O        0.436  0.97297  0.56399     O
Zn     0.43784  0.07847  0.13148    Zn
Zn     0.43784  0.42153  0.13148    Zn
C       0.4427  0.05912  0.76355     C
C       0.4427  0.44088  0.76355     C
O       0.4509  0.56849  0.63722     O
O       0.4509  0.93151  0.63722     O
H       0.4603   0.0267   0.7477     H
H       0.4603   0.4733   0.7477     H
C       0.4648  0.11695  0.83549     C
C       0.4648  0.38305  0.83549     C
C       0.4903  0.55902  0.59351     C
C       0.4903  0.94098  0.59351     C
C       0.4945  0.07044  0.81159     C
C       0.4945  0.42956  0.81159     C
H       0.4992   0.1245   0.8685     H
H       0.4992   0.3755   0.8685     H
H       0.5008   0.6245   0.1315     H
H       0.5008   0.8755   0.1315     H
C       0.5055  0.57044  0.18841     C
C       0.5055  0.92956  0.18841     C
C       0.5097  0.05902  0.40649     C
C       0.5097  0.44098  0.40649     C
C       0.5352  0.61695  0.16451     C
C       0.5352  0.88305  0.16451     C
H       0.5397   0.5267   0.2523     H
H       0.5397   0.9733   0.2523     H
O       0.5491  0.06849  0.36278     O
O       0.5491  0.43151  0.36278     O
C       0.5573  0.55912  0.23645     C
C       0.5573  0.94088  0.23645     C
Zn     0.56216  0.57847  0.86852    Zn
Zn     0.56216  0.92153  0.86852    Zn
O        0.564  0.02703  0.43601     O
O        0.564  0.47297  0.43601     O
O       0.5737  0.51454  0.82296     O
O       0.5737  0.98546  0.82296     O
C       0.5812  0.03243  0.83739     C
C       0.5812  0.46757  0.83739     C
H        0.594     0.75   0.2205     H
O       0.6073   0.6181  0.93449     O
O       0.6073   0.8819  0.93449     O
C       0.6088  0.58599    0.574     C
C       0.6088  0.91401    0.574     C
C       0.6152  0.65282  0.18855     C
C       0.6152  0.84718  0.18855     C
H        0.619   0.6615   0.0215     H
H        0.619   0.8385   0.0215     H
C       0.6248     0.75  0.18607     C
H       0.6284   0.5435   0.5086     H
H       0.6284   0.9565   0.5086     H
H       0.6292   0.6333   0.6363     H
H       0.6292   0.8667   0.6363     H
C       0.6339  0.59464  0.26114     C
C       0.6339  0.90536  0.26114     C
O       0.6399  0.54253  0.33526     O
O       0.6399  0.95747  0.33526     O
C       0.6466  0.70264  0.16174     C
C       0.6466  0.79736  0.16174     C
O       0.6576  0.04993  0.87015     O
O       0.6576  0.45007  0.87015     O
C       0.6612  0.57225  0.52729     C
C       0.6612  0.92775  0.52729     C
C       0.6618  0.62595  0.60289     C
C       0.6618  0.87405  0.60289     C
C       0.6642   0.6412   0.2372     C
C       0.6642   0.8588   0.2372     C
C       0.6818  0.58686  0.95648     C
C       0.6818  0.91314  0.95648     C
C       0.6877  0.64205  0.03531     C
C       0.6877  0.85795  0.03531     C
C       0.6896  0.58017  0.31263     C
C       0.6896  0.91983  0.31263     C
C       0.6947  0.70283  0.11089     C
C       0.6947  0.79717  0.11089     C
Zn     0.70121  0.00389  0.38877    Zn
Zn     0.70121  0.49611  0.38877    Zn
O       0.7059  0.54352  0.93653     O
O       0.7059  0.95648  0.93653     O
C       0.7154     0.75  0.08657     C
O       0.7176  0.60707  0.82896     O
O       0.7176  0.89293  0.82896     O
H       0.7186   0.6653    0.254     H
H       0.7186   0.8347    0.254     H
C       0.7367  0.60095  0.00756     C
C       0.7367  0.89905  0.00756     C
C       0.7376  0.65553  0.08348     C
C       0.7376  0.84447  0.08348     C
H       0.7448     0.75    0.052     H
H       0.7552     0.75    0.552     H
C       0.7624  0.65553  0.58348     C
C       0.7624  0.84447  0.58348     C
C       0.7633  0.60095  0.50756     C
C       0.7633  0.89905  0.50756     C
H       0.7814   0.6653    0.754     H
H       0.7814   0.8347    0.754     H
O       0.7824  0.60707  0.32896     O
O       0.7824  0.89293  0.32896     O
C       0.7846     0.75  0.58657     C
O       0.7941  0.54352  0.43653     O
O       0.7941  0.95648  0.43653     O
Zn     0.79879  0.00389  0.88877    Zn
Zn     0.79879  0.49611  0.88877    Zn
C       0.8053  0.70283  0.61089     C
C       0.8053  0.79717  0.61089     C
C       0.8104  0.58017  0.81263     C
C       0.8104  0.91983  0.81263     C
C       0.8123  0.64205  0.53531     C
C       0.8123  0.85795  0.53531     C
C       0.8182  0.58686  0.45648     C
C       0.8182  0.91314  0.45648     C
C       0.8358   0.6412   0.7372     C
C       0.8358   0.8588   0.7372     C
C       0.8382  0.62595  0.10289     C
C       0.8382  0.87405  0.10289     C
C       0.8388  0.57225  0.02729     C
C       0.8388  0.92775  0.02729     C
O       0.8424  0.04993  0.37015     O
O       0.8424  0.45007  0.37015     O
C       0.8534  0.70264  0.66174     C
C       0.8534  0.79736  0.66174     C
O       0.8601  0.54253  0.83526     O
O       0.8601  0.95747  0.83526     O
C       0.8661  0.59464  0.76114     C
C       0.8661  0.90536  0.76114     C
H       0.8708   0.6333   0.1363     H
H       0.8708   0.8667   0.1363     H
H       0.8716   0.5435   0.0086     H
H       0.8716   0.9565   0.0086     H
C       0.8752     0.75  0.68607     C
H        0.881   0.6615   0.5215     H
H        0.881   0.8385   0.5215     H
C       0.8848  0.65282  0.68855     C
C       0.8848  0.84718  0.68855     C
C       0.8912  0.58599    0.074     C
C       0.8912  0.91401    0.074     C
O       0.8927   0.6181  0.43449     O
O       0.8927   0.8819  0.43449     O
H        0.906     0.75   0.7205     H
C       0.9188  0.03243  0.33739     C
C       0.9188  0.46757  0.33739     C
O       0.9263  0.51454  0.32296     O
O       0.9263  0.98546  0.32296     O
O        0.936  0.02703  0.93601     O
O        0.936  0.47297  0.93601     O
Zn     0.93784  0.57847  0.36852    Zn
Zn     0.93784  0.92153  0.36852    Zn
C       0.9427  0.55912  0.73645     C
C       0.9427  0.94088  0.73645     C
O       0.9509  0.06849  0.86278     O
O       0.9509  0.43151  0.86278     O
H       0.9603   0.5267   0.7523     H
H       0.9603   0.9733   0.7523     H
C       0.9648  0.61695  0.66451     C
C       0.9648  0.88305  0.66451     C
C       0.9903  0.05902  0.90649     C
C       0.9903  0.44098  0.90649     C
C       0.9945  0.57044  0.68841     C
C       0.9945  0.92956  0.68841     C
H       0.9992   0.6245   0.6315     H
H       0.9992   0.8755   0.6315     H
