data_I
_chemical_name_common  '/home/zhangsd/repos/MofS-CGCNN/ML/data/SSD/clean_cifs/TAVQEN_clean'
_cell_length_a  9.40490
_cell_length_b 12.77390
_cell_length_c  8.58050
_cell_angle_alpha 90.00000
_cell_angle_beta  112.79600
_cell_angle_gamma 90.00000
_space_group_name_H-M_alt      'P 1'


loop_
_space_group_symop_operation_xyz
  'x, y, z' 

loop_
_atom_site_label
_atom_site_fract_x
_atom_site_fract_y
_atom_site_fract_z
_atom_site_type_symbol
O       0.0668    0.612   0.8754     O
O       0.0668    0.888   0.3754     O
Al      0.1263   0.1177   0.6803    Al
Al      0.1263   0.3823   0.1803    Al
O        0.169   0.2199   0.5758     O
O        0.169   0.2801   0.0758     O
O       0.1988    0.503   0.1379     O
O       0.1988    0.997   0.6379     O
O       0.2035   0.1408   0.8955     O
O       0.2035   0.3592   0.3955     O
P       0.2159   0.5499   0.9818     P
P       0.2159   0.9501   0.4818     P
O       0.2377   0.0329   0.3692     O
O       0.2377   0.4671   0.8692     O
P       0.2941   0.2112    0.047     P
P       0.2941   0.2888    0.547     P
O       0.3466    0.625   0.0376     O
O       0.3466    0.875   0.5376     O
O         0.38   0.1467   0.1941     O
O         0.38   0.3533   0.6941     O
O       0.4058   0.2242   0.5054     O
O       0.4058   0.2758   0.0054     O
Al      0.4361   0.0989   0.4084    Al
Al      0.4361   0.4011   0.9084    Al
F       0.4887   0.5365   0.8663     F
F       0.4887   0.9635   0.3663     F
F       0.5113   0.0365   0.6337     F
F       0.5113   0.4635   0.1337     F
Al      0.5639   0.5989   0.0916    Al
Al      0.5639   0.9011   0.5916    Al
O       0.5942   0.7242   0.9946     O
O       0.5942   0.7758   0.4946     O
O         0.62   0.6467   0.3059     O
O         0.62   0.8533   0.8059     O
O       0.6534    0.125   0.4624     O
O       0.6534    0.375   0.9624     O
P       0.7059   0.7112    0.453     P
P       0.7059   0.7888    0.953     P
O       0.7623   0.5329   0.1308     O
O       0.7623   0.9671   0.6308     O
P       0.7841   0.0499   0.5182     P
P       0.7841   0.4501   0.0182     P
O       0.7965   0.6408   0.6045     O
O       0.7965   0.8592   0.1045     O
O       0.8012    0.003   0.3621     O
O       0.8012    0.497   0.8621     O
O        0.831   0.7199   0.9242     O
O        0.831   0.7801   0.4242     O
Al      0.8737   0.6177   0.8197    Al
Al      0.8737   0.8823   0.3197    Al
O       0.9332    0.112   0.6246     O
O       0.9332    0.388   0.1246     O
