data_I
_chemical_name_common  '/home/zhangsd/repos/MofS-CGCNN/ML/data/SSD/clean_cifs/TECVEE_clean'
_cell_length_a 10.33220
_cell_length_b 10.33220
_cell_length_c 18.98100
_cell_angle_alpha 81.09000
_cell_angle_beta  81.09000
_cell_angle_gamma 82.41010
_space_group_name_H-M_alt      'P 1'


loop_
_space_group_symop_operation_xyz
  'x, y, z' 

loop_
_atom_site_label
_atom_site_fract_x
_atom_site_fract_y
_atom_site_fract_z
_atom_site_type_symbol
H       0.0001   0.4461   0.6938     H
O        0.007   0.8494  0.19698     O
O       0.0222   0.2916    0.995     O
S      0.03544   0.6133  0.41218     S
O       0.0471   0.0849  0.04574     O
C       0.0511   0.2067   0.0461     C
C       0.0546   0.4412   0.6482     C
H       0.0727   0.0801    0.178     H
Ca     0.07677  0.85235  0.06595    Ca
H       0.0801   0.0727    0.678     H
H       0.0805   0.5269   0.6287     H
O       0.0849   0.0471  0.54574     O
C       0.0899   0.2515   0.1113     C
C       0.0928    0.166   0.1756     C
O       0.0954    0.735  0.37085     O
O       0.1126     0.16  0.36559     O
C       0.1156    0.129   0.8065     C
H       0.1161   0.4401   0.0652     H
C         0.12   0.3818   0.1076     C
C       0.1255   0.2083   0.2368     C
C        0.129   0.1156   0.3065     C
H       0.1316   0.3802   0.6548     H
H       0.1369   0.4039   0.4245     H
Ca     0.14765  0.92323  0.43405    Ca
O       0.1506    0.993  0.30302     O
C        0.156    0.423   0.1681     C
C       0.1576    0.336   0.2313     C
O         0.16   0.1126  0.86559     O
C        0.166   0.0928   0.6756     C
C       0.1693   0.4885   0.4123     C
O       0.1766   0.6412   0.1079     O
H       0.1811   0.3641   0.2714     H
C       0.1858   0.5636   0.1646     C
Ca     0.19807  0.80193     0.25    Ca
C       0.2067   0.0511   0.5461     C
C       0.2083   0.1255   0.7368     C
O       0.2174   0.5924   0.2218     O
H       0.2204   0.4938   0.3653     H
H       0.2238   0.4998    0.447     H
C       0.2515   0.0899   0.6113     C
O        0.265   0.9046  0.12915     O
O       0.2916   0.0222    0.495     O
C        0.336   0.1576   0.7313     C
O       0.3588   0.8234   0.3921     O
H       0.3641   0.1811   0.7714     H
H       0.3802   0.1316   0.1548     H
C       0.3818     0.12   0.6076     C
S       0.3867  0.96456  0.08782     S
H       0.4039   0.1369   0.9245     H
O       0.4076   0.7826   0.2782     O
C        0.423    0.156   0.6681     C
C       0.4364   0.8142   0.3354     C
H       0.4401   0.1161   0.5652     H
C       0.4412   0.0546   0.1482     C
H       0.4461   0.0001   0.1938     H
H       0.4731   0.9195   0.8713     H
C       0.4885   0.1693   0.9123     C
H       0.4938   0.2204   0.8653     H
H       0.4998   0.2238    0.947     H
H       0.5002   0.7762    0.053     H
H       0.5062   0.7796   0.1347     H
C       0.5115   0.8307   0.0877     C
H       0.5269   0.0805   0.1287     H
H       0.5539   0.9999   0.8062     H
C       0.5588   0.9454   0.8518     C
H       0.5599   0.8839   0.4348     H
C       0.5636   0.1858   0.6646     C
C        0.577    0.844   0.3319     C
O       0.5924   0.2174   0.7218     O
H       0.5961   0.8631   0.0755     H
S       0.6133  0.03544  0.91218     S
C       0.6182     0.88   0.3924     C
H       0.6198   0.8684   0.8452     H
H       0.6359   0.8189   0.2286     H
O       0.6412   0.1766   0.6079     O
C        0.664   0.8424   0.2687     C
O       0.7084   0.9778    0.505     O
O        0.735   0.0954  0.87085     O
C       0.7485   0.9101   0.3887     C
H       0.7762   0.5002    0.553     H
H       0.7796   0.5062   0.6347     H
O       0.7826   0.4076   0.7782     O
C       0.7917   0.8745   0.2632     C
C       0.7933   0.9489   0.4539     C
Ca     0.80193  0.19807     0.75    Ca
C       0.8142   0.4364   0.8354     C
H       0.8189   0.6359   0.7286     H
O       0.8234   0.3588   0.8921     O
C       0.8307   0.5115   0.5877     C
C        0.834   0.9072   0.3244     C
O         0.84   0.8874  0.13441     O
C       0.8424    0.664   0.7687     C
C        0.844    0.577   0.8319     C
O       0.8494    0.007  0.69698     O
Ca     0.85235  0.07677  0.56595    Ca
H       0.8631   0.5961   0.5755     H
H       0.8684   0.6198   0.3452     H
C        0.871   0.8844   0.6935     C
C       0.8745   0.7917   0.7632     C
C         0.88   0.6182   0.8924     C
H       0.8839   0.5599   0.9348     H
C       0.8844    0.871   0.1935     C
O       0.8874     0.84  0.63441     O
O       0.9046    0.265  0.62915     O
C       0.9072    0.834   0.8244     C
C       0.9101   0.7485   0.8887     C
O       0.9151   0.9529  0.45426     O
H       0.9195   0.4731   0.3713     H
H       0.9199   0.9273    0.322     H
Ca     0.92323  0.14765  0.93405    Ca
H       0.9273   0.9199    0.822     H
C       0.9454   0.5588   0.3518     C
C       0.9489   0.7933   0.9539     C
O       0.9529   0.9151  0.95426     O
S      0.96456   0.3867  0.58782     S
O       0.9778   0.7084    0.005     O
O        0.993   0.1506  0.80302     O
H       0.9999   0.5539   0.3062     H
