data_I
_chemical_name_common  '/home/zhangsd/repos/MofS-CGCNN/ML/data/SSD/clean_cifs/TEDXOR_clean'
_cell_length_a 16.22440
_cell_length_b 20.98690
_cell_length_c 12.84910
_cell_angle_alpha 90.00000
_cell_angle_beta  90.00000
_cell_angle_gamma 90.00000
_space_group_name_H-M_alt      'P 1'


loop_
_space_group_symop_operation_xyz
  'x, y, z' 

loop_
_atom_site_label
_atom_site_fract_x
_atom_site_fract_y
_atom_site_fract_z
_atom_site_type_symbol
H       0.0001   0.5008   0.7503     H
H       0.0001   0.9992   0.7497     H
C       0.0005  0.19473   0.3534     C
C       0.0005  0.30527   0.1466     C
C       0.0028   0.1454   0.2811     C
C       0.0028   0.3546   0.2189     C
H       0.0034   0.6171   0.5578     H
H       0.0034   0.8829   0.9422     H
C       0.0057   0.0212    0.182     C
C       0.0057   0.4788    0.318     C
H       0.0078   0.5116   0.3722     H
H       0.0078   0.9884   0.1278     H
H       0.0524   0.5589   0.5065     H
H       0.0524   0.9411   0.9935     H
H       0.0547   0.1301   0.2577     H
H       0.0547   0.3699   0.2423     H
C       0.0547   0.5925   0.5593     C
C       0.0547   0.9075   0.9407     C
H       0.0567   0.0463   0.1805     H
H       0.0567   0.4537   0.3195     H
C       0.0653   0.5634   0.6633     C
C       0.0653   0.9366   0.8367     C
C       0.0685   0.6178   0.7423     C
C       0.0685   0.8822   0.7577     C
O      0.07199  0.24025   0.0279     O
O      0.07199  0.25975   0.4721     O
C       0.0746  0.71769   0.8871     C
C       0.0746  0.78231   0.6129     C
H       0.0769   0.7486   0.5636     H
H       0.0769   0.7514   0.9364     H
C        0.078   0.2232    0.393     C
C        0.078   0.2768    0.107     C
H       0.1013   0.6208   0.5447     H
H       0.1013   0.8792   0.9553     H
H        0.137   0.0071   0.8956     H
H        0.137   0.4929   0.6044     H
C       0.1417   0.5251   0.6594     C
C       0.1417   0.9749   0.8406     C
C       0.1434   0.6423   0.7763     C
C       0.1434   0.8577   0.7237     C
O       0.1443  0.21111   0.3489     O
O       0.1443  0.28889   0.1511     O
C       0.1471  0.69119   0.8484     C
C       0.1471  0.80881   0.6516     C
H       0.1501   0.5039   0.7266     H
H       0.1501   0.9961   0.7734     H
Co     0.16923  0.19686  0.97418    Co
Co     0.16923  0.30314  0.52582    Co
H       0.1722   0.0659    0.488     H
H       0.1722   0.4341    0.012     H
H       0.1887    0.553   0.6447     H
H       0.1887    0.947   0.8553     H
H       0.1931    0.625   0.7494     H
H       0.1931    0.875   0.7506     H
O       0.1943  0.11226   0.0302     O
O       0.1943  0.38774   0.4698     O
O       0.2065  0.19951   0.6587     O
O       0.2065  0.30049   0.8413     O
C       0.2202  0.11644   0.1214     C
C       0.2202  0.38356   0.3786     C
O      0.22636  0.74084   0.5462     O
O      0.22636  0.75916   0.9538     O
C       0.2283   0.0545   0.5091     C
C       0.2283   0.4455   0.9909     C
C       0.2284   0.7174   0.8814     C
C       0.2284   0.7826   0.6186     C
H       0.2303   0.0948   0.3229     H
H       0.2303   0.4052   0.1771     H
H       0.2305   0.0496   0.5849     H
H       0.2305   0.4504   0.9151     H
O       0.2314  0.16818   0.1642     O
O       0.2314  0.33182   0.3358     O
Co     0.23291     0.25     0.25    Co
H       0.2336   0.5883   0.0123     H
H       0.2336   0.9117   0.4877     H
C        0.238  0.05592   0.1791     C
C        0.238  0.44408   0.3209     C
C       0.2383   0.0559   0.2866     C
C       0.2383   0.4441   0.2134     C
H         0.25      0.0   0.0513     H
C         0.25      0.0   0.1253     C
C         0.25      0.0   0.3427     C
C         0.25      0.0   0.4639     C
C         0.25      0.5   0.0361     C
C         0.25      0.5   0.1573     C
C         0.25      0.5   0.3747     C
H         0.25      0.5   0.4487     H
C       0.2617   0.5559   0.2134     C
C       0.2617   0.9441   0.2866     C
C        0.262  0.55592   0.3209     C
C        0.262  0.94408   0.1791     C
H       0.2664   0.0883   0.4877     H
H       0.2664   0.4117   0.0123     H
Co     0.26709     0.75     0.25    Co
O       0.2686  0.66818   0.3358     O
O       0.2686  0.83182   0.1642     O
H       0.2695   0.5496   0.9151     H
H       0.2695   0.9504   0.5849     H
H       0.2697   0.5948   0.1771     H
H       0.2697   0.9052   0.3229     H
C       0.2716   0.2174   0.6186     C
C       0.2716   0.2826   0.8814     C
C       0.2717   0.5545   0.9909     C
C       0.2717   0.9455   0.5091     C
O      0.27364  0.24084   0.9538     O
O      0.27364  0.25916   0.5462     O
C       0.2798  0.61644   0.3786     C
C       0.2798  0.88356   0.1214     C
O       0.2935  0.69951   0.8413     O
O       0.2935  0.80049   0.6587     O
O       0.3057  0.61226   0.4698     O
O       0.3057  0.88774   0.0302     O
H       0.3069    0.125   0.7506     H
H       0.3069    0.375   0.7494     H
H       0.3113    0.053   0.8553     H
H       0.3113    0.447   0.6447     H
H       0.3278   0.5659    0.012     H
H       0.3278   0.9341    0.488     H
Co     0.33077  0.69686  0.52582    Co
Co     0.33077  0.80314  0.97418    Co
H       0.3499   0.0039   0.7734     H
H       0.3499   0.4961   0.7266     H
C       0.3529  0.19119   0.6516     C
C       0.3529  0.30881   0.8484     C
O       0.3557  0.71111   0.1511     O
O       0.3557  0.78889   0.3489     O
C       0.3566   0.1423   0.7237     C
C       0.3566   0.3577   0.7763     C
C       0.3583   0.0251   0.8406     C
C       0.3583   0.4749   0.6594     C
H        0.363   0.5071   0.6044     H
H        0.363   0.9929   0.8956     H
H       0.3987   0.1208   0.9553     H
H       0.3987   0.3792   0.5447     H
C        0.422   0.7232    0.107     C
C        0.422   0.7768    0.393     C
H       0.4231   0.2486   0.9364     H
H       0.4231   0.2514   0.5636     H
C       0.4254  0.21769   0.6129     C
C       0.4254  0.28231   0.8871     C
O      0.42801  0.74025   0.4721     O
O      0.42801  0.75975   0.0279     O
C       0.4315   0.1178   0.7577     C
C       0.4315   0.3822   0.7423     C
C       0.4347   0.0634   0.8367     C
C       0.4347   0.4366   0.6633     C
H       0.4433   0.5463   0.3195     H
H       0.4433   0.9537   0.1805     H
C       0.4453   0.0925   0.9407     C
C       0.4453   0.4075   0.5593     C
H       0.4453   0.6301   0.2423     H
H       0.4453   0.8699   0.2577     H
H       0.4476   0.0589   0.9935     H
H       0.4476   0.4411   0.5065     H
H       0.4922   0.0116   0.1278     H
H       0.4922   0.4884   0.3722     H
C       0.4943   0.5212    0.318     C
C       0.4943   0.9788    0.182     C
H       0.4966   0.1171   0.9422     H
H       0.4966   0.3829   0.5578     H
C       0.4972   0.6454   0.2189     C
C       0.4972   0.8546   0.2811     C
C       0.4995  0.69473   0.1466     C
C       0.4995  0.80527   0.3534     C
H       0.4999   0.0008   0.7497     H
H       0.4999   0.4992   0.7503     H
H       0.5001   0.5008   0.2497     H
H       0.5001   0.9992   0.2503     H
C       0.5005  0.19473   0.6466     C
C       0.5005  0.30527   0.8534     C
C       0.5028   0.1454   0.7189     C
C       0.5028   0.3546   0.7811     C
H       0.5034   0.6171   0.4422     H
H       0.5034   0.8829   0.0578     H
C       0.5057   0.0212    0.818     C
C       0.5057   0.4788    0.682     C
H       0.5078   0.5116   0.6278     H
H       0.5078   0.9884   0.8722     H
H       0.5524   0.5589   0.4935     H
H       0.5524   0.9411   0.0065     H
H       0.5547   0.1301   0.7423     H
H       0.5547   0.3699   0.7577     H
C       0.5547   0.5925   0.4407     C
C       0.5547   0.9075   0.0593     C
H       0.5567   0.0463   0.8195     H
H       0.5567   0.4537   0.6805     H
C       0.5653   0.5634   0.3367     C
C       0.5653   0.9366   0.1633     C
C       0.5685   0.6178   0.2577     C
C       0.5685   0.8822   0.2423     C
O      0.57199  0.24025   0.9721     O
O      0.57199  0.25975   0.5279     O
C       0.5746  0.71769   0.1129     C
C       0.5746  0.78231   0.3871     C
H       0.5769   0.7486   0.4364     H
H       0.5769   0.7514   0.0636     H
C        0.578   0.2232    0.607     C
C        0.578   0.2768    0.893     C
H       0.6013   0.6208   0.4553     H
H       0.6013   0.8792   0.0447     H
H        0.637   0.0071   0.1044     H
H        0.637   0.4929   0.3956     H
C       0.6417   0.5251   0.3406     C
C       0.6417   0.9749   0.1594     C
C       0.6434   0.6423   0.2237     C
C       0.6434   0.8577   0.2763     C
O       0.6443  0.21111   0.6511     O
O       0.6443  0.28889   0.8489     O
C       0.6471  0.69119   0.1516     C
C       0.6471  0.80881   0.3484     C
H       0.6501   0.5039   0.2734     H
H       0.6501   0.9961   0.2266     H
Co     0.66923  0.19686  0.02582    Co
Co     0.66923  0.30314  0.47418    Co
H       0.6722   0.0659    0.512     H
H       0.6722   0.4341    0.988     H
H       0.6887    0.553   0.3553     H
H       0.6887    0.947   0.1447     H
H       0.6931    0.625   0.2506     H
H       0.6931    0.875   0.2494     H
O       0.6943  0.11226   0.9698     O
O       0.6943  0.38774   0.5302     O
O       0.7065  0.19951   0.3413     O
O       0.7065  0.30049   0.1587     O
C       0.7202  0.11644   0.8786     C
C       0.7202  0.38356   0.6214     C
O      0.72636  0.74084   0.4538     O
O      0.72636  0.75916   0.0462     O
C       0.7283   0.0545   0.4909     C
C       0.7283   0.4455   0.0091     C
C       0.7284   0.7174   0.1186     C
C       0.7284   0.7826   0.3814     C
H       0.7303   0.0948   0.6771     H
H       0.7303   0.4052   0.8229     H
H       0.7305   0.0496   0.4151     H
H       0.7305   0.4504   0.0849     H
O       0.7314  0.16818   0.8358     O
O       0.7314  0.33182   0.6642     O
Co     0.73291     0.25     0.75    Co
H       0.7336   0.5883   0.9877     H
H       0.7336   0.9117   0.5123     H
C        0.738  0.05592   0.8209     C
C        0.738  0.44408   0.6791     C
C       0.7383   0.0559   0.7134     C
C       0.7383   0.4441   0.7866     C
C         0.75      0.0   0.5361     C
C         0.75      0.0   0.6573     C
C         0.75      0.0   0.8747     C
H         0.75      0.0   0.9487     H
H         0.75      0.5   0.5513     H
C         0.75      0.5   0.6253     C
C         0.75      0.5   0.8427     C
C         0.75      0.5   0.9639     C
C       0.7617   0.5559   0.7866     C
C       0.7617   0.9441   0.7134     C
C        0.762  0.55592   0.6791     C
C        0.762  0.94408   0.8209     C
H       0.7664   0.0883   0.5123     H
H       0.7664   0.4117   0.9877     H
Co     0.76709     0.75     0.75    Co
O       0.7686  0.66818   0.6642     O
O       0.7686  0.83182   0.8358     O
H       0.7695   0.5496   0.0849     H
H       0.7695   0.9504   0.4151     H
H       0.7697   0.5948   0.8229     H
H       0.7697   0.9052   0.6771     H
C       0.7716   0.2174   0.3814     C
C       0.7716   0.2826   0.1186     C
C       0.7717   0.5545   0.0091     C
C       0.7717   0.9455   0.4909     C
O      0.77364  0.24084   0.0462     O
O      0.77364  0.25916   0.4538     O
C       0.7798  0.61644   0.6214     C
C       0.7798  0.88356   0.8786     C
O       0.7935  0.69951   0.1587     O
O       0.7935  0.80049   0.3413     O
O       0.8057  0.61226   0.5302     O
O       0.8057  0.88774   0.9698     O
H       0.8069    0.125   0.2494     H
H       0.8069    0.375   0.2506     H
H       0.8113    0.053   0.1447     H
H       0.8113    0.447   0.3553     H
H       0.8278   0.5659    0.988     H
H       0.8278   0.9341    0.512     H
Co     0.83077  0.69686  0.47418    Co
Co     0.83077  0.80314  0.02582    Co
H       0.8499   0.0039   0.2266     H
H       0.8499   0.4961   0.2734     H
C       0.8529  0.19119   0.3484     C
C       0.8529  0.30881   0.1516     C
O       0.8557  0.71111   0.8489     O
O       0.8557  0.78889   0.6511     O
C       0.8566   0.1423   0.2763     C
C       0.8566   0.3577   0.2237     C
C       0.8583   0.0251   0.1594     C
C       0.8583   0.4749   0.3406     C
H        0.863   0.5071   0.3956     H
H        0.863   0.9929   0.1044     H
H       0.8987   0.1208   0.0447     H
H       0.8987   0.3792   0.4553     H
C        0.922   0.7232    0.893     C
C        0.922   0.7768    0.607     C
H       0.9231   0.2486   0.0636     H
H       0.9231   0.2514   0.4364     H
C       0.9254  0.21769   0.3871     C
C       0.9254  0.28231   0.1129     C
O      0.92801  0.74025   0.5279     O
O      0.92801  0.75975   0.9721     O
C       0.9315   0.1178   0.2423     C
C       0.9315   0.3822   0.2577     C
C       0.9347   0.0634   0.1633     C
C       0.9347   0.4366   0.3367     C
H       0.9433   0.5463   0.6805     H
H       0.9433   0.9537   0.8195     H
C       0.9453   0.0925   0.0593     C
C       0.9453   0.4075   0.4407     C
H       0.9453   0.6301   0.7577     H
H       0.9453   0.8699   0.7423     H
H       0.9476   0.0589   0.0065     H
H       0.9476   0.4411   0.4935     H
H       0.9922   0.0116   0.8722     H
H       0.9922   0.4884   0.6278     H
C       0.9943   0.5212    0.682     C
C       0.9943   0.9788    0.818     C
H       0.9966   0.1171   0.0578     H
H       0.9966   0.3829   0.4422     H
C       0.9972   0.6454   0.7811     C
C       0.9972   0.8546   0.7189     C
C       0.9995  0.69473   0.8534     C
C       0.9995  0.80527   0.6466     C
H       0.9999   0.0008   0.2503     H
H       0.9999   0.4992   0.2497     H
