data_I
_chemical_name_common  '/home/zhangsd/repos/MofS-CGCNN/ML/data/SSD/clean_cifs/TIGQUX_clean'
_cell_length_a 13.23850
_cell_length_b 13.23850
_cell_length_c 46.38080
_cell_angle_alpha 90.00000
_cell_angle_beta  90.00000
_cell_angle_gamma 120.00000
_space_group_name_H-M_alt      'P 1'


loop_
_space_group_symop_operation_xyz
  'x, y, z' 

loop_
_atom_site_label
_atom_site_fract_x
_atom_site_fract_y
_atom_site_fract_z
_atom_site_type_symbol
P          0.0  0.24144     0.75     P
Mg         0.0  0.24387     0.25    Mg
Mg         0.0  0.75613     0.75    Mg
P          0.0  0.75856     0.25     P
Al     0.00557  0.23848  0.46652    Al
Mg     0.00557  0.76709  0.96652    Mg
P      0.00559  0.24223  0.53363     P
P      0.00559  0.76336  0.03363     P
O      0.00577  0.35213  0.88573     O
O      0.00577  0.65363  0.38573     O
O      0.00748   0.2807  0.50269     O
O      0.00748  0.72678  0.00269     O
O      0.01153  0.31257  0.72314     O
O      0.01153  0.69897  0.22314     O
O      0.01303  0.32757  0.21907     O
O      0.01303  0.68547  0.71907     O
O       0.0188   0.3391   0.9476     O
O       0.0188   0.6797   0.4476     O
O      0.02077  0.36563   0.3898     O
O      0.02077  0.65513   0.8898     O
O       0.0323   0.3541  0.44353     O
O       0.0323   0.6782  0.94353     O
O      0.05263  0.39345  0.16936     O
O      0.05263  0.65919  0.66936     O
O      0.06011  0.38597  0.66398     O
O      0.06011  0.67415  0.16398     O
O      0.07683  0.53302  0.20845     O
O      0.07683  0.54382  0.70845     O
O      0.08592  0.20133  0.96234     O
O      0.08592  0.88459  0.46234     O
Mg     0.08946   0.4228  0.91667    Mg
Mg     0.08946  0.66667  0.41667    Mg
P       0.0911  0.43003  0.20029     P
P       0.0911  0.66108  0.70029     P
P      0.09189  0.42523  0.41667     P
P      0.09189  0.66667  0.91667     P
Al     0.09485  0.43376  0.13319    Al
Al     0.09485   0.6611  0.63319    Al
P      0.09669  0.42444  0.63304     P
P      0.09669  0.67226  0.13304     P
Al     0.10042  0.42819  0.70014    Al
Mg     0.10042  0.67224  0.20014    Mg
O       0.1042   0.5435  0.42045     O
O       0.1042   0.5607  0.92045     O
O      0.10597  0.22913  0.75378     O
O      0.10597  0.87683  0.25378     O
O      0.11541  0.20133  0.46234     O
O      0.11541  0.91408  0.96234     O
O      0.12285   0.2565  0.54178     O
O      0.12285  0.86635  0.04178     O
O      0.12317  0.22913  0.25378     O
O      0.12317  0.89403  0.75378     O
O        0.132  0.55126  0.62901     O
O        0.132  0.58075  0.12901     O
O      0.13365   0.2565  0.04178     O
O      0.13365  0.87715  0.54178     O
O      0.19968  0.41017  0.62489     O
O      0.19968  0.78952  0.12489     O
O      0.20133  0.08592  0.53766     O
O      0.20133  0.11541  0.03766     O
O      0.21017  0.43753  0.41288     O
O      0.21017  0.77263  0.91288     O
O      0.21048  0.41017  0.12489     O
O      0.21048  0.80032  0.62489     O
O      0.21792  0.46534  0.20433     O
O      0.21792  0.75259  0.70433     O
O      0.22737  0.43753  0.91288     O
O      0.22737  0.78983  0.41288     O
O      0.22913  0.10597  0.74622     O
O      0.22913  0.12317  0.24622     O
Al     0.23291  0.23848  0.96652    Al
Mg     0.23291  0.99443  0.46652    Mg
P      0.23664  0.24223  0.03363     P
P      0.23664  0.99441  0.53363     P
Al     0.23848  0.00557  0.03348    Al
Al     0.23848  0.23291  0.53348    Al
P      0.24144      0.0     0.75     P
P      0.24144  0.24144     0.25     P
P      0.24223  0.00559  0.96637     P
P      0.24223  0.23664  0.46637     P
Mg     0.24387      0.0     0.25    Mg
Mg     0.24387  0.24387     0.75    Mg
O      0.24741  0.46534  0.70433     O
O      0.24741  0.78208  0.20433     O
O       0.2565  0.12285  0.95822     O
O       0.2565  0.13365  0.45822     O
O      0.27322   0.2807  0.00269     O
O      0.27322  0.99252  0.50269     O
O       0.2807  0.00748  0.99731     O
O       0.2807  0.27322  0.49731     O
O      0.30103  0.31257  0.22314     O
O      0.30103  0.98847  0.72314     O
O      0.31257  0.01153  0.77686     O
O      0.31257  0.30103  0.27686     O
O      0.31453  0.32757  0.71907     O
O      0.31453  0.98697  0.21907     O
O       0.3203   0.3391   0.4476     O
O       0.3203   0.9812   0.9476     O
O       0.3218   0.3541  0.94353     O
O       0.3218   0.9677  0.44353     O
O      0.32585  0.38597  0.16398     O
O      0.32585  0.93989  0.66398     O
O      0.32757  0.01303  0.28093     O
O      0.32757  0.31453  0.78093     O
P      0.32774  0.42444  0.13304     P
P      0.32774  0.90331  0.63304     P
Al     0.32776  0.42819  0.20014    Al
Mg     0.32776  0.89958  0.70014    Mg
Mg     0.33333   0.4228  0.41667    Mg
P      0.33333  0.42523  0.91667     P
P      0.33333  0.90811  0.41667     P
Mg     0.33333  0.91054  0.91667    Mg
Mg      0.3389  0.43376  0.63319    Mg
Al      0.3389  0.90515  0.13319    Al
P      0.33892  0.43003  0.70029     P
P      0.33892   0.9089  0.20029     P
O       0.3391   0.0188   0.5524     O
O       0.3391   0.3203   0.0524     O
O      0.34081  0.39345  0.66936     O
O      0.34081  0.94737  0.16936     O
O      0.34487  0.36563   0.8898     O
O      0.34487  0.97923   0.3898     O
O      0.34637  0.35213  0.38573     O
O      0.34637  0.99423  0.88573     O
O      0.35213  0.00577  0.61427     O
O      0.35213  0.34637  0.11427     O
O       0.3541   0.0323  0.05647     O
O       0.3541   0.3218  0.55647     O
O      0.36563  0.02077   0.1102     O
O      0.36563  0.34487   0.6102     O
O      0.38597  0.06011  0.83602     O
O      0.38597  0.32585  0.33602     O
O      0.39345  0.05263  0.33064     O
O      0.39345  0.34081  0.83064     O
O      0.41017  0.19968  0.87511     O
O      0.41017  0.21048  0.37511     O
O      0.41925  0.55126  0.12901     O
O      0.41925    0.868  0.62901     O
Mg      0.4228  0.08946  0.58333    Mg
Mg      0.4228  0.33333  0.08333    Mg
P      0.42444  0.09669  0.86696     P
P      0.42444  0.32774  0.36696     P
P      0.42523  0.09189  0.08333     P
P      0.42523  0.33333  0.58333     P
Al     0.42819  0.10042  0.79986    Al
Al     0.42819  0.32776  0.29986    Al
P      0.43003   0.0911  0.29971     P
P      0.43003  0.33892  0.79971     P
Al     0.43376  0.09485  0.36681    Al
Mg     0.43376   0.3389  0.86681    Mg
O      0.43753  0.21017  0.08712     O
O      0.43753  0.22737  0.58712     O
O       0.4393   0.5435  0.92045     O
O       0.4393   0.8958  0.42045     O
O      0.44874  0.58075  0.62901     O
O      0.44874    0.868  0.12901     O
O      0.45618  0.53302  0.70845     O
O      0.45618  0.92317  0.20845     O
O       0.4565   0.5607  0.42045     O
O       0.4565   0.8958  0.92045     O
O      0.46534  0.21792  0.29567     O
O      0.46534  0.24741  0.79567     O
O      0.46698  0.54382  0.20845     O
O      0.46698  0.92317  0.70845     O
O      0.53302  0.07683  0.29155     O
O      0.53302  0.45618  0.79155     O
O      0.53466  0.75259  0.20433     O
O      0.53466  0.78208  0.70433     O
O       0.5435   0.1042  0.07955     O
O       0.5435   0.4393  0.57955     O
O      0.54382  0.07683  0.79155     O
O      0.54382  0.46698  0.29155     O
O      0.55126    0.132  0.87099     O
O      0.55126  0.41925  0.37099     O
O       0.5607   0.1042  0.57955     O
O       0.5607   0.4565  0.07955     O
O      0.56247  0.77263  0.41288     O
O      0.56247  0.78983  0.91288     O
Mg     0.56624   0.6611  0.13319    Mg
Al     0.56624  0.90515  0.63319    Al
P      0.56997  0.66108  0.20029     P
P      0.56997   0.9089  0.70029     P
Al     0.57181  0.67224  0.70014    Al
Al     0.57181  0.89958  0.20014    Al
P      0.57477  0.66667  0.41667     P
P      0.57477  0.90811  0.91667     P
P      0.57556  0.67226  0.63304     P
P      0.57556  0.90331  0.13304     P
Mg      0.5772  0.66667  0.91667    Mg
Mg      0.5772  0.91054  0.41667    Mg
O      0.58075    0.132  0.37099     O
O      0.58075  0.44874  0.87099     O
O      0.58983  0.78952  0.62489     O
O      0.58983  0.80032  0.12489     O
O      0.60655  0.65919  0.16936     O
O      0.60655  0.94737  0.66936     O
O      0.61403  0.67415  0.66398     O
O      0.61403  0.93989  0.16398     O
O      0.63437  0.65513   0.3898     O
O      0.63437  0.97923   0.8898     O
O       0.6459   0.6782  0.44353     O
O       0.6459   0.9677  0.94353     O
O      0.64787  0.65363  0.88573     O
O      0.64787  0.99423  0.38573     O
O      0.65363  0.00577  0.11427     O
O      0.65363  0.64787  0.61427     O
O      0.65513  0.02077   0.6102     O
O      0.65513  0.63437   0.1102     O
O      0.65919  0.05263  0.83064     O
O      0.65919  0.60655  0.33064     O
O       0.6609   0.6797   0.9476     O
O       0.6609   0.9812   0.4476     O
P      0.66108   0.0911  0.79971     P
P      0.66108  0.56997  0.29971     P
Al      0.6611  0.09485  0.86681    Al
Mg      0.6611  0.56624  0.36681    Mg
Mg     0.66667  0.08946  0.08333    Mg
P      0.66667  0.09189  0.58333     P
P      0.66667  0.57477  0.08333     P
Mg     0.66667   0.5772  0.58333    Mg
Mg     0.67224  0.10042  0.29986    Mg
Al     0.67224  0.57181  0.79986    Al
P      0.67226  0.09669  0.36696     P
P      0.67226  0.57556  0.86696     P
O      0.67243  0.68547  0.21907     O
O      0.67243  0.98697  0.71907     O
O      0.67415  0.06011  0.33602     O
O      0.67415  0.61403  0.83602     O
O       0.6782   0.0323  0.55647     O
O       0.6782   0.6459  0.05647     O
O       0.6797   0.0188   0.0524     O
O       0.6797   0.6609   0.5524     O
O      0.68547  0.01303  0.78093     O
O      0.68547  0.67243  0.28093     O
O      0.68743  0.69897  0.72314     O
O      0.68743  0.98847  0.22314     O
O      0.69897  0.01153  0.27686     O
O      0.69897  0.68743  0.77686     O
O       0.7193  0.72678  0.50269     O
O       0.7193  0.99252  0.00269     O
O      0.72678  0.00748  0.49731     O
O      0.72678   0.7193  0.99731     O
O       0.7435  0.86635  0.54178     O
O       0.7435  0.87715  0.04178     O
O      0.75259  0.21792  0.79567     O
O      0.75259  0.53466  0.29567     O
Mg     0.75613      0.0     0.75    Mg
Mg     0.75613  0.75613     0.25    Mg
P      0.75777  0.76336  0.53363     P
P      0.75777  0.99441  0.03363     P
P      0.75856      0.0     0.25     P
P      0.75856  0.75856     0.75     P
Al     0.76152  0.76709  0.46652    Al
Al     0.76152  0.99443  0.96652    Al
P      0.76336  0.00559  0.46637     P
P      0.76336  0.75777  0.96637     P
Mg     0.76709  0.00557  0.53348    Mg
Al     0.76709  0.76152  0.03348    Al
O      0.77087  0.87683  0.75378     O
O      0.77087  0.89403  0.25378     O
O      0.77263  0.21017  0.58712     O
O      0.77263  0.56247  0.08712     O
O      0.78208  0.24741  0.29567     O
O      0.78208  0.53466  0.79567     O
O      0.78952  0.19968  0.37511     O
O      0.78952  0.58983  0.87511     O
O      0.78983  0.22737  0.08712     O
O      0.78983  0.56247  0.58712     O
O      0.79867  0.88459  0.96234     O
O      0.79867  0.91408  0.46234     O
O      0.80032  0.21048  0.87511     O
O      0.80032  0.58983  0.37511     O
O      0.86635  0.12285  0.45822     O
O      0.86635   0.7435  0.95822     O
O        0.868  0.41925  0.87099     O
O        0.868  0.44874  0.37099     O
O      0.87683  0.10597  0.24622     O
O      0.87683  0.77087  0.74622     O
O      0.87715  0.13365  0.95822     O
O      0.87715   0.7435  0.45822     O
O      0.88459  0.08592  0.03766     O
O      0.88459  0.79867  0.53766     O
O      0.89403  0.12317  0.74622     O
O      0.89403  0.77087  0.24622     O
O       0.8958   0.4393  0.07955     O
O       0.8958   0.4565  0.57955     O
Mg     0.89958  0.32776  0.79986    Mg
Al     0.89958  0.57181  0.29986    Al
P      0.90331  0.32774  0.86696     P
P      0.90331  0.57556  0.36696     P
Al     0.90515   0.3389  0.36681    Al
Al     0.90515  0.56624  0.86681    Al
P      0.90811  0.33333  0.08333     P
P      0.90811  0.57477  0.58333     P
P       0.9089  0.33892  0.29971     P
P       0.9089  0.56997  0.79971     P
Mg     0.91054  0.33333  0.58333    Mg
Mg     0.91054   0.5772  0.08333    Mg
O      0.91408  0.11541  0.53766     O
O      0.91408  0.79867  0.03766     O
O      0.92317  0.45618  0.29155     O
O      0.92317  0.46698  0.79155     O
O      0.93989  0.32585  0.83602     O
O      0.93989  0.61403  0.33602     O
O      0.94737  0.34081  0.33064     O
O      0.94737  0.60655  0.83064     O
O       0.9677   0.3218  0.05647     O
O       0.9677   0.6459  0.55647     O
O      0.97923  0.34487   0.1102     O
O      0.97923  0.63437   0.6102     O
O       0.9812   0.3203   0.5524     O
O       0.9812   0.6609   0.0524     O
O      0.98697  0.31453  0.28093     O
O      0.98697  0.67243  0.78093     O
O      0.98847  0.30103  0.77686     O
O      0.98847  0.68743  0.27686     O
O      0.99252  0.27322  0.99731     O
O      0.99252   0.7193  0.49731     O
O      0.99423  0.34637  0.61427     O
O      0.99423  0.64787  0.11427     O
P      0.99441  0.23664  0.96637     P
P      0.99441  0.75777  0.46637     P
Mg     0.99443  0.23291  0.03348    Mg
Al     0.99443  0.76152  0.53348    Al
