data_I
_chemical_name_common  '/home/zhangsd/repos/MofS-CGCNN/ML/data/SSD/clean_cifs/TIGSOT_clean'
_cell_length_a  9.64600
_cell_length_b  9.41000
_cell_length_c 30.92900
_cell_angle_alpha 90.00000
_cell_angle_beta  93.33800
_cell_angle_gamma 90.00000
_space_group_name_H-M_alt      'P 1'


loop_
_space_group_symop_operation_xyz
  'x, y, z' 

loop_
_atom_site_label
_atom_site_fract_x
_atom_site_fract_y
_atom_site_fract_z
_atom_site_type_symbol
P      0.02478  0.59927   0.1145     P
P      0.02478  0.90073   0.6145     P
O       0.0304   0.2159  0.35759     O
O       0.0304   0.2841  0.85759     O
Zn     0.03557  0.22894  0.64027    Zn
Zn     0.03557  0.27106  0.14027    Zn
P      0.03751  0.61013   0.2792     P
P      0.03751  0.88987   0.7792     P
Zn     0.06167  0.69789  0.69345    Zn
Zn     0.06167  0.80211  0.19345    Zn
O       0.0658   0.0489  0.78619     O
O       0.0658   0.4511  0.28619     O
O       0.0684   0.7457  0.91675     O
O       0.0684   0.7543  0.41675     O
O       0.0696   0.1004  0.53312     O
O       0.0696   0.3996  0.03312     O
P      0.07259  0.62569  0.94958     P
P      0.07259  0.87431  0.44958     P
O       0.0779   0.0276  0.64067     O
O       0.0779   0.4724  0.14067     O
O        0.089   0.6984  0.31795     O
O        0.089   0.8016  0.81795     O
O       0.0998    0.662  0.23815     O
O       0.0998    0.838  0.73815     O
C       0.1231   0.0359   0.4212     C
C       0.1231   0.4641   0.9212     C
O       0.1339   0.6591   0.0858     O
O       0.1339   0.8409   0.5858     O
H       0.1346   0.1272   0.4755     H
H       0.1346   0.3728   0.9755     H
H       0.1485   0.1818   0.7468     H
H       0.1485   0.3182   0.2468     H
H       0.1485   0.5378    0.772     H
H       0.1485   0.9622    0.272     H
C       0.1533   0.1284   0.2285     C
C       0.1533   0.3716   0.7285     C
H       0.1544   0.1098   0.2951     H
H       0.1544   0.3902   0.7951     H
O       0.1655   0.1453  0.45203     O
O       0.1655   0.3547  0.95203     O
O       0.1806   0.1301   0.1418     O
O       0.1806   0.3699   0.6418     O
O       0.1826   0.6567  0.98553     O
O       0.1826   0.8433  0.48553     O
O       0.1914   0.2243  0.72864     O
O       0.1914   0.2757  0.22864     O
C       0.1935   0.0544   0.2723     C
C       0.1935   0.4456   0.7723     C
H       0.2111   0.5393   0.8667     H
H       0.2111   0.9607   0.3667     H
Zn     0.21463  0.55604  0.03969    Zn
Zn     0.21463  0.94396  0.53969    Zn
O       0.2304   0.6006  0.68157     O
O       0.2304   0.8994  0.18157     O
C       0.2461   0.0133    0.392     C
C       0.2461   0.4867    0.892     C
P      0.24892  0.06078   0.1827     P
P      0.24892  0.43922   0.6827     P
H        0.274   0.1061    0.382     H
H        0.274   0.3939    0.882     H
H       0.2901   0.0345   0.6804     H
H       0.2901   0.4655   0.1804     H
H       0.2915   0.2281   0.5577     H
H       0.2915   0.2719   0.0577     H
H       0.3239   0.7434   0.3889     H
H       0.3239   0.7566   0.8889     H
C       0.3443   0.0322   0.2845     C
C       0.3443   0.4678   0.7845     C
H       0.3446   0.6807   0.7782     H
H       0.3446   0.8193   0.2782     H
H       0.3709   0.6954    0.182     H
H       0.3709   0.8046    0.682     H
C       0.3754   0.1843   0.5658     C
C       0.3754   0.3157   0.0658     C
C       0.3765   0.5622     0.91     C
C       0.3765   0.9378     0.41     C
C       0.3821   0.0156   0.6892     C
C       0.3821   0.4844   0.1892     C
N       0.3918   0.0479   0.5573     N
N       0.3918   0.4521   0.0573     N
C       0.3953   0.7026   0.9021     C
C       0.3953   0.7974   0.4021     C
O       0.3983   0.1036   0.1905     O
O       0.3983   0.3964   0.6905     O
H       0.3985   0.2362   0.2961     H
H       0.3985   0.2638   0.7961     H
C       0.3997   0.6029   0.7861     C
C       0.3997   0.8971   0.2861     C
C       0.4294   0.6202     0.19     C
C       0.4294   0.8798     0.69     C
C       0.4327   0.1437   0.2968     C
C       0.4327   0.3563   0.7968     C
H       0.4346   0.2067      0.7     H
H       0.4346   0.2933      0.2     H
H       0.4654   0.1417   0.0926     H
H       0.4654   0.3583   0.5926     H
N        0.467   0.1216   0.7009     N
N        0.467   0.3784   0.2009     N
H        0.477   0.1092   0.4341     H
H        0.477   0.3908   0.9341     H
C       0.4802    0.237   0.0865     C
C       0.4802    0.263   0.5865     C
C       0.4875   0.0122   0.4297     C
C       0.4875   0.4878   0.9297     C
C       0.5125   0.5122   0.0703     C
C       0.5125   0.9878   0.5703     C
C       0.5198    0.737   0.4135     C
C       0.5198    0.763   0.9135     C
H        0.523   0.6092   0.0659     H
H        0.523   0.8908   0.5659     H
N        0.533   0.6216   0.7991     N
N        0.533   0.8784   0.2991     N
H       0.5346   0.6417   0.4074     H
H       0.5346   0.8583   0.9074     H
H       0.5654   0.7067      0.8     H
H       0.5654   0.7933      0.3     H
C       0.5673   0.6437   0.2032     C
C       0.5673   0.8563   0.7032     C
C       0.5706   0.1202     0.31     C
C       0.5706   0.3798     0.81     C
C       0.6003   0.1029   0.7139     C
C       0.6003   0.3971   0.2139     C
H       0.6015   0.7362   0.2039     H
H       0.6015   0.7638   0.7039     H
O       0.6017   0.6036   0.3095     O
O       0.6017   0.8964   0.8095     O
C       0.6047   0.2026   0.5979     C
C       0.6047   0.2974   0.0979     C
N       0.6082   0.5479   0.9427     N
N       0.6082   0.9521   0.4427     N
C       0.6179   0.5156   0.8108     C
C       0.6179   0.9844   0.3108     C
C       0.6235   0.0622     0.59     C
C       0.6235   0.4378     0.09     C
C       0.6246   0.6843   0.9342     C
C       0.6246   0.8157   0.4342     C
H       0.6291   0.1954    0.318     H
H       0.6291   0.3046    0.818     H
H       0.6554   0.1807   0.7218     H
H       0.6554   0.3193   0.2218     H
C       0.6557   0.5322   0.2155     C
C       0.6557   0.9678   0.7155     C
H       0.6761   0.2434   0.1111     H
H       0.6761   0.2566   0.6111     H
H       0.7085   0.7281   0.9423     H
H       0.7085   0.7719   0.4423     H
H       0.7099   0.5345   0.8196     H
H       0.7099   0.9655   0.3196     H
H        0.726   0.6061    0.118     H
H        0.726   0.8939    0.618     H
P      0.75108  0.56078   0.3173     P
P      0.75108  0.93922   0.8173     P
C       0.7539   0.5133    0.108     C
C       0.7539   0.9867    0.608     C
O       0.7696   0.1006  0.81843     O
O       0.7696   0.3994  0.31843     O
Zn     0.78537  0.05604  0.46031    Zn
Zn     0.78537  0.44396  0.96031    Zn
H       0.7889   0.0393   0.6333     H
H       0.7889   0.4607   0.1333     H
C       0.8065   0.5544   0.2277     C
C       0.8065   0.9456   0.7277     C
O       0.8086   0.7243  0.77136     O
O       0.8086   0.7757  0.27136     O
O       0.8174   0.1567  0.51447     O
O       0.8174   0.3433  0.01447     O
O       0.8194   0.6301   0.3582     O
O       0.8194   0.8699   0.8582     O
O       0.8345   0.6453  0.04797     O
O       0.8345   0.8547  0.54797     O
H       0.8456   0.6098   0.2049     H
H       0.8456   0.8902   0.7049     H
C       0.8467   0.6284   0.2715     C
C       0.8467   0.8716   0.7715     C
H       0.8515   0.0378    0.728     H
H       0.8515   0.4622    0.228     H
H       0.8515   0.6818   0.7532     H
H       0.8515   0.8182   0.2532     H
H       0.8654   0.6272   0.0245     H
H       0.8654   0.8728   0.5245     H
O       0.8661   0.1591   0.4142     O
O       0.8661   0.3409   0.9142     O
C       0.8769   0.5359   0.0788     C
C       0.8769   0.9641   0.5788     C
O       0.9002    0.162  0.26185     O
O       0.9002    0.338  0.76185     O
O        0.911   0.1984  0.18205     O
O        0.911   0.3016  0.68205     O
O       0.9221   0.5276  0.85933     O
O       0.9221   0.9724  0.35933     O
P      0.92741  0.12569  0.55042     P
P      0.92741  0.37431  0.05042     P
O       0.9304   0.6004  0.96688     O
O       0.9304   0.8996  0.46688     O
O       0.9316   0.2457  0.58325     O
O       0.9316   0.2543  0.08325     O
O       0.9342   0.5489  0.71381     O
O       0.9342   0.9511  0.21381     O
Zn     0.93833  0.19789  0.80655    Zn
Zn     0.93833  0.30211  0.30655    Zn
P      0.96249  0.11013   0.2208     P
P      0.96249  0.38987   0.7208     P
Zn     0.96443  0.72894  0.85973    Zn
Zn     0.96443  0.77106  0.35973    Zn
O       0.9696   0.7159  0.14241     O
O       0.9696   0.7841  0.64241     O
P      0.97522  0.09927   0.3855     P
P      0.97522  0.40073   0.8855     P
