data_I
_chemical_name_common  '/home/zhangsd/repos/MofS-CGCNN/ML/data/SSD/clean_cifs/TIQGUW_clean'
_cell_length_a 12.26500
_cell_length_b 12.26500
_cell_length_c 12.42100
_cell_angle_alpha 90.00000
_cell_angle_beta  90.00000
_cell_angle_gamma 90.00000
_space_group_name_H-M_alt      'P 1'


loop_
_space_group_symop_operation_xyz
  'x, y, z' 

loop_
_atom_site_label
_atom_site_fract_x
_atom_site_fract_y
_atom_site_fract_z
_atom_site_type_symbol
Eu         0.0      0.0      0.0    Eu
Na         0.0      0.5    0.488    Na
H       0.0204   0.6085   0.2674     H
C       0.0444   0.7634   0.2133     C
H       0.0555   0.2221   0.4022     H
C       0.0648   0.1952   0.2406     C
O       0.0661   0.0967   0.8452     O
C       0.0737   0.6568    0.239     C
O       0.0859   0.6698   0.4868     O
O       0.0952   0.1574   0.0602     O
O       0.0967   0.9339   0.1548     O
C       0.1025   0.1997   0.3456     C
H       0.1072   0.7199   0.8768     H
O        0.116   0.4156   0.6155     O
H       0.1171   0.6494    0.705     H
N       0.1219   0.8325   0.1717     N
N       0.1318    0.162   0.1605     N
C       0.1321   0.7647   0.8194     C
C       0.1368   0.7232    0.718     C
O       0.1407    0.459   0.3495     O
H       0.1544   0.2764   0.8761     H
O       0.1574   0.9048   0.9398     O
N        0.162   0.8682   0.8395     N
N       0.1675   0.1219   0.8283     N
C       0.1709   0.7898   0.6327     C
O       0.1721   0.1898   0.5715     O
C       0.1789   0.6205   0.2237     C
S      0.18276  0.73529   0.5003     S
O       0.1898   0.8279   0.4285     O
O       0.1952   0.4176   0.1682     O
C       0.1952   0.9352   0.7594     C
C       0.1997   0.8975   0.6544     C
C       0.2029   0.2239   0.8465     C
C       0.2102   0.1709   0.3673     C
S      0.21272  0.48511   0.2613     S
H       0.2221   0.9445   0.5978     H
C       0.2239   0.7971   0.1535     C
C       0.2353   0.1321   0.1806     C
C       0.2366   0.0444   0.7867     C
C       0.2538   0.6909   0.1773     C
S      0.26471  0.18276   0.4997     S
Na      0.2724   0.4711   0.5092    Na
H       0.2764   0.8456   0.1239     H
C       0.2768   0.1368    0.282     C
H       0.2801   0.1072   0.1232     H
O       0.2822   0.6697    0.502     O
C       0.3091   0.2538   0.8227     C
O       0.3249   0.4909    0.296     O
H       0.3255   0.6663   0.1618     H
O       0.3302   0.0859   0.5132     O
O       0.3303   0.2822    0.498     O
H       0.3337   0.3255   0.8382     H
C       0.3432   0.0737    0.761     C
H       0.3506   0.1171    0.295     H
C       0.3795   0.1789   0.7763     C
H       0.3915   0.0204   0.7326     H
O       0.4156    0.884   0.3845     O
O       0.4176   0.8048   0.8318     O
O        0.459   0.8593   0.6505     O
Na      0.4711   0.7276   0.4908    Na
S      0.48511  0.78728   0.7387     S
O       0.4909   0.6751    0.704     O
Na         0.5      0.0    0.512    Na
Cl         0.5      0.5      0.5    Cl
O       0.5091   0.3249    0.704     O
S      0.51489  0.21272   0.7387     S
Na      0.5289   0.2724   0.4908    Na
O        0.541   0.1407   0.6505     O
O       0.5824   0.1952   0.8318     O
O       0.5844    0.116   0.3845     O
H       0.6085   0.9796   0.7326     H
C       0.6205   0.8211   0.7763     C
H       0.6494   0.8829    0.295     H
C       0.6568   0.9263    0.761     C
H       0.6663   0.6745   0.8382     H
O       0.6697   0.7178    0.498     O
O       0.6698   0.9141   0.5132     O
H       0.6745   0.3337   0.1618     H
O       0.6751   0.5091    0.296     O
C       0.6909   0.7462   0.8227     C
O       0.7178   0.3303    0.502     O
H       0.7199   0.8928   0.1232     H
C       0.7232   0.8632    0.282     C
H       0.7236   0.1544   0.1239     H
Na      0.7276   0.5289   0.5092    Na
S      0.73529  0.81724   0.4997     S
C       0.7462   0.3091   0.1773     C
C       0.7634   0.9556   0.7867     C
C       0.7647   0.8679   0.1806     C
C       0.7761   0.2029   0.1535     C
H       0.7779   0.0555   0.5978     H
S      0.78728  0.51489   0.2613     S
C       0.7898   0.8291   0.3673     C
C       0.7971   0.7761   0.8465     C
C       0.8003   0.1025   0.6544     C
C       0.8048   0.0648   0.7594     C
O       0.8048   0.5824   0.1682     O
O       0.8102   0.1721   0.4285     O
S      0.81724  0.26471   0.5003     S
C       0.8211   0.3795   0.2237     C
O       0.8279   0.8102   0.5715     O
C       0.8291   0.2102   0.6327     C
N       0.8325   0.8781   0.8283     N
N        0.838   0.1318   0.8395     N
O       0.8426   0.0952   0.9398     O
H       0.8456   0.7236   0.8761     H
O       0.8593    0.541   0.3495     O
C       0.8632   0.2768    0.718     C
C       0.8679   0.2353   0.8194     C
N       0.8682    0.838   0.1605     N
N       0.8781   0.1675   0.1717     N
H       0.8829   0.3506    0.705     H
O        0.884   0.5844   0.6155     O
H       0.8928   0.2801   0.8768     H
C       0.8975   0.8003   0.3456     C
O       0.9033   0.0661   0.1548     O
O       0.9048   0.8426   0.0602     O
O       0.9141   0.3302   0.4868     O
C       0.9263   0.3432    0.239     C
O       0.9339   0.9033   0.8452     O
C       0.9352   0.8048   0.2406     C
H       0.9445   0.7779   0.4022     H
C       0.9556   0.2366   0.2133     C
H       0.9796   0.3915   0.2674     H
