data_I
_chemical_name_common  '/home/zhangsd/repos/MofS-CGCNN/ML/data/SSD/clean_cifs/TIQGOQ_clean'
_cell_length_a 12.23800
_cell_length_b 12.23800
_cell_length_c 12.39800
_cell_angle_alpha 90.00000
_cell_angle_beta  90.00000
_cell_angle_gamma 90.00000
_space_group_name_H-M_alt      'P 1'


loop_
_space_group_symop_operation_xyz
  'x, y, z' 

loop_
_atom_site_label
_atom_site_fract_x
_atom_site_fract_y
_atom_site_fract_z
_atom_site_type_symbol
Sm         0.0      0.0      0.5    Sm
Na         0.0      0.5   0.0118    Na
H       0.0247   0.6114   0.2336     H
C       0.0473   0.7623   0.2842     C
H       0.0593   0.2231   0.0971     H
C       0.0638   0.1972   0.2591     C
O       0.0683   0.0981   0.6559     O
C       0.0764   0.6589   0.2622     C
O        0.086   0.6675   0.0103     O
O       0.0929   0.1582   0.4395     O
O       0.0981   0.9317   0.3441     O
C       0.1044   0.2014   0.1535     C
H       0.1081   0.7241   0.6259     H
N       0.1227   0.8335   0.3276     N
H       0.1231   0.6504   0.7905     H
O       0.1266   0.4174   0.8884     O
N       0.1297   0.1656   0.3387     N
C       0.1346   0.7667   0.6822     C
C       0.1405   0.7235   0.7796     C
O       0.1488   0.4574   0.1511     O
H       0.1567   0.2746   0.6225     H
O       0.1582   0.9071   0.5605     O
N       0.1656   0.8703   0.6613     N
N       0.1665   0.1227   0.6724     N
C       0.1733    0.789   0.8663     C
O       0.1759    0.193    0.931     O
C       0.1796   0.6218   0.2807     C
O       0.1821   0.4169   0.3373     O
S      0.18477  0.73205   0.9989     S
O        0.193   0.8241    0.069     O
C       0.1972   0.9362   0.7409     C
C       0.2014   0.8956   0.8465     C
C       0.2039   0.2236   0.6528     C
C        0.211   0.1733   0.1337     C
S        0.214   0.4829   0.2462     S
H       0.2231   0.9407   0.9029     H
C       0.2236   0.7961   0.3472     C
C       0.2333   0.1346   0.3178     C
C       0.2377   0.0473   0.7158     C
C       0.2547   0.6913   0.3246     C
S      0.26795  0.18477   0.0011     S
H       0.2746   0.8433   0.3775     H
H       0.2759   0.1081   0.3741     H
C       0.2765   0.1405   0.2204     C
O       0.2828   0.6661   0.9934     O
Na      0.2852    0.471   0.9996    Na
C       0.3087   0.2547   0.6754     C
H       0.3255   0.6678   0.3389     H
O       0.3274   0.4848   0.2197     O
H       0.3322   0.3255   0.6611     H
O       0.3325    0.086   0.9897     O
O       0.3339   0.2828   0.0066     O
C       0.3411   0.0764   0.7378     C
H       0.3496   0.1231   0.2095     H
C       0.3782   0.1796   0.7193     C
H       0.3886   0.0247   0.7664     H
O       0.4169   0.8179   0.6627     O
O       0.4174   0.8734   0.1116     O
O       0.4574   0.8512   0.8489     O
Na       0.471   0.7148   0.0004    Na
S       0.4829    0.786   0.7538     S
O       0.4848   0.6726   0.7803     O
Na         0.5      0.0   0.9882    Na
Cl         0.5      0.5    0.055    Cl
Cl         0.5      0.5    0.945    Cl
O       0.5152   0.3274   0.7803     O
S       0.5171    0.214   0.7538     S
Na       0.529   0.2852   0.0004    Na
O       0.5426   0.1488   0.8489     O
O       0.5826   0.1266   0.1116     O
O       0.5831   0.1821   0.6627     O
H       0.6114   0.9753   0.7664     H
C       0.6218   0.8204   0.7193     C
H       0.6504   0.8769   0.2095     H
C       0.6589   0.9236   0.7378     C
O       0.6661   0.7172   0.0066     O
O       0.6675    0.914   0.9897     O
H       0.6678   0.6745   0.6611     H
O       0.6726   0.5152   0.2197     O
H       0.6745   0.3322   0.3389     H
C       0.6913   0.7453   0.6754     C
Na      0.7148    0.529   0.9996    Na
O       0.7172   0.3339   0.9934     O
C       0.7235   0.8595   0.2204     C
H       0.7241   0.8919   0.3741     H
H       0.7254   0.1567   0.3775     H
S      0.73205  0.81523   0.0011     S
C       0.7453   0.3087   0.3246     C
C       0.7623   0.9527   0.7158     C
C       0.7667   0.8654   0.3178     C
C       0.7764   0.2039   0.3472     C
H       0.7769   0.0593   0.9029     H
S        0.786   0.5171   0.2462     S
C        0.789   0.8267   0.1337     C
C       0.7961   0.7764   0.6528     C
C       0.7986   0.1044   0.8465     C
C       0.8028   0.0638   0.7409     C
O        0.807   0.1759    0.069     O
S      0.81523  0.26795   0.9989     S
O       0.8179   0.5831   0.3373     O
C       0.8204   0.3782   0.2807     C
O       0.8241    0.807    0.931     O
C       0.8267    0.211   0.8663     C
N       0.8335   0.8773   0.6724     N
N       0.8344   0.1297   0.6613     N
O       0.8418   0.0929   0.5605     O
H       0.8433   0.7254   0.6225     H
O       0.8512   0.5426   0.1511     O
C       0.8595   0.2765   0.7796     C
C       0.8654   0.2333   0.6822     C
N       0.8703   0.8344   0.3387     N
O       0.8734   0.5826   0.8884     O
H       0.8769   0.3496   0.7905     H
N       0.8773   0.1665   0.3276     N
H       0.8919   0.2759   0.6259     H
C       0.8956   0.7986   0.1535     C
O       0.9019   0.0683   0.3441     O
O       0.9071   0.8418   0.4395     O
O        0.914   0.3325   0.0103     O
C       0.9236   0.3411   0.2622     C
O       0.9317   0.9019   0.6559     O
C       0.9362   0.8028   0.2591     C
H       0.9407   0.7769   0.0971     H
C       0.9527   0.2377   0.2842     C
H       0.9753   0.3886   0.2336     H
