data_I
_chemical_name_common  '/home/zhangsd/repos/MofS-CGCNN/ML/data/SSD/clean_cifs/TIQHEH_clean'
_cell_length_a 12.24500
_cell_length_b 12.24500
_cell_length_c 12.40700
_cell_angle_alpha 90.00000
_cell_angle_beta  90.00000
_cell_angle_gamma 90.00000
_space_group_name_H-M_alt      'P 1'


loop_
_space_group_symop_operation_xyz
  'x, y, z' 

loop_
_atom_site_label
_atom_site_fract_x
_atom_site_fract_y
_atom_site_fract_z
_atom_site_type_symbol
Tb         0.0      0.0      0.5    Tb
Na         0.0      0.5   0.9866    Na
H       0.0194    0.608   0.7666     H
C       0.0435   0.7641   0.7114     C
H       0.0551   0.2233   0.9033     H
C       0.0644   0.1941   0.7393     C
O       0.0658    0.096   0.3468     O
C       0.0725   0.6563   0.7375     C
O       0.0837   0.6707    0.986     O
O       0.0953   0.1552   0.5594     O
O        0.096   0.9342   0.6532     O
C       0.1019   0.1995    0.847     C
H       0.1032   0.7194   0.3767     H
H        0.112   0.6504   0.2021     H
O        0.115   0.4151   0.1158     O
N       0.1221    0.832   0.6698     N
C       0.1284   0.7644   0.3195     C
N        0.131   0.1599   0.6601     N
C        0.133   0.7237   0.2162     C
O       0.1403   0.4593    0.849     O
O       0.1552   0.9047   0.4406     O
H       0.1566   0.2745   0.3818     H
N       0.1599    0.869   0.3399     N
N        0.168   0.1221   0.3302     N
C        0.169    0.791   0.1319     C
O       0.1714   0.1881   0.0714     O
C       0.1783   0.6202    0.721     C
S      0.18118  0.73636   0.9996     S
O       0.1881   0.8286   0.9286     O
C       0.1941   0.9356   0.2607     C
O       0.1977   0.4167   0.6685     O
C       0.1995   0.8981    0.153     C
C       0.2045   0.2228   0.3498     C
C        0.209    0.169   0.8681     C
S      0.21314  0.48512  0.76118     S
C       0.2228   0.7955   0.6502     C
H       0.2233   0.9449   0.0967     H
C       0.2356   0.1284   0.6805     C
C       0.2359   0.0435   0.2886     C
C       0.2539   0.6907   0.6747     C
S      0.26364  0.18118   0.0004     S
Na      0.2731   0.4716   0.0062    Na
H       0.2745   0.8434   0.6182     H
C       0.2763    0.133   0.7838     C
H       0.2806   0.1032   0.6233     H
O       0.2806   0.6701   0.0038     O
C       0.3093   0.2539   0.3253     C
O       0.3258   0.4911    0.798     O
H       0.3261   0.6666   0.6601     H
O       0.3293   0.0837    0.014     O
O       0.3299   0.2806   0.9962     O
H       0.3334   0.3261   0.3399     H
C       0.3437   0.0725   0.2625     C
H       0.3496    0.112   0.7979     H
C       0.3798   0.1783    0.279     C
H        0.392   0.0194   0.2334     H
O       0.4151    0.885   0.8842     O
O       0.4167   0.8023   0.3315     O
O       0.4593   0.8597    0.151     O
Na      0.4716   0.7269   0.9938    Na
S      0.48512  0.78686  0.23882     S
O       0.4911   0.6742    0.202     O
Na         0.5      0.0   0.0134    Na
Cl         0.5      0.5      0.0    Cl
O       0.5089   0.3258    0.202     O
S      0.51488  0.21314  0.23882     S
Na      0.5284   0.2731   0.9938    Na
O       0.5407   0.1403    0.151     O
O       0.5833   0.1977   0.3315     O
O       0.5849    0.115   0.8842     O
H        0.608   0.9806   0.2334     H
C       0.6202   0.8217    0.279     C
H       0.6504    0.888   0.7979     H
C       0.6563   0.9275   0.2625     C
H       0.6666   0.6739   0.3399     H
O       0.6701   0.7194   0.9962     O
O       0.6707   0.9163    0.014     O
H       0.6739   0.3334   0.6601     H
O       0.6742   0.5089    0.798     O
C       0.6907   0.7461   0.3253     C
O       0.7194   0.3299   0.0038     O
H       0.7194   0.8968   0.6233     H
C       0.7237    0.867   0.7838     C
H       0.7255   0.1566   0.6182     H
Na      0.7269   0.5284   0.0062    Na
S      0.73636  0.81882   0.0004     S
C       0.7461   0.3093   0.6747     C
C       0.7641   0.9565   0.2886     C
C       0.7644   0.8716   0.6805     C
H       0.7767   0.0551   0.0967     H
C       0.7772   0.2045   0.6502     C
S      0.78686  0.51488  0.76118     S
C        0.791    0.831   0.8681     C
C       0.7955   0.7772   0.3498     C
C       0.8005   0.1019    0.153     C
O       0.8023   0.5833   0.6685     O
C       0.8059   0.0644   0.2607     C
O       0.8119   0.1714   0.9286     O
S      0.81882  0.26364   0.9996     S
C       0.8217   0.3798    0.721     C
O       0.8286   0.8119   0.0714     O
C        0.831    0.209   0.1319     C
N        0.832   0.8779   0.3302     N
N       0.8401    0.131   0.3399     N
H       0.8434   0.7255   0.3818     H
O       0.8448   0.0953   0.4406     O
O       0.8597   0.5407    0.849     O
C        0.867   0.2763   0.2162     C
N        0.869   0.8401   0.6601     N
C       0.8716   0.2356   0.3195     C
N       0.8779    0.168   0.6698     N
O        0.885   0.5849   0.1158     O
H        0.888   0.3496   0.2021     H
H       0.8968   0.2806   0.3767     H
C       0.8981   0.8005    0.847     C
O        0.904   0.0658   0.6532     O
O       0.9047   0.8448   0.5594     O
O       0.9163   0.3293    0.986     O
C       0.9275   0.3437   0.7375     C
O       0.9342    0.904   0.3468     O
C       0.9356   0.8059   0.7393     C
H       0.9449   0.7767   0.9033     H
C       0.9565   0.2359   0.7114     C
H       0.9806    0.392   0.7666     H
