data_I
_chemical_name_common  '/home/zhangsd/repos/MofS-CGCNN/ML/data/SSD/clean_cifs/TIRQOB_clean'
_cell_length_a 24.93290
_cell_length_b 24.93290
_cell_length_c 24.93290
_cell_angle_alpha 109.47100
_cell_angle_beta  109.47100
_cell_angle_gamma 109.47100
_space_group_name_H-M_alt      'P 1'


loop_
_space_group_symop_operation_xyz
  'x, y, z' 

loop_
_atom_site_label
_atom_site_fract_x
_atom_site_fract_y
_atom_site_fract_z
_atom_site_type_symbol
O          0.0      0.5  0.41686     O
Zn         0.0      0.5  0.49422    Zn
O          0.0      0.5  0.91686     O
Zn         0.0      0.5  0.99422    Zn
C       0.0001   0.9773    0.796     C
Zn     0.00373  0.42181  0.86926    Zn
C       0.0039   0.6493   0.4394     C
C       0.0052   0.0303   0.8479     C
Zn     0.00578  0.00578  0.50578    Zn
C       0.0087    0.715   0.4567     C
C       0.0093   0.8854   0.2059     C
O      0.01149  0.92436  0.47625     O
C       0.0121   0.9343   0.7008     C
H       0.0128   0.8544    0.176     H
C       0.0133   0.2634   0.0315     C
O      0.01374  0.38369  0.93505     O
C       0.0149   0.3926   0.4825     C
C       0.0175   0.0324   0.4101     C
C       0.0182   0.9867   0.7501     C
C       0.0227   0.3187   0.0228     C
C       0.0228   0.8187   0.0227     C
C       0.0228   0.9348   0.3116     C
H       0.0233   0.9401   0.6702     H
O      0.02375  0.03524  0.94811     O
H        0.024   0.1433   0.9373     H
C       0.0251   0.8427   0.4948     C
C       0.0275   0.8923   0.2698     C
C       0.0303   0.3479   0.5052     C
O       0.0315   0.0881   0.6804     O
C       0.0315   0.7634   0.0133     C
C       0.0322   0.0933   0.8571     C
C       0.0324   0.9101   0.5175     C
H       0.0342   0.9385   0.3527     H
O      0.03524  0.44811  0.52375     O
C       0.0406   0.1498   0.9104     C
H       0.0427    0.866   0.2809     H
C       0.0433    0.052   0.7583     C
H       0.0441   0.7909   0.6238     H
C       0.0505   0.1039   0.8114     C
O      0.05129  0.64975   0.9472     O
O      0.05136  0.13005  0.11631     O
O      0.05189  0.58713  0.57564     O
C        0.052   0.2583   0.5433     C
Zn     0.05255  0.13447  0.63074    Zn
O       0.0528  0.20255  0.60409     O
C       0.0534   0.7609   0.4495     C
O       0.0566   0.6489   0.4685     O
H       0.0599   0.2301   0.0832     H
C       0.0606   0.0645   0.7099     C
C       0.0611   0.8249   0.4678     C
H       0.0615   0.9142   0.0957     H
H       0.0627    0.706   0.5867     H
C       0.0645   0.2099   0.5606     C
O      0.06495  0.94864  0.57869     O
C       0.0652   0.8768    0.088     C
C       0.0657   0.2665   0.0778     C
C       0.0722    0.211   0.9204     C
O      0.07564  0.05189  0.08713     O
C       0.0778   0.7665   0.0657     C
Zn     0.07819  0.58192  0.94745    Zn
O      0.07869  0.06495  0.44864     O
C       0.0796   0.7906   0.6518     C
H       0.0797   0.2468   0.9559     H
C       0.0819    0.171   0.8253     C
Zn     0.08192  0.57819  0.44745    Zn
O      0.08314  0.08314  0.58314     O
H       0.0832   0.7301   0.0599     H
H       0.0851   0.7618   0.2191     H
H       0.0857   0.7023   0.4052     H
H       0.0858   0.6815   0.1473     H
H       0.0867   0.0627    0.206     H
O      0.08713  0.55189  0.07564     O
C        0.088   0.3768   0.0652     C
O       0.0881   0.1804   0.5315     O
C       0.0891   0.7434   0.4181     C
C       0.0896   0.7394   0.6302     C
C       0.0899   0.1074   0.1223     C
O       0.0923   0.4434   0.4119     O
C       0.0924   0.2198   0.8794     C
C       0.0933   0.3571   0.5322     C
H       0.0948   0.1805   0.7971     H
H       0.0957   0.4142   0.0615     H
O      0.09846  0.44871  0.89591     O
C       0.1039   0.3114   0.5505     C
O      0.10409   0.0528  0.70255     O
C       0.1074   0.6223   0.5899     C
C       0.1077   0.8775   0.1352     C
C       0.1092   0.8698   0.4594     C
H       0.1114   0.8741   0.7267     H
C       0.1146   0.8205   0.1239     C
H       0.1153   0.2627   0.8886     H
O      0.11631  0.63005  0.05136     O
H       0.1166   0.4143   0.3195     H
H       0.1193   0.9133    0.476     H
C       0.1206   0.8404    0.713     C
C       0.1223   0.6074   0.0899     C
C       0.1225   0.7577   0.2302     C
C       0.1232   0.7112   0.1884     C
H       0.1238   0.0441   0.2909     H
C       0.1239   0.3205   0.1146     C
H       0.1259   0.3526   0.2373     H
C       0.1274    0.787   0.4076     C
O      0.13005  0.61631  0.55136     O
C       0.1302   0.0896   0.2394     C
Zn     0.13074  0.05255  0.63447    Zn
H        0.134   0.9149   0.1767     H
Zn     0.13447  0.13074  0.55255    Zn
C       0.1352   0.3775   0.1077     C
C       0.1388   0.8482   0.4278     C
C       0.1429   0.7362   0.6751     C
H       0.1433   0.4373    0.524     H
C       0.1454   0.4961   0.4355     C
H       0.1456   0.8216   0.1584     H
H       0.1469   0.4168   0.9767     H
H       0.1473   0.1815   0.0858     H
H       0.1474   0.7733   0.3847     H
O       0.1489   0.5566   0.9685     O
C       0.1493   0.5039   0.9394     C
O      0.14975  0.55129   0.4472     O
C       0.1498   0.4104   0.5406     C
C       0.1518   0.0796   0.2906     C
C       0.1521   0.6824   0.6573     C
C       0.1543   0.4109    0.329     C
C       0.1573   0.1521   0.1824     C
H       0.1584   0.3216   0.1456     H
C       0.1596   0.3726   0.2802     C
H       0.1632   0.9872   0.3416     H
H       0.1671   0.8762   0.4203     H
H       0.1702   0.0233   0.4401     H
C        0.171   0.3253   0.5819     C
C       0.1747   0.8457   0.7566     C
C       0.1751   0.1429   0.2362     C
H        0.176   0.3544   0.0128     H
H       0.1767   0.4149    0.134     H
H       0.1784   0.8368    0.324     H
C       0.1795   0.8034   0.2941     C
O       0.1804   0.0315   0.5881     O
H       0.1805   0.2971   0.5948     H
C       0.1813    0.704   0.2041     C
H       0.1815   0.5858   0.6473     H
C       0.1824   0.6521   0.1573     C
C       0.1884   0.2112   0.1232     C
C       0.1886   0.7925   0.7391     C
C       0.1887   0.4222   0.9879     C
C       0.1966   0.9907   0.3761     C
C       0.2008   0.0121   0.4343     C
H       0.2023   0.5857   0.9052     H
O      0.20255  0.10409   0.5528     O
H       0.2029   0.8834   0.7977     H
C        0.204   0.6813   0.7041     C
C       0.2041    0.204   0.1813     C
C       0.2059   0.3854   0.0093     C
H        0.206   0.5627   0.0867     H
C       0.2063   0.4913    0.448     C
C       0.2075   0.4466   0.3961     C
H       0.2091   0.3329   0.2532     H
C       0.2094   0.3612    0.289     C
C       0.2099   0.0606   0.5645     C
C        0.211   0.4204   0.5722     C
C       0.2112   0.6232   0.6884     C
C        0.213   0.1206   0.3404     C
C        0.215   0.5087   0.9567     C
H       0.2191   0.2618   0.0851     H
C       0.2198   0.3794   0.5924     C
H       0.2267   0.1114   0.3741     H
H       0.2301   0.5832   0.5599     H
C       0.2302   0.2577   0.1225     C
C       0.2319   0.4685   0.9818     C
C       0.2335   0.7992   0.3113     C
C       0.2362   0.6429   0.1751     C
C       0.2366   0.7499   0.2681     C
H       0.2373   0.8526   0.1259     H
H       0.2382   0.9573   0.3233     H
C       0.2391   0.1886   0.2925     C
C       0.2394   0.5896   0.1302     C
C       0.2417   0.7937    0.785     C
C       0.2423   0.9725   0.3648     C
C       0.2434   0.5891   0.9181     C
H       0.2468   0.4559   0.5797     H
C       0.2499   0.7366   0.7681     C
C       0.2501   0.0182   0.4867     C
H       0.2532   0.8329   0.2091     H
C       0.2566   0.1747   0.3457     C
C       0.2577   0.6225   0.7302     C
C       0.2583   0.0433    0.552     C
C       0.2606   0.3908   0.3502     C
C       0.2609   0.5534   0.9495     C
H       0.2618   0.5851   0.7191     H
H       0.2627   0.3886   0.6153     H
C       0.2634   0.5315   0.5133     C
C       0.2638   0.4389   0.4067     C
C       0.2665   0.5778   0.5657     C
C       0.2681   0.2499   0.2366     C
C       0.2698   0.3923   0.0275     C
H       0.2699   0.8298   0.3531     H
H       0.2733   0.6474   0.8847     H
C       0.2802   0.8726   0.1596     C
H       0.2809    0.366   0.0427     H
C        0.285   0.2417   0.2937     C
C        0.287   0.6274   0.9076     C
C       0.2888   0.9772    0.412     C
C        0.289   0.8612   0.2094     C
C       0.2901   0.8546   0.8507     C
C       0.2906   0.5796   0.1518     C
H       0.2909   0.5441   0.1238     H
C       0.2925   0.6886   0.2391     C
C       0.2937   0.7417    0.285     C
H        0.294   0.3807   0.3567     H
C       0.2941   0.3034   0.1795     C
C       0.2959   0.4772   0.9999     C
C        0.296   0.0001   0.4773     C
H       0.2971   0.0948   0.6805     H
O      0.29745  0.85025  0.90154     O
H       0.2977   0.2029   0.3834     H
C       0.2992   0.7335   0.8113     C
C       0.3034   0.6795   0.7941     C
C       0.3113   0.2992   0.2335     C
C       0.3114   0.0505   0.6039     C
C       0.3116   0.4348   0.0228     C
C       0.3176   0.4749   0.4697     C
H       0.3185   0.9658   0.4043     H
C       0.3187   0.5228   0.5227     C
H       0.3195   0.9143   0.1166     H
O       0.3196   0.9077   0.8511     O
C       0.3205   0.6146   0.6239     C
H       0.3216   0.6456   0.6584     H
H       0.3233   0.4573   0.2382     H
H        0.324   0.3368   0.1784     H
C       0.3249   0.5611   0.9678     C
C       0.3253   0.0819    0.671     C
C        0.329   0.9109   0.1543     C
H       0.3298   0.7699   0.8531     H
H       0.3329   0.7532   0.7091     H
H       0.3368   0.6784    0.824     H
C       0.3404   0.6206    0.213     C
H       0.3416   0.4872   0.1632     H
C       0.3427   0.5251   0.9948     C
C       0.3457   0.6747   0.2566     C
C       0.3479   0.0052   0.5303     C
C       0.3482   0.6388   0.9278     C
C       0.3502   0.8908   0.2606     C
O      0.35025  0.79745  0.40154     O
C       0.3507   0.2901   0.3546     C
O       0.3511   0.3196   0.4077     O
H       0.3526   0.7373   0.6259     H
H       0.3527   0.4385   0.0342     H
H       0.3531   0.3298   0.2699     H
H       0.3544   0.5128    0.676     H
C       0.3546   0.7901   0.3507     C
H       0.3567   0.8807    0.294     H
C       0.3571   0.0322   0.5933     C
C       0.3612    0.789   0.7094     C
C       0.3648   0.4725   0.2423     C
Zn     0.36553  0.91808  0.99627    Zn
H        0.366   0.5427   0.7809     H
Zn     0.36926  0.00373  0.92181    Zn
C       0.3698   0.6092   0.9594     C
O      0.36995  0.92131  0.48626     O
C       0.3726   0.7802   0.6596     C
H       0.3741   0.6114   0.2267     H
C       0.3761   0.4907   0.1966     C
H       0.3762   0.6671   0.9203     H
C       0.3768   0.5652    0.588     C
C       0.3775   0.6077   0.6352     C
C       0.3777   0.4676   0.4851     C
C       0.3794   0.0924   0.7198     C
H       0.3807   0.8567    0.794     H
H       0.3834   0.7029   0.2977     H
O      0.38369  0.43505  0.51374     O
H       0.3847   0.2733   0.1474     H
C       0.3854   0.5093   0.7059     C
H       0.3886   0.1153   0.7627     H
C       0.3908   0.8502   0.7606     C
C       0.3923   0.5275   0.7698     C
C       0.3926   0.9825   0.5149     C
O      0.39591  0.09846  0.94871     O
C       0.3961   0.9466   0.2075     C
O      0.40154  0.29745  0.35025     O
H       0.4043   0.4658   0.3185     H
H       0.4052   0.2023   0.0857     H
C       0.4067   0.9389   0.2638     C
C       0.4076    0.287   0.1274     C
O       0.4077   0.8196   0.3511     O
C       0.4101   0.5324   0.0175     C
C       0.4104   0.0406   0.6498     C
C       0.4109    0.829   0.6543     C
O       0.4119   0.9434   0.0923     O
C        0.412   0.4772   0.2888     C
O      0.41287  0.48851  0.46476     O
H       0.4133   0.6193    0.976     H
H       0.4142   0.5615   0.5957     H
H       0.4143   0.8195   0.6166     H
H       0.4149    0.634   0.6767     H
H       0.4168   0.4767   0.6469     H
O      0.41686     -0.0      0.0     O
Zn     0.41808  0.86553  0.49627    Zn
C       0.4181   0.2434   0.0891     C
H       0.4203   0.3762   0.1671     H
C       0.4204   0.0722    0.711     C
O      0.42131  0.86995  0.98626     O
Zn     0.42181  0.36926  0.50373    Zn
C       0.4222   0.4879   0.6887     C
O      0.42436  0.51149  0.97625     O
C       0.4278   0.3482   0.1388     C
C       0.4343   0.5121   0.2008     C
C       0.4348   0.5228   0.8116     C
O      0.43505  0.01374  0.88369     O
C       0.4355   0.9961   0.1454     C
H       0.4373    0.024   0.6433     H
H       0.4385   0.5342   0.8527     H
C       0.4389   0.9067   0.7638     C
C       0.4394   0.1493   0.0039     C
H       0.4401   0.5233   0.1702     H
O       0.4434   0.9119   0.5923     O
C       0.4466   0.8961   0.7075     C
O       0.4472  0.05129  0.14975     O
Zn     0.44745  0.07819  0.08192    Zn
C        0.448   0.9913   0.2063     C
O      0.44811  0.02375  0.53524     O
O      0.44864  0.56495  0.07869     O
O      0.44871  0.39591  0.59846     O
C       0.4495   0.2609   0.0534     C
H       0.4559   0.0797   0.7468     H
C       0.4567    0.215   0.0087     C
H       0.4573   0.7382   0.8233     H
C       0.4594   0.3698   0.1092     C
O      0.46476  0.98851  0.41287     O
H       0.4658   0.8185   0.9043     H
C       0.4676   0.9851   0.8777     C
C       0.4678   0.3249   0.0611     C
O       0.4685   0.1489   0.0566     O
C       0.4685   0.4818   0.7319     C
C       0.4697   0.9749   0.3176     C
C       0.4725   0.7423   0.8648     C
C       0.4749   0.9697   0.8176     C
H        0.476   0.4133   0.1193     H
O      0.47625  0.42436  0.01149     O
H       0.4767   0.1469   0.9168     H
C       0.4772   0.4999   0.7959     C
C       0.4772   0.7888    0.912     C
C       0.4773   0.5001    0.296     C
C       0.4818   0.2319   0.9685     C
C       0.4825   0.8926   0.0149     C
C       0.4851   0.9676   0.3777     C
O      0.48626  0.42131  0.36995     O
C       0.4867   0.5182   0.2501     C
H       0.4872   0.6632   0.8416     H
C       0.4879   0.1887   0.9222     C
O      0.48851  0.96476  0.91287     O
C       0.4907   0.6966   0.8761     C
C       0.4913    0.948   0.7063     C
Zn     0.49422     -0.0      0.0    Zn
C       0.4948   0.3427   0.0251     C
C       0.4961   0.9355   0.6454     C
Zn     0.49627  0.36553  0.41808    Zn
C       0.4999   0.2959   0.9772     C
O          0.5  0.41686      0.5     O
Zn         0.5  0.49422      0.5    Zn
O          0.5  0.91686      0.5     O
Zn         0.5  0.99422      0.5    Zn
C       0.5001    0.796   0.9773     C
Zn     0.50373  0.86926  0.42181    Zn
C       0.5039   0.4394   0.6493     C
C       0.5052   0.8479   0.0303     C
Zn     0.50578  0.50578  0.00578    Zn
C       0.5087   0.4567    0.715     C
C       0.5093   0.2059   0.8854     C
O      0.51149  0.47625  0.92436     O
C       0.5121   0.7008   0.9343     C
H       0.5128    0.176   0.8544     H
C       0.5133   0.0315   0.2634     C
O      0.51374  0.93505  0.38369     O
C       0.5149   0.4825   0.3926     C
C       0.5175   0.4101   0.0324     C
C       0.5182   0.7501   0.9867     C
C       0.5227   0.0228   0.3187     C
C       0.5228   0.0227   0.8187     C
C       0.5228   0.3116   0.9348     C
H       0.5233   0.6702   0.9401     H
O      0.52375  0.94811  0.03524     O
H        0.524   0.9373   0.1433     H
C       0.5251   0.4948   0.8427     C
C       0.5275   0.2698   0.8923     C
C       0.5303   0.5052   0.3479     C
C       0.5315   0.0133   0.7634     C
O       0.5315   0.6804   0.0881     O
C       0.5322   0.8571   0.0933     C
C       0.5324   0.5175   0.9101     C
H       0.5342   0.3527   0.9385     H
O      0.53524  0.52375  0.44811     O
C       0.5406   0.9104   0.1498     C
H       0.5427   0.2809    0.866     H
C       0.5433   0.7583    0.052     C
H       0.5441   0.6238   0.7909     H
C       0.5505   0.8114   0.1039     C
O      0.55129   0.9472  0.64975     O
O      0.55136  0.11631  0.13005     O
O      0.55189  0.57564  0.58713     O
C        0.552   0.5433   0.2583     C
Zn     0.55255  0.63074  0.13447    Zn
O       0.5528  0.60409  0.20255     O
C       0.5534   0.4495   0.7609     C
O       0.5566   0.4685   0.6489     O
H       0.5599   0.0832   0.2301     H
C       0.5606   0.7099   0.0645     C
C       0.5611   0.4678   0.8249     C
H       0.5615   0.0957   0.9142     H
H       0.5627   0.5867    0.706     H
C       0.5645   0.5606   0.2099     C
O      0.56495  0.57869  0.94864     O
C       0.5652    0.088   0.8768     C
C       0.5657   0.0778   0.2665     C
C       0.5722   0.9204    0.211     C
O      0.57564  0.08713  0.05189     O
C       0.5778   0.0657   0.7665     C
Zn     0.57819  0.94745  0.58192    Zn
O      0.57869  0.44864  0.06495     O
C       0.5796   0.6518   0.7906     C
H       0.5797   0.9559   0.2468     H
C       0.5819   0.8253    0.171     C
Zn     0.58192  0.44745  0.57819    Zn
O      0.58314  0.58314  0.08314     O
H       0.5832   0.0599   0.7301     H
H       0.5851   0.2191   0.7618     H
H       0.5857   0.4052   0.7023     H
H       0.5858   0.1473   0.6815     H
H       0.5867    0.206   0.0627     H
O      0.58713  0.07564  0.55189     O
C        0.588   0.0652   0.3768     C
O       0.5881   0.5315   0.1804     O
C       0.5891   0.4181   0.7434     C
C       0.5896   0.6302   0.7394     C
C       0.5899   0.1223   0.1074     C
O       0.5923   0.4119   0.4434     O
C       0.5924   0.8794   0.2198     C
C       0.5933   0.5322   0.3571     C
H       0.5948   0.7971   0.1805     H
H       0.5957   0.0615   0.4142     H
O      0.59846  0.89591  0.44871     O
C       0.6039   0.5505   0.3114     C
O      0.60409  0.70255   0.0528     O
C       0.6074   0.5899   0.6223     C
C       0.6077   0.1352   0.8775     C
C       0.6092   0.4594   0.8698     C
H       0.6114   0.7267   0.8741     H
C       0.6146   0.1239   0.8205     C
H       0.6153   0.8886   0.2627     H
O      0.61631  0.05136  0.63005     O
H       0.6166   0.3195   0.4143     H
H       0.6193    0.476   0.9133     H
C       0.6206    0.713   0.8404     C
C       0.6223   0.0899   0.6074     C
C       0.6225   0.2302   0.7577     C
C       0.6232   0.1884   0.7112     C
H       0.6238   0.2909   0.0441     H
C       0.6239   0.1146   0.3205     C
H       0.6259   0.2373   0.3526     H
C       0.6274   0.4076    0.787     C
O      0.63005  0.55136  0.61631     O
C       0.6302   0.2394   0.0896     C
Zn     0.63074  0.63447  0.05255    Zn
H        0.634   0.1767   0.9149     H
Zn     0.63447  0.55255  0.13074    Zn
C       0.6352   0.1077   0.3775     C
C       0.6388   0.4278   0.8482     C
C       0.6429   0.6751   0.7362     C
H       0.6433    0.524   0.4373     H
C       0.6454   0.4355   0.4961     C
H       0.6456   0.1584   0.8216     H
H       0.6469   0.9767   0.4168     H
H       0.6473   0.0858   0.1815     H
H       0.6474   0.3847   0.7733     H
O       0.6489   0.9685   0.5566     O
C       0.6493   0.9394   0.5039     C
O      0.64975   0.4472  0.55129     O
C       0.6498   0.5406   0.4104     C
C       0.6518   0.2906   0.0796     C
C       0.6521   0.6573   0.6824     C
C       0.6543    0.329   0.4109     C
C       0.6573   0.1824   0.1521     C
H       0.6584   0.1456   0.3216     H
C       0.6596   0.2802   0.3726     C
H       0.6632   0.3416   0.9872     H
H       0.6671   0.4203   0.8762     H
H       0.6702   0.4401   0.0233     H
C        0.671   0.5819   0.3253     C
C       0.6747   0.7566   0.8457     C
C       0.6751   0.2362   0.1429     C
H        0.676   0.0128   0.3544     H
H       0.6767    0.134   0.4149     H
H       0.6784    0.324   0.8368     H
C       0.6795   0.2941   0.8034     C
O       0.6804   0.5881   0.0315     O
H       0.6805   0.5948   0.2971     H
C       0.6813   0.2041    0.704     C
H       0.6815   0.6473   0.5858     H
C       0.6824   0.1573   0.6521     C
C       0.6884   0.1232   0.2112     C
C       0.6886   0.7391   0.7925     C
C       0.6887   0.9879   0.4222     C
C       0.6966   0.3761   0.9907     C
C       0.7008   0.4343   0.0121     C
H       0.7023   0.9052   0.5857     H
O      0.70255   0.5528  0.10409     O
H       0.7029   0.7977   0.8834     H
C        0.704   0.7041   0.6813     C
C       0.7041   0.1813    0.204     C
C       0.7059   0.0093   0.3854     C
H        0.706   0.0867   0.5627     H
C       0.7063    0.448   0.4913     C
C       0.7075   0.3961   0.4466     C
H       0.7091   0.2532   0.3329     H
C       0.7094    0.289   0.3612     C
C       0.7099   0.5645   0.0606     C
C        0.711   0.5722   0.4204     C
C       0.7112   0.6884   0.6232     C
C        0.713   0.3404   0.1206     C
C        0.715   0.9567   0.5087     C
H       0.7191   0.0851   0.2618     H
C       0.7198   0.5924   0.3794     C
H       0.7267   0.3741   0.1114     H
H       0.7301   0.5599   0.5832     H
C       0.7302   0.1225   0.2577     C
C       0.7319   0.9818   0.4685     C
C       0.7335   0.3113   0.7992     C
C       0.7362   0.1751   0.6429     C
C       0.7366   0.2681   0.7499     C
H       0.7373   0.1259   0.8526     H
H       0.7382   0.3233   0.9573     H
C       0.7391   0.2925   0.1886     C
C       0.7394   0.1302   0.5896     C
C       0.7417    0.785   0.7937     C
C       0.7423   0.3648   0.9725     C
C       0.7434   0.9181   0.5891     C
H       0.7468   0.5797   0.4559     H
C       0.7499   0.7681   0.7366     C
C       0.7501   0.4867   0.0182     C
H       0.7532   0.2091   0.8329     H
C       0.7566   0.3457   0.1747     C
C       0.7577   0.7302   0.6225     C
C       0.7583    0.552   0.0433     C
C       0.7606   0.3502   0.3908     C
C       0.7609   0.9495   0.5534     C
H       0.7618   0.7191   0.5851     H
H       0.7627   0.6153   0.3886     H
C       0.7634   0.5133   0.5315     C
C       0.7638   0.4067   0.4389     C
C       0.7665   0.5657   0.5778     C
C       0.7681   0.2366   0.2499     C
C       0.7698   0.0275   0.3923     C
H       0.7699   0.3531   0.8298     H
H       0.7733   0.8847   0.6474     H
C       0.7802   0.1596   0.8726     C
H       0.7809   0.0427    0.366     H
C        0.785   0.2937   0.2417     C
C        0.787   0.9076   0.6274     C
C       0.7888    0.412   0.9772     C
C        0.789   0.2094   0.8612     C
C       0.7901   0.8507   0.8546     C
C       0.7906   0.1518   0.5796     C
H       0.7909   0.1238   0.5441     H
C       0.7925   0.2391   0.6886     C
C       0.7937    0.285   0.7417     C
H        0.794   0.3567   0.3807     H
C       0.7941   0.1795   0.3034     C
C       0.7959   0.9999   0.4772     C
C        0.796   0.4773   0.0001     C
H       0.7971   0.6805   0.0948     H
O      0.79745  0.90154  0.85025     O
H       0.7977   0.3834   0.2029     H
C       0.7992   0.8113   0.7335     C
C       0.8034   0.7941   0.6795     C
C       0.8113   0.2335   0.2992     C
C       0.8114   0.6039   0.0505     C
C       0.8116   0.0228   0.4348     C
C       0.8176   0.4697   0.4749     C
H       0.8185   0.4043   0.9658     H
C       0.8187   0.5227   0.5228     C
H       0.8195   0.1166   0.9143     H
O       0.8196   0.8511   0.9077     O
C       0.8205   0.6239   0.6146     C
H       0.8216   0.6584   0.6456     H
H       0.8233   0.2382   0.4573     H
H        0.824   0.1784   0.3368     H
C       0.8249   0.9678   0.5611     C
C       0.8253    0.671   0.0819     C
C        0.829   0.1543   0.9109     C
H       0.8298   0.8531   0.7699     H
H       0.8329   0.7091   0.7532     H
H       0.8368    0.824   0.6784     H
C       0.8404    0.213   0.6206     C
H       0.8416   0.1632   0.4872     H
C       0.8427   0.9948   0.5251     C
C       0.8457   0.2566   0.6747     C
C       0.8479   0.5303   0.0052     C
C       0.8482   0.9278   0.6388     C
C       0.8502   0.2606   0.8908     C
O      0.85025  0.40154  0.79745     O
C       0.8507   0.3546   0.2901     C
O       0.8511   0.4077   0.3196     O
H       0.8526   0.6259   0.7373     H
H       0.8527   0.0342   0.4385     H
H       0.8531   0.2699   0.3298     H
H       0.8544    0.676   0.5128     H
C       0.8546   0.3507   0.7901     C
H       0.8567    0.294   0.8807     H
C       0.8571   0.5933   0.0322     C
C       0.8612   0.7094    0.789     C
C       0.8648   0.2423   0.4725     C
Zn     0.86553  0.99627  0.91808    Zn
H        0.866   0.7809   0.5427     H
Zn     0.86926  0.92181  0.00373    Zn
C       0.8698   0.9594   0.6092     C
O      0.86995  0.48626  0.92131     O
C       0.8726   0.6596   0.7802     C
H       0.8741   0.2267   0.6114     H
C       0.8761   0.1966   0.4907     C
H       0.8762   0.9203   0.6671     H
C       0.8768    0.588   0.5652     C
C       0.8775   0.6352   0.6077     C
C       0.8777   0.4851   0.4676     C
C       0.8794   0.7198   0.0924     C
H       0.8807    0.794   0.8567     H
H       0.8834   0.2977   0.7029     H
O      0.88369  0.51374  0.43505     O
H       0.8847   0.1474   0.2733     H
C       0.8854   0.7059   0.5093     C
H       0.8886   0.7627   0.1153     H
C       0.8908   0.7606   0.8502     C
C       0.8923   0.7698   0.5275     C
C       0.8926   0.5149   0.9825     C
O      0.89591  0.94871  0.09846     O
C       0.8961   0.2075   0.9466     C
O      0.90154  0.35025  0.29745     O
H       0.9043   0.3185   0.4658     H
H       0.9052   0.0857   0.2023     H
C       0.9067   0.2638   0.9389     C
C       0.9076   0.1274    0.287     C
O       0.9077   0.3511   0.8196     O
C       0.9101   0.0175   0.5324     C
C       0.9104   0.6498   0.0406     C
C       0.9109   0.6543    0.829     C
O       0.9119   0.0923   0.9434     O
C        0.912   0.2888   0.4772     C
O      0.91287  0.46476  0.48851     O
H       0.9133    0.976   0.6193     H
H       0.9142   0.5957   0.5615     H
H       0.9143   0.6166   0.8195     H
H       0.9149   0.6767    0.634     H
H       0.9168   0.6469   0.4767     H
O      0.91686      0.0      0.0     O
Zn     0.91808  0.49627  0.86553    Zn
C       0.9181   0.0891   0.2434     C
H       0.9203   0.1671   0.3762     H
C       0.9204    0.711   0.0722     C
O      0.92131  0.98626  0.86995     O
Zn     0.92181  0.50373  0.36926    Zn
C       0.9222   0.6887   0.4879     C
O      0.92436  0.97625  0.51149     O
C       0.9278   0.1388   0.3482     C
C       0.9343   0.2008   0.5121     C
C       0.9348   0.8116   0.5228     C
O      0.93505  0.88369  0.01374     O
C       0.9355   0.1454   0.9961     C
H       0.9373   0.6433    0.024     H
H       0.9385   0.8527   0.5342     H
C       0.9389   0.7638   0.9067     C
C       0.9394   0.0039   0.1493     C
H       0.9401   0.1702   0.5233     H
O       0.9434   0.5923   0.9119     O
C       0.9466   0.7075   0.8961     C
O       0.9472  0.14975  0.05129     O
Zn     0.94745  0.08192  0.07819    Zn
C        0.948   0.2063   0.9913     C
O      0.94811  0.53524  0.02375     O
O      0.94864  0.07869  0.56495     O
O      0.94871  0.59846  0.39591     O
C       0.9495   0.0534   0.2609     C
H       0.9559   0.7468   0.0797     H
C       0.9567   0.0087    0.215     C
H       0.9573   0.8233   0.7382     H
C       0.9594   0.1092   0.3698     C
O      0.96476  0.41287  0.98851     O
H       0.9658   0.9043   0.8185     H
C       0.9676   0.8777   0.9851     C
C       0.9678   0.0611   0.3249     C
O       0.9685   0.0566   0.1489     O
C       0.9685   0.7319   0.4818     C
C       0.9697   0.3176   0.9749     C
C       0.9725   0.8648   0.7423     C
C       0.9749   0.8176   0.9697     C
H        0.976   0.1193   0.4133     H
O      0.97625  0.01149  0.42436     O
H       0.9767   0.9168   0.1469     H
C       0.9772   0.7959   0.4999     C
C       0.9772    0.912   0.7888     C
C       0.9773    0.296   0.5001     C
C       0.9818   0.9685   0.2319     C
C       0.9825   0.0149   0.8926     C
C       0.9851   0.3777   0.9676     C
O      0.98626  0.36995  0.42131     O
C       0.9867   0.2501   0.5182     C
H       0.9872   0.8416   0.6632     H
C       0.9879   0.9222   0.1887     C
O      0.98851  0.91287  0.96476     O
C       0.9907   0.8761   0.6966     C
C       0.9913   0.7063    0.948     C
Zn     0.99422     -0.0      0.0    Zn
C       0.9948   0.0251   0.3427     C
C       0.9961   0.6454   0.9355     C
Zn     0.99627  0.41808  0.36553    Zn
C       0.9999   0.9772   0.2959     C
