data_I
_chemical_name_common  '/home/zhangsd/repos/MofS-CGCNN/ML/data/SSD/clean_cifs/TORJIV_clean'
_cell_length_a 10.90200
_cell_length_b 16.71500
_cell_length_c 19.20100
_cell_angle_alpha 90.00000
_cell_angle_beta  90.00000
_cell_angle_gamma 90.00000
_space_group_name_H-M_alt      'P 1'


loop_
_space_group_symop_operation_xyz
  'x, y, z' 

loop_
_atom_site_label
_atom_site_fract_x
_atom_site_fract_y
_atom_site_fract_z
_atom_site_type_symbol
O         0.01     0.75    0.164     O
C        0.014   0.6767   0.5089     C
C        0.014   0.8233   0.5089     C
H       0.0183     0.25   0.0797     H
C       0.0196   0.5758   0.6067     C
C       0.0196   0.9242   0.6067     C
H       0.0252    0.674   0.4588     H
H       0.0252    0.826   0.4588     H
H       0.0335    0.011   0.6795     H
H       0.0335    0.489   0.6795     H
H       0.0379     0.75   0.0358     H
H       0.0385   0.1065   0.3701     H
H       0.0385   0.3935   0.3701     H
C       0.0444     0.25   0.9771     C
C       0.0623   0.5047    0.636     C
C       0.0623   0.9953    0.636     C
C       0.0646   0.6004   0.5424     C
C       0.0646   0.8996   0.5424     C
H       0.0733   0.1806   0.4818     H
H       0.0733   0.3194   0.4818     H
N       0.0775     0.75   0.5367     N
C       0.0787     0.25   0.0456     C
C       0.1065     0.25   0.8486     C
O       0.1349    0.148   0.6865     O
O       0.1349    0.352   0.6865     O
C        0.135     0.25   0.9285     C
H       0.1456     0.75   0.7043     H
C       0.1464   0.0428   0.6017     C
C       0.1464   0.4572   0.6017     C
O       0.1479     0.25   0.1851     O
C       0.1492   0.5549   0.5072     C
C       0.1492   0.9451   0.5072     C
O       0.1505     0.75   0.6617     O
H       0.1783   0.5715    0.464     H
H       0.1783   0.9285    0.464     H
H       0.1825     0.75   0.4117     H
C       0.1878   0.1179   0.6324     C
C       0.1878   0.3821   0.6324     C
O       0.1892     0.25   0.8059     O
C       0.1918   0.0174   0.5372     C
C       0.1918   0.4826   0.5372     C
C        0.202     0.25   0.0658     C
Tb     0.20767     0.75  0.20365    Tb
C       0.2084     0.75   0.5141     C
O       0.2201   0.6555   0.1068     O
O       0.2201   0.8445   0.1068     O
C       0.2303     0.25   0.1427     C
C       0.2421     0.75   0.4464     C
H       0.2499    0.548    0.014     H
H       0.2499    0.952    0.014     H
H       0.2501    0.048    0.514     H
H       0.2501    0.452    0.514     H
C       0.2579     0.25   0.9464     C
C       0.2697     0.75   0.6427     C
O       0.2799   0.1555   0.6068     O
O       0.2799   0.3445   0.6068     O
C       0.2916     0.25   0.0141     C
Tb     0.29233     0.25  0.70365    Tb
C        0.298     0.75   0.5658     C
C       0.3082   0.5174   0.0372     C
C       0.3082   0.9826   0.0372     C
O       0.3108     0.75   0.3059     O
C       0.3122   0.6179   0.1324     C
C       0.3122   0.8821   0.1324     C
H       0.3175     0.25   0.9117     H
H       0.3217   0.0715    0.964     H
H       0.3217   0.4285    0.964     H
O       0.3495     0.25   0.1617     O
C       0.3508   0.0549   0.0072     C
C       0.3508   0.4451   0.0072     C
O       0.3521     0.75   0.6851     O
C       0.3536   0.5428   0.1017     C
C       0.3536   0.9572   0.1017     C
H       0.3544     0.25   0.2043     H
C        0.365     0.75   0.4285     C
O       0.3651    0.648   0.1865     O
O       0.3651    0.852   0.1865     O
C       0.3935     0.75   0.3486     C
C       0.4213     0.75   0.5456     C
N       0.4225     0.25   0.0367     N
H       0.4267   0.6806   0.9818     H
H       0.4267   0.8194   0.9818     H
C       0.4354   0.1004   0.0424     C
C       0.4354   0.3996   0.0424     C
C       0.4377   0.0047    0.136     C
C       0.4377   0.4953    0.136     C
C       0.4556     0.75   0.4771     C
H       0.4615   0.6065   0.8701     H
H       0.4615   0.8935   0.8701     H
H       0.4621     0.25   0.5358     H
H       0.4665    0.511   0.1795     H
H       0.4665    0.989   0.1795     H
H       0.4748    0.174   0.9588     H
H       0.4748    0.326   0.9588     H
C       0.4804   0.0758   0.1067     C
C       0.4804   0.4242   0.1067     C
H       0.4817     0.75   0.5797     H
C        0.486   0.1767   0.0089     C
C        0.486   0.3233   0.0089     C
O         0.49     0.25    0.664     O
O         0.51     0.75    0.336     O
C        0.514   0.6767   0.9911     C
C        0.514   0.8233   0.9911     C
H       0.5183     0.25   0.4203     H
C       0.5196   0.5758   0.8933     C
C       0.5196   0.9242   0.8933     C
H       0.5252    0.674   0.0412     H
H       0.5252    0.826   0.0412     H
H       0.5335    0.011   0.8205     H
H       0.5335    0.489   0.8205     H
H       0.5379     0.75   0.4642     H
H       0.5385   0.1065   0.1299     H
H       0.5385   0.3935   0.1299     H
C       0.5444     0.25   0.5229     C
C       0.5623   0.5047    0.864     C
C       0.5623   0.9953    0.864     C
C       0.5646   0.6004   0.9576     C
C       0.5646   0.8996   0.9576     C
H       0.5733   0.1806   0.0182     H
H       0.5733   0.3194   0.0182     H
N       0.5775     0.75   0.9633     N
C       0.5787     0.25   0.4544     C
C       0.6065     0.25   0.6514     C
O       0.6349    0.148   0.8135     O
O       0.6349    0.352   0.8135     O
C        0.635     0.25   0.5715     C
H       0.6456     0.75   0.7957     H
C       0.6464   0.0428   0.8983     C
C       0.6464   0.4572   0.8983     C
O       0.6479     0.25   0.3149     O
C       0.6492   0.5549   0.9928     C
C       0.6492   0.9451   0.9928     C
O       0.6505     0.75   0.8383     O
H       0.6783   0.5715    0.036     H
H       0.6783   0.9285    0.036     H
H       0.6825     0.75   0.0883     H
C       0.6878   0.1179   0.8676     C
C       0.6878   0.3821   0.8676     C
O       0.6892     0.25   0.6941     O
C       0.6918   0.0174   0.9628     C
C       0.6918   0.4826   0.9628     C
C        0.702     0.25   0.4342     C
Tb     0.70767     0.75  0.29635    Tb
C       0.7084     0.75   0.9859     C
O       0.7201   0.6555   0.3932     O
O       0.7201   0.8445   0.3932     O
C       0.7303     0.25   0.3573     C
C       0.7421     0.75   0.0536     C
H       0.7499    0.548    0.486     H
H       0.7499    0.952    0.486     H
H       0.7501    0.048    0.986     H
H       0.7501    0.452    0.986     H
C       0.7579     0.25   0.5536     C
C       0.7697     0.75   0.8573     C
O       0.7799   0.1555   0.8932     O
O       0.7799   0.3445   0.8932     O
C       0.7916     0.25   0.4859     C
Tb     0.79233     0.25  0.79635    Tb
C        0.798     0.75   0.9342     C
C       0.8082   0.5174   0.4628     C
C       0.8082   0.9826   0.4628     C
O       0.8108     0.75   0.1941     O
C       0.8122   0.6179   0.3676     C
C       0.8122   0.8821   0.3676     C
H       0.8175     0.25   0.5883     H
H       0.8217   0.0715    0.536     H
H       0.8217   0.4285    0.536     H
O       0.8495     0.25   0.3383     O
C       0.8508   0.0549   0.4928     C
C       0.8508   0.4451   0.4928     C
O       0.8521     0.75   0.8149     O
C       0.8536   0.5428   0.3983     C
C       0.8536   0.9572   0.3983     C
H       0.8544     0.25   0.2957     H
C        0.865     0.75   0.0715     C
O       0.8651    0.648   0.3135     O
O       0.8651    0.852   0.3135     O
C       0.8935     0.75   0.1514     C
C       0.9213     0.75   0.9544     C
N       0.9225     0.25   0.4633     N
H       0.9267   0.6806   0.5182     H
H       0.9267   0.8194   0.5182     H
C       0.9354   0.1004   0.4576     C
C       0.9354   0.3996   0.4576     C
C       0.9377   0.0047    0.364     C
C       0.9377   0.4953    0.364     C
C       0.9556     0.75   0.0229     C
H       0.9615   0.6065   0.6299     H
H       0.9615   0.8935   0.6299     H
H       0.9621     0.25   0.9642     H
H       0.9665    0.511   0.3205     H
H       0.9665    0.989   0.3205     H
H       0.9748    0.174   0.5412     H
H       0.9748    0.326   0.5412     H
C       0.9804   0.0758   0.3933     C
C       0.9804   0.4242   0.3933     C
H       0.9817     0.75   0.9203     H
C        0.986   0.1767   0.4911     C
C        0.986   0.3233   0.4911     C
O         0.99     0.25    0.836     O
