data_I
_chemical_name_common  '/home/zhangsd/repos/MofS-CGCNN/ML/data/SSD/clean_cifs/TOVJUL_clean'
_cell_length_a 23.09000
_cell_length_b 24.24000
_cell_length_c 23.97000
_cell_angle_alpha 104.27400
_cell_angle_beta  90.00000
_cell_angle_gamma 90.00000
_space_group_name_H-M_alt      'P 1'


loop_
_space_group_symop_operation_xyz
  'x, y, z' 

loop_
_atom_site_label
_atom_site_fract_x
_atom_site_fract_y
_atom_site_fract_z
_atom_site_type_symbol
H       0.0004   0.5711   0.6515     H
C        0.001    0.347   0.0456     C
Si       0.001    0.761   0.0329    Si
H       0.0032   0.5763   0.8957     H
C       0.0032   0.6769   0.4866     C
C       0.0039   0.3553   0.3749     C
H       0.0067   0.6197   0.4085     H
Si      0.0074   0.2504   0.4054    Si
C        0.011   0.3423   0.8572     C
H       0.0118   0.6295   0.1538     H
C       0.0125   0.6897   0.1076     C
O       0.0147   0.5308   0.2505     O
C       0.0171   0.3526    0.567     C
C       0.0209    0.269   0.9085     C
C       0.0218   0.6037   0.6486     C
C       0.0245   0.6098   0.9124     C
C       0.0274   0.6925   0.6207     C
H       0.0277   0.5541   0.2797     H
C       0.0301   0.7021   0.9788     C
C       0.0316   0.2826   0.4776     C
H       0.0396   0.3512   0.0336     H
H       0.0409   0.6695   0.4988     H
H       0.0427   0.1348    0.543     H
H       0.0429   0.3599    0.388     H
C       0.0437   0.8064   0.5901     C
H       0.0474   0.8052   0.5048     H
H       0.0484   0.1277   0.9358     H
H       0.0513   0.6833   0.0945     H
H       0.0518    0.822   0.6772     H
C       0.0528   0.8214   0.0637     C
H       0.0567   0.1346   0.3733     H
C       0.0571   0.2048   0.9932     C
H       0.0581   0.0995   0.7964     H
H       0.0582   0.8179   0.1476     H
H       0.0604   0.8386   0.9849     H
C       0.0612   0.8243   0.5419     C
C       0.0638   0.8343   0.6443     C
O       0.0642   0.4077   0.7935     O
C       0.0658   0.2129   0.3574     C
O       0.0672    0.408   0.6724     O
H       0.0679   0.1023   0.4814     H
C       0.0679   0.3331    0.838     C
C       0.0709   0.1485   0.9672     C
H       0.0717   0.1643   0.7966     H
C       0.0723   0.3417   0.5849     C
C       0.0726   0.8368   0.1202     C
C       0.0739   0.8491   0.0235     C
O        0.074   0.5289   0.7032     O
O       0.0752    0.529   0.8232     O
C       0.0764   0.1306   0.5174     C
Fe     0.07683  0.46858  0.74669    Fe
C       0.0777   0.2598   0.8893     C
C       0.0787    0.156   0.3526     C
C       0.0788   0.6105   0.6677     C
H       0.0806   0.2736   0.0569     H
C        0.081   0.6159   0.8948     C
C       0.0844   0.6992   0.6399     C
H       0.0852   0.1673    0.509     H
C       0.0866   0.7081   0.9612     C
C       0.0868   0.2716   0.4954     C
C       0.0886   0.1284   0.8007     C
H       0.0892   0.2832   0.3304     H
C         0.09   0.2351   0.0391     C
C       0.0944   0.3676   0.8002     C
C       0.0959   0.3693    0.641     C
C       0.0981   0.2442   0.3271     C
C       0.0988   0.8702    0.548     C
H       0.1005   0.2316   0.9003     H
C       0.1012   0.2918   0.8541     C
C       0.1014   0.8802   0.6505     C
C       0.1055   0.5669   0.6934     C
C       0.1056   0.5707   0.8457     C
H       0.1058   0.7319   0.6369     H
H       0.1064   0.1342   0.8388     H
C       0.1071   0.3012   0.5491     C
H       0.1078   0.7417   0.9779     H
C       0.1101   0.6583   0.6633     C
H       0.1106    0.244    0.471     H
H       0.1108   0.8824   0.5151     H
C        0.112    0.665   0.9192     C
C       0.1134   0.8799   0.1365     C
C       0.1147   0.8922   0.0399     C
H       0.1152   0.8992   0.6876     H
C       0.1175   0.1225   0.9871     C
C        0.119   0.8981   0.6023     C
C        0.124   0.1303   0.3174     C
H       0.1269   0.0841   0.9694     H
H       0.1269   0.8904   0.1752     H
H       0.1291   0.9111   0.0125     H
C       0.1307   0.1101   0.5479     C
H       0.1329   0.0913   0.3141     H
C       0.1341   0.1087   0.7549     C
C       0.1345   0.9076   0.0964     C
C       0.1367   0.2092   0.0591     C
H         0.14   0.2855    0.841     H
H       0.1408   0.4708   0.3491     H
O       0.1428   0.1448   0.5937     O
O       0.1429   0.1401   0.7221     O
C       0.1434   0.2186   0.2919     C
H       0.1438   0.4351   0.1194     H
O       0.1443   0.3586    0.781     O
O       0.1447   0.3617   0.6592     O
H       0.1448   0.2937   0.5613     H
H       0.1491   0.6629   0.6764     H
C       0.1504   0.1529   0.0331     C
H       0.1507   0.6691   0.9071     H
O       0.1529   0.4653   0.7446     O
C       0.1563   0.1616   0.2871     C
O       0.1567   0.5703   0.7095     O
O       0.1573   0.5721   0.8323     O
H       0.1592   0.2299   0.0905     H
C       0.1596   0.9453   0.6131     C
O       0.1604   0.0664   0.5323     O
O       0.1643    0.065   0.7453     O
H       0.1654     0.24   0.2712     H
H       0.1695   0.4142   0.3599     H
O       0.1748    0.962   0.5705     O
C       0.1763   0.4543   0.3606     C
H       0.1784   0.4877   0.1063     H
C       0.1789   0.9546     0.11     C
C       0.1822   0.4496   0.1129     C
O       0.1824   0.9625   0.6611     O
H       0.1871   0.4752   0.3997     H
O       0.1946   0.9702   0.1609     O
Fe     0.19699  0.39206   0.7277    Fe
C       0.1985   0.1248   0.0586     C
H       0.2001   0.4241   0.0792     H
C       0.2013   0.1348    0.243     C
O       0.2014    0.967   0.0677     O
Fe     0.20515   0.5319  0.76133    Fe
O       0.2057   0.0735   0.0359     O
O       0.2082   0.0856   0.2484     O
Fe      0.2107  0.14517   0.6577    Fe
C       0.2198   0.4525   0.1651     C
O       0.2199   0.1517   0.2013     O
C       0.2244   0.4586   0.3194     C
H       0.2284   0.9591   0.2564     H
O       0.2298   0.0654   0.6378     O
O       0.2299   0.4092   0.1825     O
O       0.2319     0.98   0.4726     O
O       0.2322   0.1562   0.0924     O
Fe       0.233  0.02439  0.56047    Fe
Fe      0.2366  0.02523  0.69842    Fe
H       0.2396   0.6318   0.8058     H
O       0.2411   0.5056   0.3137     O
H       0.2412   0.9559   0.9661     H
O       0.2413   0.4984   0.1918     O
O       0.2432   0.9814   0.7632     O
O       0.2454   0.4127   0.2924     O
O       0.2467   0.6083    0.277     O
O       0.2533   0.6083    0.777     O
O       0.2546   0.4127   0.7924     O
O       0.2568   0.9814   0.2632     O
O       0.2587   0.4984   0.6918     O
H       0.2588   0.9559   0.4661     H
O       0.2589   0.5056   0.8137     O
H       0.2604   0.6318   0.3058     H
Fe      0.2634  0.02523  0.19842    Fe
Fe       0.267  0.02439  0.06047    Fe
O       0.2678   0.1562   0.5924     O
O       0.2681     0.98   0.9726     O
O       0.2701   0.4092   0.6825     O
O       0.2702   0.0654   0.1378     O
H       0.2716   0.9591   0.7564     H
C       0.2756   0.4586   0.8194     C
O       0.2801   0.1517   0.7013     O
C       0.2802   0.4525   0.6651     C
Fe      0.2893  0.14517   0.1577    Fe
O       0.2918   0.0856   0.7484     O
O       0.2943   0.0735   0.5359     O
Fe     0.29485   0.5319  0.26133    Fe
O       0.2986    0.967   0.5677     O
C       0.2987   0.1348    0.743     C
H       0.2999   0.4241   0.5792     H
C       0.3015   0.1248   0.5586     C
Fe     0.30301  0.39206   0.2277    Fe
O       0.3054   0.9702   0.6609     O
H       0.3129   0.4752   0.8997     H
O       0.3176   0.9625   0.1611     O
C       0.3178   0.4496   0.6129     C
C       0.3211   0.9546     0.61     C
H       0.3216   0.4877   0.6063     H
C       0.3237   0.4543   0.8606     C
O       0.3252    0.962   0.0705     O
H       0.3305   0.4142   0.8599     H
H       0.3346     0.24   0.7712     H
O       0.3357    0.065   0.2453     O
O       0.3396   0.0664   0.0323     O
C       0.3404   0.9453   0.1131     C
H       0.3408   0.2299   0.5905     H
O       0.3427   0.5721   0.3323     O
O       0.3433   0.5703   0.2095     O
C       0.3437   0.1616   0.7871     C
O       0.3471   0.4653   0.2446     O
H       0.3493   0.6691   0.4071     H
C       0.3496   0.1529   0.5331     C
H       0.3509   0.6629   0.1764     H
H       0.3552   0.2937   0.0613     H
O       0.3553   0.3617   0.1592     O
O       0.3557   0.3586    0.281     O
H       0.3562   0.4351   0.6194     H
C       0.3566   0.2186   0.7919     C
O       0.3571   0.1401   0.2221     O
O       0.3572   0.1448   0.0937     O
H       0.3592   0.4708   0.8491     H
H         0.36   0.2855    0.341     H
C       0.3633   0.2092   0.5591     C
C       0.3655   0.9076   0.5964     C
C       0.3659   0.1087   0.2549     C
H       0.3671   0.0913   0.8141     H
C       0.3693   0.1101   0.0479     C
H       0.3709   0.9111   0.5125     H
H       0.3731   0.0841   0.4694     H
H       0.3731   0.8904   0.6752     H
C        0.376   0.1303   0.8174     C
C        0.381   0.8981   0.1023     C
C       0.3825   0.1225   0.4871     C
H       0.3848   0.8992   0.1876     H
C       0.3853   0.8922   0.5399     C
C       0.3866   0.8799   0.6365     C
C        0.388    0.665   0.4192     C
H       0.3892   0.8824   0.0151     H
H       0.3894    0.244    0.971     H
C       0.3899   0.6583   0.1633     C
H       0.3922   0.7417   0.4779     H
C       0.3929   0.3012   0.0491     C
H       0.3936   0.1342   0.3388     H
H       0.3942   0.7319   0.1369     H
C       0.3944   0.5707   0.3457     C
C       0.3945   0.5669   0.1934     C
C       0.3986   0.8802   0.1505     C
C       0.3988   0.2918   0.3541     C
H       0.3995   0.2316   0.4003     H
C       0.4012   0.8702    0.048     C
C       0.4019   0.2442   0.8271     C
C       0.4041   0.3693    0.141     C
C       0.4056   0.3676   0.3002     C
C         0.41   0.2351   0.5391     C
H       0.4108   0.2832   0.8304     H
C       0.4114   0.1284   0.3007     C
C       0.4132   0.2716   0.9954     C
C       0.4134   0.7081   0.4612     C
H       0.4148   0.1673    0.009     H
C       0.4156   0.6992   0.1399     C
C        0.419   0.6159   0.3948     C
H       0.4194   0.2736   0.5569     H
C       0.4212   0.6105   0.1677     C
C       0.4213    0.156   0.8526     C
C       0.4223   0.2598   0.3893     C
Fe     0.42317  0.46858  0.24669    Fe
C       0.4236   0.1306   0.0174     C
O       0.4248    0.529   0.3232     O
O        0.426   0.5289   0.2032     O
C       0.4261   0.8491   0.5235     C
C       0.4274   0.8368   0.6202     C
C       0.4277   0.3417   0.0849     C
H       0.4283   0.1643   0.2966     H
C       0.4291   0.1485   0.4672     C
H       0.4321   0.1023   0.9814     H
C       0.4321   0.3331    0.338     C
O       0.4328    0.408   0.1724     O
C       0.4342   0.2129   0.8574     C
O       0.4358   0.4077   0.2935     O
C       0.4362   0.8343   0.1443     C
C       0.4388   0.8243   0.0419     C
H       0.4396   0.8386   0.4849     H
H       0.4418   0.8179   0.6476     H
H       0.4419   0.0995   0.2964     H
C       0.4429   0.2048   0.4932     C
H       0.4433   0.1346   0.8733     H
C       0.4472   0.8214   0.5637     C
H       0.4482    0.822   0.1772     H
H       0.4487   0.6833   0.5945     H
H       0.4516   0.1277   0.4358     H
H       0.4526   0.8052   0.0048     H
C       0.4563   0.8064   0.0901     C
H       0.4571   0.3599    0.888     H
H       0.4573   0.1348    0.043     H
H       0.4591   0.6695   0.9988     H
H       0.4604   0.3512   0.5336     H
C       0.4684   0.2826   0.9776     C
C       0.4699   0.7021   0.4788     C
H       0.4723   0.5541   0.7797     H
C       0.4726   0.6925   0.1207     C
C       0.4755   0.6098   0.4124     C
C       0.4782   0.6037   0.1486     C
C       0.4791    0.269   0.4085     C
C       0.4829   0.3526    0.067     C
O       0.4853   0.5308   0.7505     O
C       0.4875   0.6897   0.6076     C
H       0.4882   0.6295   0.6538     H
C        0.489   0.3423   0.3572     C
Si      0.4926   0.2504   0.9054    Si
H       0.4933   0.6197   0.9085     H
C       0.4961   0.3553   0.8749     C
H       0.4968   0.5763   0.3957     H
C       0.4968   0.6769   0.9866     C
C        0.499    0.347   0.5456     C
Si       0.499    0.761   0.5329    Si
H       0.4996   0.5711   0.1515     H
H       0.5004   0.4289   0.8485     H
Si       0.501    0.239   0.4671    Si
C        0.501    0.653   0.4544     C
C       0.5032   0.3231   0.0134     C
H       0.5032   0.4237   0.6043     H
C       0.5039   0.6447   0.1251     C
H       0.5067   0.3803   0.0915     H
Si      0.5074   0.7496   0.0946    Si
C        0.511   0.6577   0.6428     C
H       0.5118   0.3705   0.3462     H
C       0.5125   0.3103   0.3924     C
O       0.5147   0.4692   0.2495     O
C       0.5171   0.6474    0.933     C
C       0.5209    0.731   0.5915     C
C       0.5218   0.3963   0.8514     C
C       0.5245   0.3902   0.5876     C
C       0.5274   0.3075   0.8793     C
H       0.5277   0.4459   0.2203     H
C       0.5301   0.2979   0.5212     C
C       0.5316   0.7174   0.0224     C
H       0.5396   0.6488   0.4664     H
H       0.5409   0.3305   0.0012     H
H       0.5427   0.8652    0.957     H
H       0.5429   0.6401    0.112     H
C       0.5437   0.1936   0.9099     C
H       0.5474   0.1948   0.9952     H
H       0.5484   0.8723   0.5642     H
H       0.5513   0.3167   0.4055     H
H       0.5518    0.178   0.8228     H
C       0.5528   0.1786   0.4363     C
H       0.5567   0.8654   0.1267     H
C       0.5571   0.7952   0.5068     C
H       0.5581   0.9005   0.7036     H
H       0.5582   0.1821   0.3524     H
H       0.5604   0.1614   0.5151     H
C       0.5612   0.1757   0.9581     C
C       0.5638   0.1657   0.8557     C
O       0.5642   0.5923   0.7065     O
C       0.5658   0.7871   0.1426     C
O       0.5672    0.592   0.8276     O
C       0.5679   0.6669    0.662     C
H       0.5679   0.8977   0.0186     H
C       0.5709   0.8515   0.5328     C
H       0.5717   0.8357   0.7034     H
C       0.5723   0.6583   0.9151     C
C       0.5726   0.1632   0.3798     C
C       0.5739   0.1509   0.4765     C
O        0.574   0.4711   0.7968     O
O       0.5752    0.471   0.6768     O
C       0.5764   0.8694   0.9826     C
Fe     0.57683  0.53142  0.75331    Fe
C       0.5777   0.7402   0.6107     C
C       0.5787    0.844   0.1474     C
C       0.5788   0.3895   0.8323     C
H       0.5806   0.7264   0.4431     H
C        0.581   0.3841   0.6052     C
C       0.5844   0.3008   0.8601     C
H       0.5852   0.8327    0.991     H
C       0.5866   0.2919   0.5388     C
C       0.5868   0.7284   0.0046     C
C       0.5886   0.8716   0.6993     C
H       0.5892   0.7168   0.1696     H
C         0.59   0.7649   0.4609     C
C       0.5944   0.6324   0.6998     C
C       0.5959   0.6307    0.859     C
C       0.5981   0.7558   0.1729     C
C       0.5988   0.1298    0.952     C
H       0.6005   0.7684   0.5997     H
C       0.6012   0.7082   0.6459     C
C       0.6014   0.1198   0.8495     C
C       0.6055   0.4331   0.8066     C
C       0.6056   0.4293   0.6543     C
H       0.6058   0.2681   0.8631     H
H       0.6064   0.8658   0.6612     H
C       0.6071   0.6988   0.9509     C
H       0.6078   0.2583   0.5221     H
C       0.6101   0.3417   0.8367     C
H       0.6106    0.756    0.029     H
H       0.6108   0.1176   0.9849     H
C        0.612    0.335   0.5808     C
C       0.6134   0.1201   0.3635     C
C       0.6147   0.1078   0.4601     C
H       0.6152   0.1008   0.8124     H
C       0.6175   0.8775   0.5129     C
C        0.619   0.1019   0.8977     C
C        0.624   0.8697   0.1826     C
H       0.6269   0.1096   0.3248     H
H       0.6269   0.9159   0.5306     H
H       0.6291   0.0889   0.4875     H
C       0.6307   0.8899   0.9521     C
H       0.6329   0.9087   0.1859     H
C       0.6341   0.8913   0.7451     C
C       0.6345   0.0924   0.4036     C
C       0.6367   0.7908   0.4409     C
H         0.64   0.7145    0.659     H
H       0.6408   0.5292   0.1509     H
O       0.6428   0.8552   0.9063     O
O       0.6429   0.8599   0.7779     O
C       0.6434   0.7814   0.2081     C
H       0.6438   0.5649   0.3806     H
O       0.6443   0.6414    0.719     O
O       0.6447   0.6383   0.8408     O
H       0.6448   0.7063   0.9387     H
H       0.6491   0.3371   0.8236     H
C       0.6504   0.8471   0.4669     C
H       0.6507   0.3309   0.5929     H
O       0.6529   0.5347   0.7554     O
C       0.6563   0.8384   0.2129     C
O       0.6567   0.4297   0.7905     O
O       0.6573   0.4279   0.6677     O
H       0.6592   0.7701   0.4095     H
C       0.6596   0.0547   0.8869     C
O       0.6604   0.9336   0.9677     O
O       0.6643    0.935   0.7547     O
H       0.6654     0.76   0.2288     H
H       0.6695   0.5858   0.1401     H
O       0.6748    0.038   0.9295     O
C       0.6763   0.5457   0.1394     C
H       0.6784   0.5123   0.3937     H
C       0.6789   0.0454     0.39     C
C       0.6822   0.5504   0.3871     C
O       0.6824   0.0375   0.8389     O
H       0.6871   0.5248   0.1003     H
O       0.6946   0.0298   0.3391     O
Fe     0.69699  0.60794   0.7723    Fe
C       0.6985   0.8752   0.4414     C
H       0.7001   0.5759   0.4208     H
C       0.7013   0.8652    0.257     C
O       0.7014    0.033   0.4323     O
Fe     0.70515   0.4681  0.73867    Fe
O       0.7057   0.9265   0.4641     O
O       0.7082   0.9144   0.2516     O
Fe      0.7107  0.85483   0.8423    Fe
C       0.7198   0.5475   0.3349     C
O       0.7199   0.8483   0.2987     O
C       0.7244   0.5414   0.1806     C
H       0.7284   0.0409   0.2436     H
O       0.7298   0.9346   0.8622     O
O       0.7299   0.5908   0.3175     O
O       0.7319     0.02   0.0274     O
O       0.7322   0.8438   0.4076     O
Fe       0.733  0.97561  0.93953    Fe
Fe      0.7366  0.97477  0.80158    Fe
H       0.7396   0.3682   0.6942     H
O       0.7411   0.4944   0.1863     O
H       0.7412   0.0441   0.5339     H
O       0.7413   0.5016   0.3082     O
O       0.7432   0.0186   0.7368     O
O       0.7454   0.5873   0.2076     O
O       0.7467   0.3917    0.223     O
O       0.7533   0.3917    0.723     O
O       0.7546   0.5873   0.7076     O
O       0.7568   0.0186   0.2368     O
O       0.7587   0.5016   0.8082     O
H       0.7588   0.0441   0.0339     H
O       0.7589   0.4944   0.6863     O
H       0.7604   0.3682   0.1942     H
Fe      0.7634  0.97477  0.30158    Fe
Fe       0.767  0.97561  0.43953    Fe
O       0.7678   0.8438   0.9076     O
O       0.7681     0.02   0.5274     O
O       0.7701   0.5908   0.8175     O
O       0.7702   0.9346   0.3622     O
H       0.7716   0.0409   0.7436     H
C       0.7756   0.5414   0.6806     C
O       0.7801   0.8483   0.7987     O
C       0.7802   0.5475   0.8349     C
Fe      0.7893  0.85483   0.3423    Fe
O       0.7918   0.9144   0.7516     O
O       0.7943   0.9265   0.9641     O
Fe     0.79485   0.4681  0.23867    Fe
O       0.7986    0.033   0.9323     O
C       0.7987   0.8652    0.757     C
H       0.7999   0.5759   0.9208     H
C       0.8015   0.8752   0.9414     C
Fe     0.80301  0.60794   0.2723    Fe
O       0.8054   0.0298   0.8391     O
H       0.8129   0.5248   0.6003     H
O       0.8176   0.0375   0.3389     O
C       0.8178   0.5504   0.8871     C
C       0.8211   0.0454     0.89     C
H       0.8216   0.5123   0.8937     H
C       0.8237   0.5457   0.6394     C
O       0.8252    0.038   0.4295     O
H       0.8305   0.5858   0.6401     H
H       0.8346     0.76   0.7288     H
O       0.8357    0.935   0.2547     O
O       0.8396   0.9336   0.4677     O
C       0.8404   0.0547   0.3869     C
H       0.8408   0.7701   0.9095     H
O       0.8427   0.4279   0.1677     O
O       0.8433   0.4297   0.2905     O
C       0.8437   0.8384   0.7129     C
O       0.8471   0.5347   0.2554     O
H       0.8493   0.3309   0.0929     H
C       0.8496   0.8471   0.9669     C
H       0.8509   0.3371   0.3236     H
H       0.8552   0.7063   0.4387     H
O       0.8553   0.6383   0.3408     O
O       0.8557   0.6414    0.219     O
H       0.8562   0.5649   0.8806     H
C       0.8566   0.7814   0.7081     C
O       0.8571   0.8599   0.2779     O
O       0.8572   0.8552   0.4063     O
H       0.8592   0.5292   0.6509     H
H         0.86   0.7145    0.159     H
C       0.8633   0.7908   0.9409     C
C       0.8655   0.0924   0.9036     C
C       0.8659   0.8913   0.2451     C
H       0.8671   0.9087   0.6859     H
C       0.8693   0.8899   0.4521     C
H       0.8709   0.0889   0.9875     H
H       0.8731   0.1096   0.8248     H
H       0.8731   0.9159   0.0306     H
C        0.876   0.8697   0.6826     C
C        0.881   0.1019   0.3977     C
C       0.8825   0.8775   0.0129     C
H       0.8848   0.1008   0.3124     H
C       0.8853   0.1078   0.9601     C
C       0.8866   0.1201   0.8635     C
C        0.888    0.335   0.0808     C
H       0.8892   0.1176   0.4849     H
H       0.8894    0.756    0.529     H
C       0.8899   0.3417   0.3367     C
H       0.8922   0.2583   0.0221     H
C       0.8929   0.6988   0.4509     C
H       0.8936   0.8658   0.1612     H
H       0.8942   0.2681   0.3631     H
C       0.8944   0.4293   0.1543     C
C       0.8945   0.4331   0.3066     C
C       0.8986   0.1198   0.3495     C
C       0.8988   0.7082   0.1459     C
H       0.8995   0.7684   0.0997     H
C       0.9012   0.1298    0.452     C
C       0.9019   0.7558   0.6729     C
C       0.9041   0.6307    0.359     C
C       0.9056   0.6324   0.1998     C
C         0.91   0.7649   0.9609     C
H       0.9108   0.7168   0.6696     H
C       0.9114   0.8716   0.1993     C
C       0.9132   0.7284   0.5046     C
C       0.9134   0.2919   0.0388     C
H       0.9148   0.8327    0.491     H
C       0.9156   0.3008   0.3601     C
C        0.919   0.3841   0.1052     C
H       0.9194   0.7264   0.9431     H
C       0.9212   0.3895   0.3323     C
C       0.9213    0.844   0.6474     C
C       0.9223   0.7402   0.1107     C
Fe     0.92317  0.53142  0.25331    Fe
C       0.9236   0.8694   0.4826     C
O       0.9248    0.471   0.1768     O
O        0.926   0.4711   0.2968     O
C       0.9261   0.1509   0.9765     C
C       0.9274   0.1632   0.8798     C
C       0.9277   0.6583   0.4151     C
H       0.9283   0.8357   0.2034     H
C       0.9291   0.8515   0.0328     C
C       0.9321   0.6669    0.162     C
H       0.9321   0.8977   0.5186     H
O       0.9328    0.592   0.3276     O
C       0.9342   0.7871   0.6426     C
O       0.9358   0.5923   0.2065     O
C       0.9362   0.1657   0.3557     C
C       0.9388   0.1757   0.4581     C
H       0.9396   0.1614   0.0151     H
H       0.9418   0.1821   0.8524     H
H       0.9419   0.9005   0.2036     H
C       0.9429   0.7952   0.0068     C
H       0.9433   0.8654   0.6267     H
C       0.9472   0.1786   0.9363     C
H       0.9482    0.178   0.3228     H
H       0.9487   0.3167   0.9055     H
H       0.9516   0.8723   0.0642     H
H       0.9526   0.1948   0.4952     H
C       0.9563   0.1936   0.4099     C
H       0.9571   0.6401    0.612     H
H       0.9573   0.8652    0.457     H
H       0.9591   0.3305   0.5012     H
H       0.9604   0.6488   0.9664     H
C       0.9684   0.7174   0.5224     C
C       0.9699   0.2979   0.0212     C
H       0.9723   0.4459   0.7203     H
C       0.9726   0.3075   0.3793     C
C       0.9755   0.3902   0.0876     C
C       0.9782   0.3963   0.3514     C
C       0.9791    0.731   0.0915     C
C       0.9829   0.6474    0.433     C
O       0.9853   0.4692   0.7495     O
C       0.9875   0.3103   0.8924     C
H       0.9882   0.3705   0.8462     H
C        0.989   0.6577   0.1428     C
Si      0.9926   0.7496   0.5946    Si
H       0.9933   0.3803   0.5915     H
C       0.9961   0.6447   0.6251     C
C       0.9968   0.3231   0.5134     C
H       0.9968   0.4237   0.1043     H
Si       0.999    0.239   0.9671    Si
C        0.999    0.653   0.9544     C
H       0.9996   0.4289   0.3485     H
