data_I
_chemical_name_common  '/home/zhangsd/repos/MofS-CGCNN/ML/data/SSD/clean_cifs/TOVJEV_clean'
_cell_length_a 27.00500
_cell_length_b 18.56400
_cell_length_c 36.38900
_cell_angle_alpha 90.00000
_cell_angle_beta  98.84800
_cell_angle_gamma 90.00000
_space_group_name_H-M_alt      'P 1'


loop_
_space_group_symop_operation_xyz
  'x, y, z' 

loop_
_atom_site_label
_atom_site_fract_x
_atom_site_fract_y
_atom_site_fract_z
_atom_site_type_symbol
C      0.00118     0.04  0.11994     C
C      0.00118     0.46  0.61994     C
C      0.00436   0.0278  0.86547     C
C      0.00436   0.4722  0.36547     C
H       0.0234   0.0257   0.9362     H
H       0.0234   0.4743   0.4362     H
H       0.0254   0.5598   0.3972     H
H       0.0254   0.9402   0.8972     H
H       0.0333   0.6027   0.6689     H
H       0.0333   0.8973   0.1689     H
C      0.03575    0.556  0.65867     C
C      0.03575    0.944  0.15867     C
C      0.04479   0.0798  0.12974     C
C      0.04479   0.4202  0.62974     C
H       0.0472    0.127   0.1201     H
H       0.0472    0.373   0.6201     H
N      0.05146   0.0503  0.94134     N
N      0.05146   0.4497  0.44134     N
C      0.05231  0.06966  0.87488     C
C      0.05231  0.43034  0.37488     C
H        0.058    0.095   0.8221     H
H        0.058    0.405   0.3221     H
H       0.0653   0.0566   0.9646     H
H       0.0653   0.4434   0.4646     H
C      0.07411  0.10102  0.84702     C
C      0.07411  0.39898  0.34702     C
C      0.07507   0.0805  0.91129     C
C      0.07507   0.4195  0.41129     C
C      0.07965    0.516  0.66789     C
C      0.07965    0.984  0.16789     C
C      0.08397   0.0511  0.15306     C
C      0.08397   0.4489  0.65306     C
H       0.0857   0.1863   0.9754     H
H       0.0857   0.3137   0.4754     H
H       0.1068   0.5355   0.6846     H
H       0.1068   0.9645   0.1846     H
C      0.11809   0.1409  0.85297     C
C      0.11809   0.3591  0.35297     C
C      0.11865    0.169  0.98364     C
C      0.11865    0.331  0.48364     C
C      0.11871  0.12102   0.9198     C
C      0.11871  0.37898   0.4198     C
H        0.121   0.2062   0.0362     H
H        0.121   0.2938   0.5362     H
H       0.1233   0.0932   0.7856     H
H       0.1233   0.4068   0.2856     H
C      0.13143   0.0923  0.16265     C
C      0.13143   0.4077  0.66265     C
O      0.13409  0.15207  0.14703     O
O      0.13409  0.34793  0.64703     O
C      0.13711   0.1403  0.78859     C
C      0.13711   0.3597  0.28859     C
C      0.13927   0.1748  0.82258     C
C      0.13927   0.3252  0.32258     C
C      0.13946  0.18135  0.01995     C
C      0.13946  0.31865  0.51995     C
C      0.13996  0.14996  0.89041     C
C      0.13996  0.35004  0.39041     C
C      0.14253  0.13345    0.959     C
C      0.14253  0.36655    0.459     C
H       0.1511   0.1489   0.7355     H
H       0.1511   0.3511   0.2355     H
C      0.15467    0.173  0.75879     C
C      0.15467    0.327  0.25879     C
C      0.16166   0.2394  0.82555     C
C      0.16166   0.2606  0.32555     C
H       0.1646   0.2361   0.3487     H
H       0.1646   0.2639   0.8487     H
O      0.16591   0.0636   0.1847     O
O      0.16591   0.4364   0.6847     O
H       0.1702   0.1767   0.8958     H
H       0.1702   0.3233   0.3958     H
C      0.17668   0.2381  0.76233     C
C      0.17668   0.2619  0.26233     C
C      0.18079   0.2279  0.29638     C
C      0.18079   0.2721  0.79638     C
O      0.18358  0.24512  0.69925     O
O      0.18358  0.25488  0.19925     O
O      0.18605  0.20634  0.09176     O
O      0.18605  0.29366  0.59176     O
C      0.18719  0.15753  0.03249     C
C      0.18719  0.34247  0.53249     C
C      0.18981  0.10868  0.97194     C
C      0.18981  0.39132  0.47194     C
Fe     0.19052   0.2239  0.14685    Fe
Fe     0.19052   0.2761  0.64685    Fe
C      0.19413   0.2237  0.23042     C
C      0.19413   0.2763  0.73042     C
H       0.1967   0.1822   0.2999     H
H       0.1967   0.3178   0.7999     H
H       0.2078   0.0831   0.9556     H
H       0.2078   0.4169   0.4556     H
C      0.20993  0.17024  0.07124     C
C      0.20993  0.32976  0.57124     C
C      0.21189  0.12048  0.00862     C
C      0.21189  0.37952  0.50862     C
O      0.21802  0.16665  0.23601     O
O      0.21802  0.33335  0.73601     O
O      0.23657  0.19258  0.64484     O
O      0.23657  0.30742  0.14484     O
Fe     0.23886  0.09177   0.2015    Fe
Fe     0.23886  0.40823   0.7015    Fe
O      0.24164  0.15525  0.16039     O
O      0.24164  0.34475  0.66039     O
H       0.2446   0.1024   0.0171     H
H       0.2446   0.3976   0.5171     H
H       0.2486   0.0609   0.6543     H
H       0.2486   0.4391   0.1543     H
O      0.25264  0.14298   0.0824     O
O      0.25264  0.35702   0.5824     O
O      0.25893  0.00245  0.17532     O
O      0.25893  0.49755  0.67532     O
H       0.2684   0.6263    0.686     H
H       0.2684   0.8737    0.186     H
C      0.28053   0.1904  0.63846     C
C      0.28053   0.3096  0.13846     C
C       0.2831   0.0582  0.65188     C
C       0.2831   0.4418  0.15188     C
C      0.28943  0.50806  0.65374     C
C      0.28943  0.99194  0.15374     C
H       0.2906   0.5487   0.1636     H
H       0.2906   0.9513   0.6636     H
C      0.29565  0.63443   0.6729     C
C      0.29565  0.86557   0.1729     C
Fe     0.29651  0.14902  0.13329    Fe
Fe     0.29651  0.35098  0.63329    Fe
O      0.30339   0.0389  0.13283     O
O      0.30339   0.4611  0.63283     O
O      0.30503  0.24288  0.62894     O
O      0.30503  0.25712  0.12894     O
H       0.3067    0.739   0.6897     H
H       0.3067    0.761   0.1897     H
C      0.30816   0.1197  0.64272     C
C      0.30816   0.3803  0.14272     C
C      0.30838   0.5073  0.15755     C
C      0.30838   0.9927  0.65755     C
C      0.31062  0.58108  0.65257     C
C      0.31062  0.91892  0.15257     C
O      0.31175  0.10645  0.22492     O
O      0.31175  0.39355  0.72492     O
C      0.31912  0.70214  0.67541     C
C      0.31912  0.79786  0.17541     C
H       0.3281   0.6508   0.1425     H
H       0.3281   0.8492   0.6425     H
C      0.34819  0.12996  0.21219     C
C      0.34819  0.37004  0.71219     C
C      0.34832  0.59773   0.6335     C
C      0.34832  0.90227   0.1335     C
O      0.34884  0.15148  0.17945     O
O      0.34884  0.34852  0.67945     O
C      0.35722  0.11231  0.63848     C
C      0.35722  0.38769  0.13848     C
C      0.35837   0.5138  0.15462     C
C      0.35837   0.9862  0.65462     C
H       0.3588   0.5627   0.6173     H
H       0.3588   0.9373   0.1173     H
C      0.35888  0.71633  0.65808     C
C      0.35888  0.78367  0.15808     C
C      0.36155  0.64953  0.15525     C
C      0.36155  0.85047  0.65525     C
C      0.37217   0.6636  0.63669     C
C      0.37217   0.8364  0.13669     C
H       0.3747   0.1528   0.6309     H
H       0.3747   0.3472   0.1309     H
H       0.3763   0.0812   0.2806     H
H       0.3763   0.4188   0.7806     H
C      0.38224   0.0476   0.6449     C
C      0.38224   0.4524   0.1449     C
C      0.38449  0.58256   0.1635     C
C      0.38449  0.91744   0.6635     C
C      0.38545  0.71278  0.16491     C
C      0.38545  0.78722  0.66491     C
C      0.39689  0.13548  0.23797     C
C      0.39689  0.36452  0.73797     C
H       0.3991   0.6717   0.6232     H
H       0.3991   0.8283   0.1232     H
C      0.40347  0.10541  0.27215     C
C      0.40347  0.39459  0.77215     C
H       0.4168   0.0452   0.6426     H
H       0.4168   0.4548   0.1426     H
H       0.4328   0.1935   0.2026     H
H       0.4328   0.3065   0.7026     H
C      0.43399  0.58175  0.18254     C
C      0.43399  0.91825  0.68254     C
C      0.43442  0.71156  0.18304     C
C      0.43442  0.78844  0.68304     C
C      0.43665   0.1719  0.22655     C
C      0.43665   0.3281  0.72655     C
H       0.4461   0.6814   0.6858     H
H       0.4461   0.8186   0.1858     H
C         0.45   0.1095  0.29538     C
C         0.45   0.3905  0.79538     C
H       0.4504   0.5371   0.1886     H
H       0.4504   0.9629   0.6886     H
H       0.4538   0.0877   0.3193     H
H       0.4538   0.4123   0.8193     H
C      0.45869  0.64574  0.19236     C
C      0.45869  0.85426  0.69236     C
N      0.46087    0.723  0.69185     N
N      0.46087    0.777  0.19185     N
C      0.48259   0.1767  0.25029     C
C      0.48259   0.3233  0.75029     C
C      0.48978  0.14385  0.28454     C
C      0.48978  0.35615  0.78454     C
H       0.4907   0.7032   0.2574     H
H       0.4907   0.7968   0.7574     H
H        0.492   0.7239   0.7034     H
H        0.492   0.7761   0.2034     H
H        0.508   0.2239   0.7966     H
H        0.508   0.2761   0.2966     H
H       0.5093   0.2032   0.2426     H
H       0.5093   0.2968   0.7426     H
C      0.51022  0.64385  0.21546     C
C      0.51022  0.85615  0.71546     C
C      0.51741   0.6767  0.24971     C
C      0.51741   0.8233  0.74971     C
N      0.53913    0.223  0.80815     N
N      0.53913    0.277  0.30815     N
C      0.54131  0.14574  0.30764     C
C      0.54131  0.35426  0.80764     C
H       0.5462   0.5877   0.1807     H
H       0.5462   0.9123   0.6807     H
H       0.5496   0.0371   0.3114     H
H       0.5496   0.4629   0.8114     H
C         0.55   0.6095  0.20462     C
C         0.55   0.8905  0.70462     C
H       0.5539   0.1814   0.8142     H
H       0.5539   0.3186   0.3142     H
C      0.56335   0.6719  0.27345     C
C      0.56335   0.8281  0.77345     C
C      0.56558  0.21156  0.31696     C
C      0.56558  0.28844  0.81696     C
C      0.56601  0.08175  0.31746     C
C      0.56601  0.41825  0.81746     C
H       0.5672   0.6935   0.2974     H
H       0.5672   0.8065   0.7974     H
H       0.5832   0.5452   0.8574     H
H       0.5832   0.9548   0.3574     H
C      0.59653  0.60541  0.22785     C
C      0.59653  0.89459  0.72785     C
H       0.6009   0.1717   0.8768     H
H       0.6009   0.3283   0.3768     H
C      0.60311  0.63548  0.26203     C
C      0.60311  0.86452  0.76203     C
C      0.61455  0.21278  0.33509     C
C      0.61455  0.28722  0.83509     C
C      0.61551  0.08256   0.3365     C
C      0.61551  0.41744   0.8365     C
C      0.61776   0.5476   0.8551     C
C      0.61776   0.9524   0.3551     C
H       0.6237   0.5812   0.2194     H
H       0.6237   0.9188   0.7194     H
H       0.6253   0.6528   0.8691     H
H       0.6253   0.8472   0.3691     H
C      0.62783   0.1636  0.86331     C
C      0.62783   0.3364  0.36331     C
C      0.63845  0.14953  0.34475     C
C      0.63845  0.35047  0.84475     C
C      0.64112  0.21633  0.84192     C
C      0.64112  0.28367  0.34192     C
H       0.6412   0.0627   0.8827     H
H       0.6412   0.4373   0.3827     H
C      0.64163   0.0138  0.34538     C
C      0.64163   0.4862  0.84538     C
C      0.64278  0.61231  0.86152     C
C      0.64278  0.88769  0.36152     C
O      0.65116  0.65148  0.32055     O
O      0.65116  0.84852  0.82055     O
C      0.65168  0.09773   0.8665     C
C      0.65168  0.40227   0.3665     C
C      0.65181  0.62996  0.28781     C
C      0.65181  0.87004  0.78781     C
H       0.6719   0.1508   0.3575     H
H       0.6719   0.3492   0.8575     H
C      0.68088  0.20214  0.82459     C
C      0.68088  0.29786  0.32459     C
O      0.68825  0.60645  0.27508     O
O      0.68825  0.89355  0.77508     O
C      0.68938  0.08108  0.84743     C
C      0.68938  0.41892  0.34743     C
C      0.69162   0.0073  0.34245     C
C      0.69162   0.4927  0.84245     C
C      0.69184   0.6197  0.85728     C
C      0.69184   0.8803  0.35728     C
H       0.6933    0.239   0.8103     H
H       0.6933    0.261   0.3103     H
O      0.69497  0.74288  0.87106     O
O      0.69497  0.75712  0.37106     O
O      0.69661   0.5389  0.36717     O
O      0.69661   0.9611  0.86717     O
Fe     0.70349  0.64902  0.36671    Fe
Fe     0.70349  0.85098  0.86671    Fe
C      0.70435  0.13443   0.8271     C
C      0.70435  0.36557   0.3271     C
H       0.7094   0.0487   0.3364     H
H       0.7094   0.4513   0.8364     H
C      0.71057  0.00806  0.84626     C
C      0.71057  0.49194  0.34626     C
C       0.7169   0.5582  0.84812     C
C       0.7169   0.9418  0.34812     C
C      0.71947   0.6904  0.86154     C
C      0.71947   0.8096  0.36154     C
H       0.7316   0.1263    0.814     H
H       0.7316   0.3737    0.314     H
O      0.74107  0.50245  0.32468     O
O      0.74107  0.99755  0.82468     O
O      0.74736  0.64298   0.4176     O
O      0.74736  0.85702   0.9176     O
H       0.7514   0.5609   0.8457     H
H       0.7514   0.9391   0.3457     H
H       0.7554   0.6024   0.4829     H
H       0.7554   0.8976   0.9829     H
O      0.75836  0.65525  0.33961     O
O      0.75836  0.84475  0.83961     O
Fe     0.76114  0.59177   0.2985    Fe
Fe     0.76114  0.90823   0.7985    Fe
O      0.76343  0.69258  0.85516     O
O      0.76343  0.80742  0.35516     O
O      0.78198  0.66665  0.26399     O
O      0.78198  0.83335  0.76399     O
C      0.78811  0.62048  0.49138     C
C      0.78811  0.87952  0.99138     C
C      0.79007  0.67024  0.42876     C
C      0.79007  0.82976  0.92876     C
H       0.7922   0.5831   0.5444     H
H       0.7922   0.9169   0.0444     H
H       0.8033   0.6822   0.2001     H
H       0.8033   0.8178   0.7001     H
C      0.80587   0.7237  0.26958     C
C      0.80587   0.7763  0.76958     C
Fe     0.80948   0.7239  0.35315    Fe
Fe     0.80948   0.7761  0.85315    Fe
C      0.81019  0.60868  0.52806     C
C      0.81019  0.89132  0.02806     C
C      0.81281  0.65753  0.46751     C
C      0.81281  0.84247  0.96751     C
O      0.81395  0.70634  0.40824     O
O      0.81395  0.79366  0.90824     O
O      0.81642  0.74512  0.80075     O
O      0.81642  0.75488  0.30075     O
C      0.81921   0.7279  0.20362     C
C      0.81921   0.7721  0.70362     C
C      0.82332   0.7381  0.73767     C
C      0.82332   0.7619  0.23767     C
H       0.8298   0.6767   0.6042     H
H       0.8298   0.8233   0.1042     H
O      0.83409   0.5636   0.3153     O
O      0.83409   0.9364   0.8153     O
H       0.8354   0.7361   0.1513     H
H       0.8354   0.7639   0.6513     H
C      0.83834   0.7394  0.67445     C
C      0.83834   0.7606  0.17445     C
C      0.84533    0.673  0.74121     C
C      0.84533    0.827  0.24121     C
H       0.8489   0.6489   0.7645     H
H       0.8489   0.8511   0.2645     H
C      0.85747  0.63345    0.541     C
C      0.85747  0.86655    0.041     C
C      0.86004  0.64996  0.60959     C
C      0.86004  0.85004  0.10959     C
C      0.86054  0.68135  0.48005     C
C      0.86054  0.81865  0.98005     C
C      0.86073   0.6748  0.67742     C
C      0.86073   0.8252  0.17742     C
C      0.86289   0.6403  0.71141     C
C      0.86289   0.8597  0.21141     C
O      0.86591  0.65207  0.35297     O
O      0.86591  0.84793  0.85297     O
C      0.86857   0.5923  0.33735     C
C      0.86857   0.9077  0.83735     C
H       0.8767   0.5932   0.7144     H
H       0.8767   0.9068   0.2144     H
H        0.879   0.7062   0.4638     H
H        0.879   0.7938   0.9638     H
C      0.88129  0.62102   0.5802     C
C      0.88129  0.87898   0.0802     C
C      0.88135    0.669  0.51636     C
C      0.88135    0.831  0.01636     C
C      0.88191   0.6409  0.64703     C
C      0.88191   0.8591  0.14703     C
H       0.8932   0.0355   0.8154     H
H       0.8932   0.4645   0.3154     H
H       0.9143   0.6863   0.5246     H
H       0.9143   0.8137   0.0246     H
C      0.91603   0.5511  0.34694     C
C      0.91603   0.9489  0.84694     C
C      0.92035    0.016  0.83211     C
C      0.92035    0.484  0.33211     C
C      0.92493   0.5805  0.58871     C
C      0.92493   0.9195  0.08871     C
C      0.92589  0.60102  0.65298     C
C      0.92589  0.89898  0.15298     C
H       0.9347   0.5566   0.5354     H
H       0.9347   0.9434   0.0354     H
H        0.942    0.595   0.6779     H
H        0.942    0.905   0.1779     H
C      0.94769  0.56966  0.62512     C
C      0.94769  0.93034  0.12512     C
N      0.94854   0.5503  0.55866     N
N      0.94854   0.9497  0.05866     N
H       0.9528    0.627   0.3799     H
H       0.9528    0.873   0.8799     H
C      0.95521   0.5798  0.37026     C
C      0.95521   0.9202  0.87026     C
C      0.96425    0.056  0.84133     C
C      0.96425    0.444  0.34133     C
H       0.9667   0.1027   0.8311     H
H       0.9667   0.3973   0.3311     H
H       0.9746   0.0598   0.1028     H
H       0.9746   0.4402   0.6028     H
H       0.9766   0.5257   0.5638     H
H       0.9766   0.9743   0.0638     H
C      0.99564   0.5278  0.63453     C
C      0.99564   0.9722  0.13453     C
C      0.99882     0.54  0.38006     C
C      0.99882     0.96  0.88006     C
