data_I
_chemical_name_common  '/home/zhangsd/repos/MofS-CGCNN/ML/data/SSD/clean_cifs/TOVKIA_clean'
_cell_length_a 20.52270
_cell_length_b 20.52270
_cell_length_c 20.52270
_cell_angle_alpha 107.11900
_cell_angle_beta  107.11900
_cell_angle_gamma 107.11900
_space_group_name_H-M_alt      'P 1'


loop_
_space_group_symop_operation_xyz
  'x, y, z' 

loop_
_atom_site_label
_atom_site_fract_x
_atom_site_fract_y
_atom_site_fract_z
_atom_site_type_symbol
O       0.0167  0.52979  0.59751     O
O       0.0167  0.59751  0.52979     O
H       0.0309   0.0309   0.3491     H
H       0.0309   0.3491   0.0309     H
C       0.0332   0.5893   0.5893     C
H       0.0522   0.2119   0.8348     H
H       0.0522   0.8348   0.2119     H
C       0.0679   0.3062   0.9183     C
C       0.0679   0.9183   0.3062     C
O      0.06921  0.44094  0.50885     O
O      0.06921  0.50885  0.44094     O
C       0.0738   0.6605   0.6605     C
H       0.0809   0.6102   0.7328     H
H       0.0809   0.7328   0.6102     H
C      0.08553   0.2631  0.86577     C
C      0.08553  0.86577   0.2631     C
C       0.0941  0.65747  0.73023     C
C       0.0941  0.73023  0.65747     C
C       0.0951   0.4702   0.4702     C
H       0.1065   0.4113   0.9999     H
H       0.1065   0.9999   0.4113     H
C       0.1179   0.3813   0.9636     C
C       0.1179   0.9636   0.3813     C
C       0.1332  0.72251  0.79559     C
C       0.1332  0.79559  0.72251     C
H       0.1467   0.7199   0.8429     H
H       0.1467   0.8429   0.7199     H
C       0.1518   0.2942   0.8581     C
C       0.1518   0.8581   0.2942     C
C        0.153  0.79205  0.79205     C
C      0.15651   0.4554   0.4554     C
H       0.1632   0.2643    0.822     H
H       0.1632    0.822   0.2643     H
H       0.1727      0.4   0.5222     H
H       0.1727   0.5222      0.4     H
C       0.1831   0.4126   0.9565     C
C       0.1831   0.9565   0.4126     C
C      0.18816  0.41503  0.48751     C
C      0.18816  0.48751  0.41503     C
C       0.1936  0.86355  0.86355     C
C      0.20045   0.3689  0.90335     C
C      0.20045  0.90335   0.3689     C
H       0.2029   0.8119   0.9344     H
H       0.2029   0.9344   0.8119     H
H       0.2119   0.0522   0.8348     H
H       0.2119   0.8348   0.0522     H
H       0.2162   0.4638   0.9874     H
H       0.2162   0.9874   0.4638     H
C       0.2227   0.8582    0.931     C
C       0.2227    0.931   0.8582     C
C      0.24253  0.39642  0.46915     C
C      0.24253  0.46915  0.39642     C
C       0.2631  0.08553  0.86577     C
C       0.2631  0.86577  0.08553     C
H       0.2639   0.3686   0.4909     H
H       0.2639   0.4909   0.3686     H
H       0.2643   0.1632    0.822     H
H       0.2643    0.822   0.1632     H
C      0.26544  0.41878  0.41878     C
C       0.2686   0.4001   0.8952     C
C       0.2686   0.8952   0.4001     C
O      0.27937  0.36105  0.84359     O
O      0.27937  0.84359  0.36105     O
C       0.2805   0.9202   0.9936     C
C       0.2805   0.9936   0.9202     C
C       0.2942   0.1518   0.8581     C
C       0.2942   0.8581   0.1518     C
C       0.3062   0.0679   0.9183     C
C       0.3062   0.9183   0.0679     C
C       0.3096  0.98825  0.98825     C
O      0.31406  0.46301  0.94223     O
O      0.31406  0.94223  0.46301     O
C      0.31893  0.39196  0.39196     C
H      0.32665  0.32665   0.4494     H
H      0.32665   0.4494  0.32665     H
C      0.34329  0.34329  0.41625     C
C      0.34329  0.41625  0.34329     C
H       0.3491   0.0309   0.0309     H
H       0.3512   0.4762   0.6762     H
H       0.3512   0.6762   0.4762     H
H       0.3581   0.5485   0.6072     H
H       0.3581   0.6072   0.5485     H
O      0.36105  0.27937  0.84359     O
O      0.36105  0.84359  0.27937     O
C       0.3636   0.5282   0.6997     C
C       0.3636   0.6997   0.5282     C
O      0.36779  0.45232  0.78969     O
O      0.36779  0.78969  0.45232     O
C       0.3683   0.5714   0.6587     C
C       0.3683   0.6587   0.5714     C
H       0.3686   0.2639   0.4909     H
H       0.3686   0.4909   0.2639     H
C       0.3689  0.20045  0.90335     C
C       0.3689  0.90335  0.20045     C
Fe     0.37121  0.37121  0.82457    Fe
Fe     0.37121  0.82457  0.37121    Fe
C        0.377    0.561   0.7747     C
C        0.377   0.7747    0.561     C
C       0.3813   0.1179   0.9636     C
C       0.3813   0.9636   0.1179     C
C       0.3845    0.518   0.8195     C
C       0.3845   0.8195    0.518     C
C       0.3878   0.6474   0.6931     C
C       0.3878   0.6931   0.6474     C
C      0.39196  0.31893  0.39196     C
C      0.39196  0.39196  0.31893     C
C        0.396   0.6374   0.8086     C
C        0.396   0.8086   0.6374     C
C      0.39642  0.24253  0.46915     C
C      0.39642  0.46915  0.24253     C
H          0.4   0.1727   0.5222     H
H          0.4   0.5222   0.1727     H
C       0.4001   0.2686   0.8952     C
C       0.4001   0.8952   0.2686     C
C       0.4015   0.6805   0.7687     C
C       0.4015   0.7687   0.6805     C
O      0.40398  0.55412   0.8908     O
O      0.40398   0.8908  0.55412     O
H       0.4054     0.66     0.86     H
H       0.4054     0.86     0.66     H
H       0.4113   0.1065   0.9999     H
H       0.4113   0.9999   0.1065     H
C       0.4126   0.1831   0.9565     C
C       0.4126   0.9565   0.1831     C
H       0.4145   0.7326   0.7924     H
H       0.4145   0.7924   0.7326     H
C      0.41503  0.18816  0.48751     C
C      0.41503  0.48751  0.18816     C
C      0.41625  0.34329  0.34329     C
C      0.41878  0.26544  0.41878     C
C      0.41878  0.41878  0.26544     C
Fe     0.42511  0.52411  0.97585    Fe
Fe     0.42511  0.97585  0.52411    Fe
O      0.43921  0.43921  0.92608     O
O      0.43921  0.92608  0.43921     O
O      0.44094  0.06921  0.50885     O
O      0.44094  0.50885  0.06921     O
H       0.4494  0.32665  0.32665     H
O      0.45232  0.36779  0.78969     O
O      0.45232  0.78969  0.36779     O
C       0.4554  0.15651   0.4554     C
C       0.4554   0.4554  0.15651     C
O      0.46301  0.31406  0.94223     O
O      0.46301  0.94223  0.31406     O
H       0.4638   0.2162   0.9874     H
H       0.4638   0.9874   0.2162     H
C      0.46915  0.24253  0.39642     C
C      0.46915  0.39642  0.24253     C
C       0.4702   0.0951   0.4702     C
C       0.4702   0.4702   0.0951     C
H       0.4762   0.3512   0.6762     H
H       0.4762   0.6762   0.3512     H
C      0.48751  0.18816  0.41503     C
C      0.48751  0.41503  0.18816     C
H       0.4909   0.2639   0.3686     H
H       0.4909   0.3686   0.2639     H
O      0.50885  0.06921  0.44094     O
O      0.50885  0.44094  0.06921     O
C        0.518   0.3845   0.8195     C
C        0.518   0.8195   0.3845     C
H       0.5222   0.1727      0.4     H
H       0.5222      0.4   0.1727     H
Fe     0.52411  0.42511  0.97585    Fe
Fe     0.52411  0.97585  0.42511    Fe
C       0.5282   0.3636   0.6997     C
C       0.5282   0.6997   0.3636     C
O      0.52979   0.0167  0.59751     O
O      0.52979  0.59751   0.0167     O
H       0.5485   0.3581   0.6072     H
H       0.5485   0.6072   0.3581     H
O      0.55412  0.40398   0.8908     O
O      0.55412   0.8908  0.40398     O
C        0.561    0.377   0.7747     C
C        0.561   0.7747    0.377     C
C       0.5714   0.3683   0.6587     C
C       0.5714   0.6587   0.3683     C
C       0.5893   0.0332   0.5893     C
C       0.5893   0.5893   0.0332     C
O      0.59751   0.0167  0.52979     O
O      0.59751  0.52979   0.0167     O
H       0.6072   0.3581   0.5485     H
H       0.6072   0.5485   0.3581     H
H       0.6102   0.0809   0.7328     H
H       0.6102   0.7328   0.0809     H
C       0.6374    0.396   0.8086     C
C       0.6374   0.8086    0.396     C
C       0.6474   0.3878   0.6931     C
C       0.6474   0.6931   0.3878     C
C      0.65747   0.0941  0.73023     C
C      0.65747  0.73023   0.0941     C
C       0.6587   0.3683   0.5714     C
C       0.6587   0.5714   0.3683     C
H         0.66   0.4054     0.86     H
H         0.66     0.86   0.4054     H
C       0.6605   0.0738   0.6605     C
C       0.6605   0.6605   0.0738     C
H       0.6762   0.3512   0.4762     H
H       0.6762   0.4762   0.3512     H
C       0.6805   0.4015   0.7687     C
C       0.6805   0.7687   0.4015     C
C       0.6931   0.3878   0.6474     C
C       0.6931   0.6474   0.3878     C
C       0.6997   0.3636   0.5282     C
C       0.6997   0.5282   0.3636     C
H       0.7199   0.1467   0.8429     H
H       0.7199   0.8429   0.1467     H
C      0.72251   0.1332  0.79559     C
C      0.72251  0.79559   0.1332     C
C      0.73023   0.0941  0.65747     C
C      0.73023  0.65747   0.0941     C
H       0.7326   0.4145   0.7924     H
H       0.7326   0.7924   0.4145     H
H       0.7328   0.0809   0.6102     H
H       0.7328   0.6102   0.0809     H
C       0.7687   0.4015   0.6805     C
C       0.7687   0.6805   0.4015     C
C       0.7747    0.377    0.561     C
C       0.7747    0.561    0.377     C
O      0.78969  0.36779  0.45232     O
O      0.78969  0.45232  0.36779     O
C      0.79205    0.153  0.79205     C
C      0.79205  0.79205    0.153     C
H       0.7924   0.4145   0.7326     H
H       0.7924   0.7326   0.4145     H
C      0.79559   0.1332  0.72251     C
C      0.79559  0.72251   0.1332     C
C       0.8086    0.396   0.6374     C
C       0.8086   0.6374    0.396     C
H       0.8119   0.2029   0.9344     H
H       0.8119   0.9344   0.2029     H
C       0.8195   0.3845    0.518     C
C       0.8195    0.518   0.3845     C
H        0.822   0.1632   0.2643     H
H        0.822   0.2643   0.1632     H
Fe     0.82457  0.37121  0.37121    Fe
H       0.8348   0.0522   0.2119     H
H       0.8348   0.2119   0.0522     H
H       0.8429   0.1467   0.7199     H
H       0.8429   0.7199   0.1467     H
O      0.84359  0.27937  0.36105     O
O      0.84359  0.36105  0.27937     O
C       0.8581   0.1518   0.2942     C
C       0.8581   0.2942   0.1518     C
C       0.8582   0.2227    0.931     C
C       0.8582    0.931   0.2227     C
H         0.86   0.4054     0.66     H
H         0.86     0.66   0.4054     H
C      0.86355   0.1936  0.86355     C
C      0.86355  0.86355   0.1936     C
C      0.86577  0.08553   0.2631     C
C      0.86577   0.2631  0.08553     C
O       0.8908  0.40398  0.55412     O
O       0.8908  0.55412  0.40398     O
C       0.8952   0.2686   0.4001     C
C       0.8952   0.4001   0.2686     C
C      0.90335  0.20045   0.3689     C
C      0.90335   0.3689  0.20045     C
C       0.9183   0.0679   0.3062     C
C       0.9183   0.3062   0.0679     C
C       0.9202   0.2805   0.9936     C
C       0.9202   0.9936   0.2805     C
O      0.92608  0.43921  0.43921     O
C        0.931   0.2227   0.8582     C
C        0.931   0.8582   0.2227     C
H       0.9344   0.2029   0.8119     H
H       0.9344   0.8119   0.2029     H
O      0.94223  0.31406  0.46301     O
O      0.94223  0.46301  0.31406     O
C       0.9565   0.1831   0.4126     C
C       0.9565   0.4126   0.1831     C
C       0.9636   0.1179   0.3813     C
C       0.9636   0.3813   0.1179     C
Fe     0.97585  0.42511  0.52411    Fe
Fe     0.97585  0.52411  0.42511    Fe
H       0.9874   0.2162   0.4638     H
H       0.9874   0.4638   0.2162     H
C      0.98825   0.3096  0.98825     C
C      0.98825  0.98825   0.3096     C
C       0.9936   0.2805   0.9202     C
C       0.9936   0.9202   0.2805     C
H       0.9999   0.1065   0.4113     H
H       0.9999   0.4113   0.1065     H
