data_I
_chemical_name_common  '/home/zhangsd/repos/MofS-CGCNN/ML/data/SSD/clean_cifs/TOVKOG_clean'
_cell_length_a 24.95270
_cell_length_b 24.95270
_cell_length_c 24.95270
_cell_angle_alpha 87.98660
_cell_angle_beta  87.98660
_cell_angle_gamma 87.98660
_space_group_name_H-M_alt      'P 1'


loop_
_space_group_symop_operation_xyz
  'x, y, z' 

loop_
_atom_site_label
_atom_site_fract_x
_atom_site_fract_y
_atom_site_fract_z
_atom_site_type_symbol
H       0.0038   0.2488   0.8797     H
C      0.00436  0.85146  0.21486     C
C      0.00896  0.22595  0.85014     C
C      0.01615  0.71329  0.64397     C
C      0.01904  0.64171  0.71116     C
C      0.02381  0.15929  0.76419     C
H       0.0291   0.1362   0.7348     H
H       0.0296    0.746   0.6291     H
C      0.03018  0.75128  0.17621     C
H       0.0345   0.6255   0.7423     H
H       0.0392   0.7167   0.1631     H
C      0.03969  0.68868  0.68857     C
C       0.0455  0.18291  0.85283     C
C      0.04763  0.84458  0.17958     C
C      0.05225  0.15054  0.80978     C
C       0.0603  0.79457  0.15986     C
H       0.0656    0.176   0.8841     H
H       0.0688   0.8742   0.1689     H
C      0.08665  0.71343  0.71304     C
N      0.08875  0.10761  0.81258     N
H       0.0941   0.6596   0.7758     H
H       0.0942   0.7738   0.6564     H
N       0.1028  0.77932  0.12433     N
N      0.10761  0.81258  0.08875     N
C      0.11121  0.75611  0.68591     C
C      0.11124  0.68814  0.75664     C
N      0.12433   0.1028  0.77932     N
H       0.1362   0.7348   0.0291     H
C      0.15054  0.80978  0.05225     C
C      0.15929  0.76419  0.02381     C
C      0.15986   0.0603  0.79457     C
C      0.16057  0.77289  0.70191     C
C      0.16072  0.70472  0.77242     C
H       0.1631   0.0392   0.7167     H
H       0.1689   0.0688   0.8742     H
H        0.176   0.8841   0.0656     H
C      0.17621  0.03018  0.75128     C
H       0.1787   0.8002   0.6817     H
H        0.179   0.6853   0.8002     H
C      0.17958  0.04763  0.84458     C
C      0.18291  0.85283   0.0455     C
C       0.1834   0.7497   0.7476     C
C      0.20224  0.76144  0.98724     C
H       0.2089   0.7301   0.9671     H
C      0.21168  0.98703  0.75818     C
C      0.21486  0.00436  0.85146     C
H       0.2227   0.9661   0.7284     H
C      0.22595  0.85014  0.00896     C
H       0.2279   0.9953    0.886     H
C      0.23111  0.97419  0.80823     C
C       0.2353  0.80449  0.98004     C
C       0.2373   0.7685   0.7532     C
H       0.2488   0.8797   0.0038     H
O      0.25139  0.74299  0.79399     O
O      0.25236  0.80297   0.7382     O
C       0.2723   0.9329   0.8068     C
C       0.2732   0.8031   0.9357     C
O      0.28028  0.76358  0.91048     O
O      0.28223  0.91103  0.76093     O
O      0.29389  0.92369  0.84599     O
O      0.29492  0.84752  0.92392     O
Fe     0.32265  0.74627  0.84126    Fe
Fe     0.32289  0.84126  0.74657    Fe
O      0.33542  0.82076  0.82075     O
Fe     0.35266  0.87002  0.86993    Fe
O       0.3594  0.77576  0.71451     O
O      0.36022  0.71411  0.77459     O
C      0.37571   0.7331  0.73069     C
O      0.38733  0.74102  0.88164     O
O      0.38853  0.88154  0.73932     O
H       0.4101   0.6313   0.7399     H
O      0.41346  0.90429  0.82328     O
O      0.41348  0.82396  0.90164     O
C      0.42002  0.89882  0.77032     C
C      0.42033  0.76993  0.89623     C
C      0.42295  0.70448  0.70367     C
C      0.43172  0.64978  0.71357     C
H       0.4485   0.7688   0.6585     H
C      0.45451   0.7314  0.66523     C
H       0.4593   0.9055   0.6766     H
H       0.4596   0.6763   0.9037     H
C      0.47081  0.92273  0.75469     C
C      0.47202  0.62202  0.68507     C
C      0.47291  0.75496  0.91643     C
H        0.478   0.5847   0.6919     H
C      0.48404  0.91937  0.70021     C
C      0.48461  0.70004  0.91702     C
C      0.49482  0.70369   0.6367     C
H       0.4983    0.946    0.826     H
H       0.5011   0.8272    0.936     H
C       0.5036  0.64897  0.64661     C
C      0.50773  0.94211  0.78905     C
C       0.5093  0.78966  0.93606     C
H       0.5164   0.7222   0.6105     H
C      0.53284  0.67993  0.93711     C
C       0.5336  0.93649  0.68051     C
H       0.5406   0.9401   0.6429     H
H       0.5408   0.6424   0.9377     H
C      0.55587  0.62485  0.62578     C
C      0.55775  0.76958  0.95572     C
C      0.55835  0.95589  0.76941     C
H       0.5603    0.678   0.5619     H
H       0.5619   0.5603    0.678     H
C      0.56945  0.71469  0.95628     C
C      0.57301  0.94832  0.71588     C
C      0.57764  0.64757  0.57859     C
C      0.57859  0.57764  0.64757     C
H       0.5827   0.7934   0.9689     H
H       0.5831   0.9705   0.7926     H
H       0.5847   0.6919    0.478     H
H       0.6105   0.5164   0.7222     H
C       0.6185  0.68827  0.97589     C
C      0.62111  0.97293  0.69012     C
C      0.62202  0.68507  0.47202     C
C      0.62485  0.62578  0.55587     C
H       0.6255   0.7423   0.0345     H
C      0.62578  0.55587  0.62485     C
H       0.6271   0.6278    0.923     H
H       0.6278    0.923   0.6271     H
H       0.6291   0.0296    0.746     H
H       0.6313   0.7399   0.4101     H
C       0.6367  0.49482  0.70369     C
C      0.64171  0.71116  0.01904     C
H       0.6424   0.9377   0.5408     H
C       0.6428  0.64334  0.95272     C
H       0.6429   0.5406   0.9401     H
C      0.64334  0.95272   0.6428     C
C      0.64397  0.01615  0.71329     C
C      0.64661   0.5036  0.64897     C
C      0.64757  0.57859  0.57764     C
C      0.64897  0.64661   0.5036     C
C      0.64978  0.71357  0.43172     C
H       0.6564   0.0942   0.7738     H
H       0.6585   0.4485   0.7688     H
H       0.6596   0.7758   0.0941     H
C      0.66523  0.45451   0.7314     C
H       0.6763   0.9037   0.4596     H
H       0.6766   0.4593   0.9055     H
H        0.678   0.5619   0.5603     H
C      0.67993  0.93711  0.53284     C
C      0.68051   0.5336  0.93649     C
H       0.6817   0.1787   0.8002     H
C      0.68507  0.47202  0.62202     C
H       0.6853   0.8002    0.179     H
C      0.68591  0.11121  0.75611     C
C      0.68814  0.75664  0.11124     C
C      0.68827  0.97589   0.6185     C
C      0.68857  0.03969  0.68868     C
C      0.68868  0.68857  0.03969     C
C      0.69012  0.62111  0.97293     C
H       0.6919    0.478   0.5847     H
C      0.70004  0.91702  0.48461     C
C      0.70021  0.48404  0.91937     C
C      0.70191  0.16057  0.77289     C
C      0.70367  0.42295  0.70448     C
C      0.70369   0.6367  0.49482     C
C      0.70448  0.70367  0.42295     C
C      0.70472  0.77242  0.16072     C
C      0.71116  0.01904  0.64171     C
C      0.71304  0.08665  0.71343     C
C      0.71329  0.64397  0.01615     C
C      0.71343  0.71304  0.08665     C
C      0.71357  0.43172  0.64978     C
O      0.71411  0.77459  0.36022     O
O      0.71451   0.3594  0.77576     O
C      0.71469  0.95628  0.56945     C
C      0.71588  0.57301  0.94832     C
H       0.7167   0.1631   0.0392     H
H       0.7222   0.6105   0.5164     H
H       0.7284   0.2227   0.9661     H
H       0.7301   0.9671   0.2089     H
C      0.73069  0.37571   0.7331     C
C       0.7314  0.66523  0.45451     C
C       0.7331  0.73069  0.37571     C
H       0.7348   0.0291   0.1362     H
O       0.7382  0.25236  0.80297     O
O      0.73932  0.38853  0.88154     O
H       0.7399   0.4101   0.6313     H
O      0.74102  0.88164  0.38733     O
H       0.7423   0.0345   0.6255     H
O      0.74299  0.79399  0.25139     O
H        0.746   0.6291   0.0296     H
Fe     0.74627  0.84126  0.32265    Fe
Fe     0.74657  0.32289  0.84126    Fe
C       0.7476   0.1834   0.7497     C
C       0.7497   0.7476   0.1834     C
C      0.75128  0.17621  0.03018     C
C       0.7532   0.2373   0.7685     C
C      0.75469  0.47081  0.92273     C
C      0.75496  0.91643  0.47291     C
C      0.75611  0.68591  0.11121     C
C      0.75664  0.11124  0.68814     C
C      0.75818  0.21168  0.98703     C
O      0.76093  0.28223  0.91103     O
C      0.76144  0.98724  0.20224     C
O      0.76358  0.91048  0.28028     O
C      0.76419  0.02381  0.15929     C
C       0.7685   0.7532   0.2373     C
H       0.7688   0.6585   0.4485     H
C      0.76941  0.55835  0.95589     C
C      0.76958  0.95572  0.55775     C
C      0.76993  0.89623  0.42033     C
C      0.77032  0.42002  0.89882     C
C      0.77242  0.16072  0.70472     C
C      0.77289  0.70191  0.16057     C
H       0.7738   0.6564   0.0942     H
O      0.77459  0.36022  0.71411     O
O      0.77576  0.71451   0.3594     O
H       0.7758   0.0941   0.6596     H
N      0.77932  0.12433   0.1028     N
C      0.78905  0.50773  0.94211     C
C      0.78966  0.93606   0.5093     C
H       0.7926   0.5831   0.9705     H
H       0.7934   0.9689   0.5827     H
O      0.79399  0.25139  0.74299     O
C      0.79457  0.15986   0.0603     C
H       0.8002    0.179   0.6853     H
H       0.8002   0.6817   0.1787     H
O      0.80297   0.7382  0.25236     O
C       0.8031   0.9357   0.2732     C
C      0.80449  0.98004   0.2353     C
C       0.8068   0.2723   0.9329     C
C      0.80823  0.23111  0.97419     C
C      0.80978  0.05225  0.15054     C
N      0.81258  0.08875  0.10761     N
O      0.82075  0.33542  0.82076     O
O      0.82076  0.82075  0.33542     O
O      0.82328  0.41346  0.90429     O
O      0.82396  0.90164  0.41348     O
H        0.826   0.4983    0.946     H
H       0.8272    0.936   0.5011     H
Fe     0.84126  0.32265  0.74627    Fe
Fe     0.84126  0.74657  0.32289    Fe
C      0.84458  0.17958  0.04763     C
O      0.84599  0.29389  0.92369     O
O      0.84752  0.92392  0.29492     O
C      0.85014  0.00896  0.22595     C
C      0.85146  0.21486  0.00436     C
C      0.85283   0.0455  0.18291     C
Fe     0.86993  0.35266  0.87002    Fe
Fe     0.87002  0.86993  0.35266    Fe
H       0.8742   0.1689   0.0688     H
H       0.8797   0.0038   0.2488     H
O      0.88154  0.73932  0.38853     O
O      0.88164  0.38733  0.74102     O
H       0.8841   0.0656    0.176     H
H        0.886   0.2279   0.9953     H
C      0.89623  0.42033  0.76993     C
C      0.89882  0.77032  0.42002     C
O      0.90164  0.41348  0.82396     O
H       0.9037   0.4596   0.6763     H
O      0.90429  0.82328  0.41346     O
H       0.9055   0.6766   0.4593     H
O      0.91048  0.28028  0.76358     O
O      0.91103  0.76093  0.28223     O
C      0.91643  0.47291  0.75496     C
C      0.91702  0.48461  0.70004     C
C      0.91937  0.70021  0.48404     C
C      0.92273  0.75469  0.47081     C
H        0.923   0.6271   0.6278     H
O      0.92369  0.84599  0.29389     O
O      0.92392  0.29492  0.84752     O
C       0.9329   0.8068   0.2723     C
C       0.9357   0.2732   0.8031     C
H        0.936   0.5011   0.8272     H
C      0.93606   0.5093  0.78966     C
C      0.93649  0.68051   0.5336     C
C      0.93711  0.53284  0.67993     C
H       0.9377   0.5408   0.6424     H
H       0.9401   0.6429   0.5406     H
C      0.94211  0.78905  0.50773     C
H        0.946    0.826   0.4983     H
C      0.94832  0.71588  0.57301     C
C      0.95272   0.6428  0.64334     C
C      0.95572  0.55775  0.76958     C
C      0.95589  0.76941  0.55835     C
C      0.95628  0.56945  0.71469     C
H       0.9661   0.7284   0.2227     H
H       0.9671   0.2089   0.7301     H
H       0.9689   0.5827   0.7934     H
H       0.9705   0.7926   0.5831     H
C      0.97293  0.69012  0.62111     C
C      0.97419  0.80823  0.23111     C
C      0.97589   0.6185  0.68827     C
C      0.98004   0.2353  0.80449     C
C      0.98703  0.75818  0.21168     C
C      0.98724  0.20224  0.76144     C
H       0.9953    0.886   0.2279     H
