data_I
_chemical_name_common  '/home/zhangsd/repos/MofS-CGCNN/ML/data/SSD/clean_cifs/TOWNEA_clean'
_cell_length_a 21.75700
_cell_length_b 21.75700
_cell_length_c 35.29900
_cell_angle_alpha 90.00000
_cell_angle_beta  90.00000
_cell_angle_gamma 90.00000
_space_group_name_H-M_alt      'P 1'


loop_
_space_group_symop_operation_xyz
  'x, y, z' 

loop_
_atom_site_label
_atom_site_fract_x
_atom_site_fract_y
_atom_site_fract_z
_atom_site_type_symbol
Fe     0.00024  0.71656  0.14968    Fe
H        0.001   0.6954   0.3445     H
Fe     0.00239  0.34314   0.7361    Fe
O       0.0025   0.7265   0.2032     O
H       0.0037   0.8018    0.339     H
Fe     0.00546  0.80623  0.22588    Fe
C        0.006   0.2806  0.93569     C
H       0.0098   0.7456   0.4549     H
C       0.0112   0.3104  0.87009     C
C       0.0118  0.72788  0.39824     C
C       0.0125   0.2774  0.38705     C
H        0.013   0.6246   0.9553     H
C       0.0196   0.6463  0.93236     C
C       0.0222   0.3093  0.42067     C
H       0.0386   0.2385   0.3178     H
C      0.03863   0.8128  0.35364     C
C        0.039     0.71  0.86512     C
H       0.0457   0.7317   0.8421     H
O       0.0465   0.2132  0.77152     O
C       0.0469   0.3273    0.945     C
C       0.0505  0.78268  0.38759     C
C       0.0521   0.3571   0.8794     C
O       0.0521    0.844  0.18428     O
O       0.0567   0.6915  0.27505     O
H       0.0575   0.3007   0.4356     H
H       0.0591    0.333   0.9706     H
O       0.0592    0.645  0.15061     O
O       0.0597    0.393  0.70346     O
C       0.0602   0.2314  0.37386     C
O       0.0619   0.2127  0.64232     O
C       0.0635    0.217  0.33555     C
H       0.0679   0.3833   0.8602     H
O       0.0695   0.7749  0.13805     O
O       0.0697   0.6169  0.21255     O
H       0.0698   0.8796    0.318     H
C       0.0699   0.3655  0.91685     C
C       0.0712   0.6338  0.91044     C
O       0.0724   0.3423  0.65092     O
O       0.0728   0.1696  0.70085     O
O       0.0753   0.3123  0.76445     O
C       0.0779    0.859  0.34118     C
C       0.0806   0.8271   0.1547     C
C       0.0807   0.2612   0.7789     C
C       0.0809   0.6656  0.87682     C
O       0.0839   0.7856  0.25371     O
C       0.0852   0.6145   0.1768     C
C       0.0858    0.386   0.6731     C
C       0.0869   0.1753   0.6666     C
C       0.0936    0.736   0.2737     C
H       0.0944   0.2099    0.426     H
C       0.0967      0.2  0.39978     C
C       0.1015   0.7988  0.40908     C
C       0.1033   0.1713  0.32315     C
H       0.1056   0.1614    0.297     H
O        0.107   0.5597  0.95346     O
H       0.1096   0.7782   0.4323     H
H       0.1114    0.159   0.8192     H
C        0.114   0.5858   0.9231     C
C       0.1145   0.4148   0.9268     C
H       0.1161    0.657   0.8618     H
H       0.1167   0.5679   0.1102     H
O       0.1169   0.4303  0.96255     O
H       0.1204   0.9302    0.182     H
H       0.1246    0.487   0.7053     H
C       0.1249   0.8711  0.13733     C
C       0.1252   0.2506  0.81067     C
C       0.1289   0.8751  0.36267     C
H       0.1319   0.6486   0.3184     H
H       0.1328   0.1613   0.5949     H
C       0.1336  0.19381  0.82793     C
C       0.1338   0.4288  0.66044     C
C       0.1345   0.5699  0.16685     C
C       0.1364   0.1543  0.38738     C
C       0.1398   0.1399  0.34907     C
C       0.1399   0.1398  0.65093     C
C      0.14076    0.845  0.39662     C
C        0.141   0.9221  0.15882     C
C       0.1429   0.5521   0.1294     C
H        0.144   0.8243   0.0887     H
O        0.145   0.4408  0.90061     O
C       0.1463   0.4804  0.68236     C
H       0.1486   0.3681   0.0684     H
C       0.1487   0.7334  0.29609     C
H       0.1489   0.2855   0.1109     H
H       0.1491   0.1801   0.1302     H
H       0.1519   0.3404   0.8117     H
C       0.1543   0.1364  0.61262     C
C        0.155  0.85924  0.10338     C
O        0.156   0.9479  0.31572     O
Fe     0.15686  0.50239   0.9861    Fe
H        0.157   0.3839   0.6118     H
C       0.1576  0.30158  0.82348     C
O       0.1577   0.5724  0.90092     O
C       0.1586  0.68308  0.31958     C
H        0.159   0.1114   0.1808     H
H       0.1596   0.6519   0.0617     H
H       0.1613   0.1328   0.4051     H
H       0.1614   0.1056    0.703     H
C       0.1656   0.4191  0.62682     C
H        0.167   0.5591   0.2206     H
H       0.1694   0.7206   0.1123     H
O       0.1696   0.0728  0.29915     O
C       0.1713   0.1033  0.67685     C
C       0.1727   0.5469    0.195     C
C       0.1729   0.9194   0.3453     C
C       0.1744  0.18797    0.858     C
C       0.1753   0.0869   0.3334     C
H       0.1757    0.856   0.4113     H
H       0.1801   0.1491   0.8698     H
H        0.181   0.8182   0.2818     H
H       0.1816   0.7364   0.1758     H
H       0.1818    0.819   0.2182     H
C      0.18308   0.3414  0.06958     C
C      0.18323   0.2923   0.0948     C
C       0.1872  0.96137  0.14636     C
O       0.1877   0.5753  0.01445     O
C       0.1878  0.78382  0.29781     C
C      0.18797   0.1744    0.142     C
C       0.1896   0.5112  0.12009     C
C       0.1907   0.5222  0.67067     C
O       0.1915   0.4433  0.02505     O
Fe     0.19377  0.99454  0.27412    Fe
C      0.19381   0.1336  0.17207     C
H       0.1954    0.499   0.0945     H
H       0.1982   0.9963    0.161     H
C      0.19842   0.6576  0.07348     C
C       0.1985  0.29574  0.85355     C
H       0.1993   0.5575   0.6856     H
C          0.2   0.0967  0.60022     C
C       0.2012   0.8985  0.09092     C
C      0.20426   0.6985  0.10355     C
C       0.2068   0.2389  0.87081     C
C       0.2077  0.68323   0.3448     C
H       0.2099   0.0944    0.574     H
C         0.21    0.461  0.61512     C
O       0.2127   0.0619  0.35768     O
O       0.2132   0.0465  0.22848     O
O       0.2144   0.9161  0.24629     O
H       0.2145   0.6489   0.3609     H
C      0.21604   0.7632  0.17697     C
C      0.21618   0.8122  0.20219     C
Fe     0.21656  0.49976  0.89968    Fe
C        0.217   0.0635  0.66445     C
C      0.21732   0.9495  0.11241     C
C       0.2194    0.506  0.18569     C
H       0.2206   0.3306   0.8623     H
H       0.2218   0.8904   0.0677     H
C       0.2226   0.5125  0.63705     C
O       0.2251   0.9305  0.36195     O
O       0.2265   0.4975   0.9532     O
C      0.22788   0.4882  0.14824     C
C       0.2314   0.0602  0.62614     C
H       0.2317   0.4543   0.5921     H
C       0.2334   0.3513  0.04609     C
C       0.2337   0.2532  0.09653     C
C        0.236   0.4064   0.0237     C
H       0.2364   0.3184   0.9258     H
C       0.2368  0.78396  0.32303     C
H       0.2385   0.0386   0.6822     H
C       0.2388   0.5807   0.0289     C
C       0.2389   0.2068  0.12919     C
H       0.2456   0.4902   0.2049     H
C       0.2468   0.7337  0.34653     C
C       0.2494   0.6252  0.06067     C
C       0.2506   0.1252  0.18933     C
C       0.2532   0.2337  0.90347     C
H       0.2544   0.9902   0.0451     H
C       0.2611   0.7068  0.12081     C
C       0.2612   0.0807   0.2211     C
H       0.2615   0.5386   0.5678     H
C       0.2632  0.28396  0.92697     C
H       0.2636   0.8184   0.3242     H
C        0.264   0.9064   0.2263     C
C       0.2663   0.7532  0.15347     C
C       0.2666   0.8513  0.20391     C
H       0.2683   0.9543   0.6579     H
C       0.2686   0.5602  0.62386     C
C      0.27212   0.9882  0.10176     C
O       0.2735   0.9975   0.2968     O
O       0.2749   0.4305  0.88805     O
C       0.2774   0.0125  0.61295     C
H       0.2782   0.3904   0.1823     H
H       0.2794   0.8306   0.3877     H
C       0.2806    0.006  0.06431     C
C      0.28268   0.4495  0.13759     C
C        0.283   0.5635  0.58555     C
Fe     0.28344  0.99976  0.35032    Fe
C      0.28382   0.3122  0.04781     C
C      0.28396   0.2632  0.07303     C
H       0.2855   0.1489   0.8891     H
O       0.2856   0.4161  0.00371     O
O       0.2868   0.5465  0.02152     O
O       0.2873   0.5619  0.89232     O
C         0.29    0.961  0.63488     C
H       0.2901   0.5944    0.676     H
C       0.2923  0.18323   0.9052     C
C       0.2932   0.7389  0.37919     C
C      0.29574   0.1985  0.14645     C
C       0.2988   0.3985  0.15908     C
C          0.3   0.5967  0.64978     C
H       0.3007   0.0575   0.5644     H
C       0.3015  0.79574  0.39645     C
C      0.30158   0.1576  0.17652     C
H       0.3018   0.4963    0.089     H
H       0.3046    0.999   0.1555     H
C      0.30619   0.6336  0.07793     C
Fe     0.30623  0.49454  0.97588    Fe
O       0.3085   0.9433  0.22495     O
C       0.3093   0.0222  0.57933     C
C       0.3104   0.0112  0.12991     C
C      0.31203   0.6744    0.108     C
C       0.3122  0.28382  0.95219     C
O       0.3123   0.0753  0.23555     O
C       0.3128  0.46137  0.10364     C
C      0.31677   0.7923   0.1552     C
C      0.31692   0.8414  0.18042     C
H       0.3182    0.319   0.0318     H
H       0.3184   0.2364   0.0742     H
H        0.319   0.3182   0.9682     H
H       0.3199   0.6491   0.3802     H
H       0.3243    0.356   0.8387     H
C       0.3247   0.5869   0.9166     C
C       0.3256  0.68797    0.392     C
C       0.3271   0.4194   0.9047     C
C       0.3273   0.0469    0.055     C
C       0.3287   0.6033  0.57315     C
O       0.3304   0.5728  0.95085     O
H       0.3306   0.2206   0.1377     H
H        0.333   0.0591   0.0294     H
C       0.3344   0.9191  0.62318     C
H       0.3386   0.6056    0.547     H
H       0.3387   0.6328   0.8449     H
H       0.3404   0.1519   0.1883     H
H        0.341   0.6114   0.0692     H
C       0.3414  0.18308  0.93042     C
O       0.3423   0.0724  0.34908     O
C       0.3424  0.80158  0.42652     C
H        0.343   0.8839   0.6382     H
Fe     0.34314  0.00239   0.2639    Fe
O        0.344   0.4479  0.93428     O
C        0.345  0.35924  0.14662     C
C       0.3457   0.6364  0.63738     C
H       0.3481   0.8404   0.4383     H
H       0.3509   0.6801   0.1198     H
H       0.3511   0.7855   0.1391     H
C       0.3513   0.2334  0.95391     C
H       0.3514   0.8681   0.1816     H
C       0.3537   0.9804  0.56764     C
O        0.355   0.9408  0.34939     O
H        0.356   0.3243   0.1613     H
C       0.3571   0.0521   0.1206     C
C        0.359   0.4221  0.09118     C
C      0.35924    0.345  0.85338     C
C       0.3601   0.6398  0.59907     C
C       0.3602   0.6399  0.90093     C
C       0.3636   0.6543  0.86262     C
C       0.3655   0.0699  0.08315     C
C       0.3662   0.9288  0.58956     C
C       0.3664  0.69381  0.42207     C
H       0.3672   0.6613   0.6551     H
H       0.3681   0.1486   0.9316     H
C       0.3711   0.3751  0.88733     C
C       0.3748   0.7506  0.43933     C
C       0.3751   0.3711  0.11267     C
H       0.3754    0.987   0.5447     H
H       0.3796   0.4302    0.068     H
O       0.3831   0.9303  0.28745     O
H       0.3833   0.0679   0.1398     H
H       0.3839    0.157   0.3882     H
C       0.3855   0.9148   0.3232     C
C        0.386   0.0858   0.3269     C
H       0.3886    0.659   0.4308     H
H       0.3904   0.2782   0.8177     H
O        0.393   0.0597  0.29654     O
H       0.3944   0.6614    0.953     H
C       0.3967   0.6713  0.92685     C
C       0.3985   0.2988  0.84092     C
C       0.4033      0.7  0.85022     C
H       0.4056   0.7099    0.824     H
C       0.4064    0.236   0.9763     C
C       0.4131   0.6753   0.5834     C
C       0.4142    0.886   0.5769     C
C       0.4148   0.1145   0.0732     C
O       0.4161   0.2856  0.99629     O
C       0.4191   0.1656  0.37318     C
C       0.4193   0.7612   0.4711     C
C       0.4194   0.3271   0.0953     C
C       0.4221    0.359  0.90882     C
O       0.4247   0.8123  0.48555     O
O       0.4272   0.6696  0.54915     O
O       0.4276   0.8423  0.59908     O
C       0.4288   0.1338  0.33956     C
C       0.4301   0.8655  0.33315     C
H       0.4302   0.3796    0.932     H
O       0.4303   0.1169  0.03745     O
O       0.4305   0.2749  0.11195     O
H       0.4321   0.8833   0.3898     H
C       0.4365    0.717  0.91445     C
O       0.4381   0.7127  0.60768     O
C       0.4398   0.7314  0.87614     C
O       0.4403    0.893  0.54654     O
O       0.4408    0.145  0.09939     O
H       0.4409    0.833   0.2794     H
H       0.4425   0.8007   0.8144     H
O       0.4433   0.1915  0.97495     O
O       0.4479    0.344  0.06572     O
C       0.4479   0.8571   0.3706     C
C       0.4495  0.28268  0.86241     C
C       0.4531   0.8273    0.305     C
O       0.4535   0.7132  0.47848     O
H       0.4543   0.2317   0.4079     H
C        0.461     0.21  0.38488     C
C      0.46137   0.3128  0.89636     C
H       0.4614   0.7385   0.9322     H
C       0.4778   0.8093  0.82933     C
C       0.4804   0.1463  0.31764     C
H        0.487   0.1246   0.2947     H
C       0.4875   0.7774  0.86295     C
C       0.4882  0.22788  0.85176     C
C       0.4888   0.8104  0.37991     C
H       0.4902   0.2456   0.7951     H
C        0.494   0.7806  0.31431     C
Fe     0.49454  0.30623  0.02412    Fe
H       0.4963   0.3018    0.911     H
O       0.4975   0.2265   0.0468     O
Fe     0.49761  0.84314   0.5139    Fe
H        0.499   0.1954   0.9055     H
Fe     0.49976  0.21656  0.10032    Fe
Fe     0.50024  0.78344  0.60032    Fe
H        0.501   0.8046   0.4055     H
Fe     0.50239  0.15686   0.0139    Fe
O       0.5025   0.7735   0.5468     O
H       0.5037   0.6982    0.411     H
Fe     0.50546  0.69377  0.52412    Fe
C        0.506   0.2194  0.81431     C
H       0.5098   0.7544   0.2951     H
C       0.5112   0.1896  0.87991     C
C       0.5118  0.77212  0.35176     C
C       0.5125   0.2226  0.36295     C
H        0.513   0.8754   0.7947     H
C       0.5196   0.8537  0.81764     C
C       0.5222   0.1907  0.32933     C
H       0.5386   0.2615   0.4322     H
C      0.53863   0.6872  0.39636     C
C        0.539     0.79  0.88488     C
H       0.5457   0.7683   0.9079     H
O       0.5465   0.2868  0.97848     O
C       0.5469   0.1727    0.805     C
C       0.5505  0.71732  0.36241     C
C       0.5521   0.1429   0.8706     C
O       0.5521    0.656  0.56572     O
O       0.5567   0.8085  0.47495     O
H       0.5575   0.1993   0.3144     H
H       0.5591    0.167   0.7794     H
O       0.5592    0.855  0.59939     O
O       0.5597    0.107  0.04654     O
C       0.5602   0.2686  0.37614     C
O       0.5619   0.2873  0.10768     O
C       0.5635    0.283  0.41445     C
H       0.5679   0.1167   0.8898     H
O       0.5695   0.7251  0.61195     O
O       0.5697   0.8831  0.53745     O
H       0.5698   0.6204    0.432     H
C       0.5699   0.1345  0.83315     C
C       0.5712   0.8662  0.83956     C
O       0.5724   0.1577  0.09908     O
O       0.5728   0.3304  0.04915     O
O       0.5753   0.1877  0.98555     O
C       0.5779    0.641  0.40882     C
C       0.5806   0.6729   0.5953     C
C       0.5807   0.2388   0.9711     C
C       0.5809   0.8344  0.87318     C
O       0.5839   0.7144  0.49629     O
C       0.5852   0.8855   0.5732     C
C       0.5858    0.114   0.0769     C
C       0.5869   0.3247   0.0834     C
C       0.5936    0.764   0.4763     C
H       0.5944   0.2901    0.324     H
C       0.5967      0.3  0.35022     C
C       0.6015   0.7012  0.34092     C
C       0.6033   0.3287  0.42685     C
H       0.6056   0.3386    0.453     H
O        0.607   0.9403  0.79654     O
H       0.6096   0.7218   0.3177     H
H       0.6114    0.341   0.9308     H
C        0.614   0.9142   0.8269     C
C       0.6145   0.0852   0.8232     C
H       0.6161    0.843   0.8882     H
H       0.6167   0.9321   0.6398     H
O       0.6169   0.0697  0.78745     O
H       0.6204   0.5698    0.568     H
H       0.6246    0.013   0.0447     H
C       0.6249   0.6289  0.61267     C
C       0.6252   0.2494  0.93933     C
C       0.6289   0.6249  0.38733     C
H       0.6319   0.8514   0.4316     H
H       0.6328   0.3387   0.1551     H
C       0.6336  0.30619  0.92207     C
C       0.6338   0.0712  0.08956     C
C       0.6345   0.9301  0.58315     C
C       0.6364   0.3457  0.36262     C
C       0.6398   0.3601  0.40093     C
C       0.6399   0.3602  0.09907     C
C      0.64076    0.655  0.35338     C
C        0.641   0.5779  0.59118     C
C       0.6429   0.9479   0.6206     C
H        0.644   0.6757   0.6613     H
O        0.645   0.0592  0.84939     O
C       0.6463   0.0196  0.06764     C
H       0.6486   0.1319   0.6816     H
C       0.6487   0.7666  0.45391     C
H       0.6489   0.2145   0.6391     H
H       0.6491   0.3199   0.6198     H
H       0.6519   0.1596   0.9383     H
C       0.6543   0.3636  0.13738     C
C        0.655  0.64076  0.64662     C
O        0.656   0.5521  0.43428     O
Fe     0.65686  0.99761   0.7639    Fe
H        0.657   0.1161   0.1382     H
C       0.6576  0.19842  0.92652     C
O       0.6577   0.9276  0.84908     O
C       0.6586  0.81692  0.43042     C
H        0.659   0.3886   0.5692     H
H       0.6596   0.8481   0.6883     H
H       0.6613   0.3672   0.3449     H
H       0.6614   0.3944    0.047     H
C       0.6656   0.0809  0.12318     C
H        0.667   0.9409   0.5294     H
H       0.6694   0.7794   0.6377     H
O       0.6696   0.4272  0.45085     O
C       0.6713   0.3967  0.07315     C
C       0.6727   0.9531    0.555     C
C       0.6729   0.5806   0.4047     C
C       0.6744  0.31203    0.892     C
C       0.6753   0.4131   0.4166     C
H       0.6757    0.644   0.3387     H
H       0.6801   0.3509   0.8802     H
H        0.681   0.6818   0.4682     H
H       0.6816   0.7636   0.5742     H
H       0.6818    0.681   0.5318     H
C      0.68308   0.1586  0.68042     C
C      0.68323   0.2077   0.6552     C
C       0.6872  0.53863  0.60364     C
O       0.6877   0.9247  0.73555     O
C       0.6878  0.71618  0.45219     C
C      0.68797   0.3256    0.608     C
C       0.6896   0.9888  0.62991     C
C       0.6907   0.9778  0.07933     C
O       0.6915   0.0567  0.72495     O
Fe     0.69377  0.50546  0.47588    Fe
C      0.69381   0.3664  0.57793     C
H       0.6954    0.001   0.6555     H
H       0.6982   0.5037    0.589     H
C      0.69842   0.8424  0.67652     C
C       0.6985  0.20426  0.89645     C
H       0.6993   0.9425   0.0644     H
C          0.7   0.4033  0.14978     C
C       0.7012   0.6015  0.65908     C
C      0.70426   0.8015  0.64645     C
C       0.7068   0.2611  0.87919     C
C       0.7077  0.81677   0.4052     C
H       0.7099   0.4056    0.176     H
C         0.71    0.039  0.13488     C
O       0.7127   0.4381  0.39232     O
O       0.7132   0.4535  0.52152     O
O       0.7144   0.5839  0.50371     O
H       0.7145   0.8511   0.3891     H
C      0.71604   0.7368  0.57303     C
C      0.71618   0.6878  0.54781     C
Fe     0.71656  0.00024  0.85032    Fe
C        0.717   0.4365  0.08555     C
C      0.71732   0.5505  0.63759     C
C       0.7194    0.994  0.56431     C
H       0.7206   0.1694   0.8877     H
H       0.7218   0.6096   0.6823     H
C       0.7226   0.9875  0.11295     C
O       0.7251   0.5695  0.38805     O
O       0.7265   0.0025   0.7968     O
C      0.72788   0.0118  0.60176     C
C       0.7314   0.4398  0.12386     C
H       0.7317   0.0457   0.1579     H
C       0.7334   0.1487  0.70391     C
C       0.7337   0.2468  0.65347     C
C        0.736   0.0936   0.7263     C
H       0.7364   0.1816   0.8242     H
C       0.7368  0.71604  0.42697     C
H       0.7385   0.4614   0.0678     H
C       0.7388   0.9193   0.7211     C
C       0.7389   0.2932  0.62081     C
H       0.7456   0.0098   0.5451     H
C       0.7468   0.7663  0.40347     C
C       0.7494   0.8748  0.68933     C
C       0.7506   0.3748  0.56067     C
C       0.7532   0.2663  0.84653     C
H       0.7544   0.5098   0.7049     H
C       0.7611   0.7932  0.62919     C
C       0.7612   0.4193   0.5289     C
H       0.7615   0.9614   0.1822     H
C       0.7632  0.21604  0.82303     C
H       0.7636   0.6816   0.4258     H
C        0.764   0.5936   0.5237     C
C       0.7663   0.7468  0.59653     C
C       0.7666   0.6487  0.54609     C
H       0.7683   0.5457   0.0921     H
C       0.7686   0.9398  0.12614     C
C      0.77212   0.5118  0.64824     C
O       0.7735   0.5025   0.4532     O
O       0.7749   0.0695  0.86195     O
C       0.7774   0.4875  0.13705     C
H       0.7782   0.1096   0.5677     H
H       0.7794   0.6694   0.3623     H
C       0.7806    0.494  0.68569     C
C      0.78268   0.0505  0.61241     C
C        0.783   0.9365  0.16445     C
Fe     0.78344  0.50024  0.39968    Fe
C      0.78382   0.1878  0.70219     C
C      0.78396   0.2368  0.67697     C
H       0.7855   0.3511   0.8609     H
O       0.7856   0.0839  0.74629     O
O       0.7868   0.9535  0.72848     O
O       0.7873   0.9381  0.85768     O
C         0.79    0.539  0.11512     C
H       0.7901   0.9056    0.074     H
C       0.7923  0.31677   0.8448     C
C       0.7932   0.7611  0.37081     C
C      0.79574   0.3015  0.60355     C
C       0.7988   0.1015  0.59092     C
C          0.8   0.9033  0.10022     C
H       0.8007   0.4425   0.1856     H
C       0.8015  0.70426  0.35355     C
C      0.80158   0.3424  0.57348     C
H       0.8018   0.0037    0.661     H
H       0.8046    0.501   0.5945     H
C      0.80619   0.8664  0.67207     C
Fe     0.80623  0.00546  0.77412    Fe
O       0.8085   0.5567  0.52505     O
C       0.8093   0.4778  0.17067     C
C       0.8104   0.4888  0.62009     C
C      0.81203   0.8256    0.642     C
C       0.8122  0.21618  0.79781     C
O       0.8123   0.4247  0.51445     O
C       0.8128  0.03863  0.64636     C
C      0.81677   0.7077   0.5948     C
C      0.81692   0.6586  0.56958     C
H       0.8182    0.181   0.7182     H
H       0.8184   0.2636   0.6758     H
H        0.819   0.1818   0.7818     H
H       0.8199   0.8509   0.3698     H
H       0.8243    0.144   0.9113     H
C       0.8247   0.9131   0.8334     C
C       0.8256  0.81203    0.358     C
C       0.8271   0.0806   0.8453     C
C       0.8273   0.4531    0.695     C
C       0.8287   0.8967  0.17685     C
O       0.8304   0.9272  0.79915     O
H       0.8306   0.2794   0.6123     H
H        0.833   0.4409   0.7206     H
C       0.8344   0.5809  0.12682     C
H       0.8386   0.8944    0.203     H
H       0.8387   0.8672   0.9051     H
H       0.8404   0.3481   0.5617     H
H        0.841   0.8886   0.6808     H
C       0.8414  0.31692  0.81958     C
O       0.8423   0.4276  0.40092     O
C       0.8424  0.69842  0.32348     C
H        0.843   0.6161   0.1118     H
Fe     0.84314  0.49761   0.4861    Fe
O        0.844   0.0521  0.81572     O
C        0.845  0.14076  0.60338     C
C       0.8457   0.8636  0.11262     C
H       0.8481   0.6596   0.3117     H
H       0.8509   0.8199   0.6302     H
H       0.8511   0.7145   0.6109     H
C       0.8513   0.2666  0.79609     C
H       0.8514   0.6319   0.5684     H
C       0.8537   0.5196  0.18236     C
O        0.855   0.5592  0.40061     O
H        0.856   0.1757   0.5887     H
C       0.8571   0.4479   0.6294     C
C        0.859   0.0779  0.65882     C
C      0.85924    0.155  0.89662     C
C       0.8601   0.8602  0.15093     C
C       0.8602   0.8601  0.84907     C
C       0.8636   0.8457  0.88738     C
C       0.8655   0.4301  0.66685     C
C       0.8662   0.5712  0.16044     C
C       0.8664  0.80619  0.32793     C
H       0.8672   0.8387   0.0949     H
H       0.8681   0.3514   0.8184     H
C       0.8711   0.1249  0.86267     C
C       0.8748   0.7494  0.31067     C
C       0.8751   0.1289  0.63733     C
H       0.8754    0.513   0.2053     H
H       0.8796   0.0698    0.682     H
O       0.8831   0.5697  0.46255     O
H       0.8833   0.4321   0.6102     H
H       0.8839    0.343   0.3618     H
C       0.8855   0.5852   0.4268     C
C        0.886   0.4142   0.4231     C
H       0.8886    0.841   0.3192     H
H       0.8904   0.2218   0.9323     H
O        0.893   0.4403  0.45346     O
H       0.8944   0.8386    0.797     H
C       0.8967   0.8287  0.82315     C
C       0.8985   0.2012  0.90908     C
C       0.9033      0.8  0.89978     C
H       0.9056   0.7901    0.926     H
C       0.9064    0.264   0.7737     C
C       0.9131   0.8247   0.1666     C
C       0.9142    0.614   0.1731     C
C       0.9148   0.3855   0.6768     C
O       0.9161   0.2144  0.75371     O
C       0.9191   0.3344  0.37682     C
C       0.9193   0.7388   0.2789     C
C       0.9194   0.1729   0.6547     C
C       0.9221    0.141  0.84118     C
O       0.9247   0.6877  0.26445     O
O       0.9272   0.8304  0.20085     O
O       0.9276   0.6577  0.15092     O
C       0.9288   0.3662  0.41044     C
C       0.9301   0.6345  0.41685     C
H       0.9302   0.1204    0.818     H
O       0.9303   0.3831  0.71255     O
O       0.9305   0.2251  0.63805     O
H       0.9321   0.6167   0.3602     H
C       0.9365    0.783  0.83555     C
O       0.9381   0.7873  0.14232     O
C       0.9398   0.7686  0.87386     C
O       0.9403    0.607  0.20346     O
O       0.9408    0.355  0.65061     O
H       0.9409    0.667   0.4706     H
H       0.9425   0.6993   0.9356     H
O       0.9433   0.3085  0.77505     O
O       0.9479    0.156  0.68428     O
C       0.9479   0.6429   0.3794     C
C       0.9495  0.21732  0.88759     C
C       0.9531   0.6727    0.445     C
O       0.9535   0.7868  0.27152     O
H       0.9543   0.2683   0.3421     H
C        0.961     0.29  0.36512     C
C      0.96137   0.1872  0.85364     C
H       0.9614   0.7615   0.8178     H
C       0.9778   0.6907  0.92067     C
C       0.9804   0.3537  0.43236     C
H        0.987   0.3754   0.4553     H
C       0.9875   0.7226  0.88705     C
C       0.9882  0.27212  0.89824     C
C       0.9888   0.6896  0.37009     C
H       0.9902   0.2544   0.9549     H
C        0.994   0.7194  0.43569     C
Fe     0.99454  0.19377  0.72588    Fe
H       0.9963   0.1982    0.839     H
O       0.9975   0.2735   0.7032     O
Fe     0.99761  0.65686   0.2361    Fe
H        0.999   0.3046   0.8445     H
Fe     0.99976  0.28344  0.64968    Fe
