data_I
_chemical_name_common  '/home/zhangsd/repos/MofS-CGCNN/ML/data/SSD/clean_cifs/TOWNUQ_clean'
_cell_length_a 11.87000
_cell_length_b 31.33800
_cell_length_c 24.76300
_cell_angle_alpha 90.00000
_cell_angle_beta  90.00000
_cell_angle_gamma 90.00000
_space_group_name_H-M_alt      'P 1'


loop_
_space_group_symop_operation_xyz
  'x, y, z' 

loop_
_atom_site_label
_atom_site_fract_x
_atom_site_fract_y
_atom_site_fract_z
_atom_site_type_symbol
Fe     0.00818     0.75  0.98104    Fe
H       0.0147   0.0447   0.3728     H
H       0.0147   0.4553   0.3728     H
H       0.0149    0.163   0.7612     H
H       0.0149    0.337   0.7612     H
C       0.0162    0.545   0.6639     C
C       0.0162    0.955   0.6639     C
O        0.034  0.20509   0.8456     O
O        0.034  0.29491   0.8456     O
H       0.0363   0.5547   0.2052     H
H       0.0363   0.9453   0.2052     H
H       0.0367   0.5743   0.6739     H
H       0.0367   0.9257   0.6739     H
H       0.0405   0.0342   0.3108     H
H       0.0405   0.4658   0.3108     H
C       0.0424  0.52893   0.4624     C
C       0.0424  0.97107   0.4624     C
H       0.0454   0.0289   0.7126     H
H       0.0454   0.4711   0.7126     H
Fe     0.04547     0.75  0.11115    Fe
H       0.0491   0.1075   0.7006     H
O       0.0491     0.25   0.9483     O
H       0.0491   0.3925   0.7006     H
H       0.0491   0.5636   0.1419     H
H       0.0491   0.9364   0.1419     H
C       0.0579  0.03776   0.5105     C
C       0.0579  0.46224   0.5105     C
H       0.0622   0.5564   0.3859     H
H       0.0622   0.9436   0.3859     H
H       0.0768   0.1479   0.1118     H
H       0.0768   0.3521   0.1118     H
C       0.0796  0.14556   0.7656     C
C       0.0796  0.35444   0.7656     C
C       0.0873   0.5649   0.1769     C
C       0.0873   0.9351   0.1769     C
O       0.0903  0.20397    0.048     O
O       0.0903  0.29603    0.048     O
H       0.0905    0.589   0.4337     H
H       0.0905    0.911   0.4337     H
C       0.0987   0.5595   0.4212     C
C       0.0987   0.9405   0.4212     C
C       0.0997  0.11255   0.7296     C
C       0.0997  0.38745   0.7296     C
C       0.0998  0.00888   0.4731     C
C       0.0998  0.49112   0.4731     C
H        0.105   0.5683   0.5634     H
H        0.105   0.9317   0.5634     H
H       0.1091   0.5944   0.1846     H
H       0.1091   0.9056   0.1846     H
C       0.1143  0.02123   0.6956     C
C       0.1143  0.47877   0.6956     C
H       0.1152   0.0834   0.1553     H
H       0.1152   0.4166   0.1553     H
H       0.1153   0.0082   0.1291     H
H       0.1153   0.4918   0.1291     H
C       0.1213  0.51653   0.6662     C
C       0.1213  0.98347   0.6662     C
C       0.1249  0.07788   0.5193     C
C       0.1249  0.42212   0.5193     C
H       0.1276   0.0941   0.4396     H
H       0.1276   0.4059   0.4396     H
O       0.1282  0.70484   0.9947     O
O       0.1282  0.79516   0.9947     O
C       0.1291   0.1892   0.8482     C
C       0.1291   0.3108   0.8482     C
C       0.1414  0.13179    0.102     C
C       0.1414  0.36821    0.102     C
H       0.1418   0.0743   0.6012     H
H       0.1418   0.4257   0.6012     H
H       0.1431    0.633   0.5198     H
H       0.1431    0.867   0.5198     H
O       0.1493  0.70317   0.0845     O
O       0.1493  0.79683   0.0845     O
C       0.1534   0.1023   0.4743     C
C       0.1534   0.3977   0.4743     C
C       0.1538  0.15335   0.8081     C
C       0.1538  0.34665   0.8081     C
C       0.1615   0.0906   0.5703     C
C       0.1615   0.4094   0.5703     C
C       0.1643  0.09344   0.1278     C
C       0.1643  0.40656   0.1278     C
C       0.1662   0.6891   0.0377     C
C       0.1662   0.8109   0.0377     C
H       0.1666   0.5771   0.2829     H
H       0.1666   0.9229   0.2829     H
H       0.1681   0.0149   0.4546     H
H       0.1681   0.4851   0.4546     H
C       0.1695  0.58448   0.5733     C
C       0.1695  0.91552   0.5733     C
H       0.1789   0.5525    0.418     H
H       0.1789   0.9475    0.418     H
C       0.1821    0.187   0.0329     C
C       0.1821    0.313   0.0329     C
C       0.1843  0.00068   0.1461     C
C       0.1843  0.49932   0.1461     C
C       0.1912  0.53712   0.1755     C
C       0.1912  0.96288   0.1755     C
C       0.1921   0.6229   0.5473     C
C       0.1921   0.8771   0.5473     C
C       0.1941  0.08681    0.736     C
C       0.1941  0.41319    0.736     C
H       0.2007   0.6329   0.3435     H
H       0.2007   0.8671   0.3435     H
O       0.2064   0.2009   0.8787     O
O       0.2064   0.2991   0.8787     O
C       0.2076  0.04781   0.7002     C
C       0.2076  0.45219   0.7002     C
C       0.2133  0.14664   0.0616     C
C       0.2133  0.35336   0.0616     C
Fe     0.21491     0.25  0.93834    Fe
C       0.2191   0.1386   0.4799     C
C       0.2191   0.3614   0.4799     C
C       0.2227  0.52773   0.6414     C
C       0.2227  0.97227   0.6414     C
C       0.2269   0.1271   0.5759     C
C       0.2269   0.3729   0.5759     C
C       0.2314  0.59457   0.2786     C
C       0.2314  0.90543   0.2786     C
H        0.239   0.1549    0.449     H
H        0.239   0.3451    0.449     H
C       0.2412  0.56966   0.6136     C
C       0.2412  0.93034   0.6136     C
C       0.2441  0.65123    0.031     C
C       0.2441  0.84877    0.031     C
O       0.2463  0.20027   0.9957     O
O       0.2463  0.29973   0.9957     O
H       0.2481   0.6356   0.1107     H
H       0.2481   0.8644   0.1107     H
C       0.2485  0.12773   0.8145     C
C       0.2485  0.37227   0.8145     C
C       0.2515  0.62773   0.3145     C
C       0.2515  0.87227   0.3145     C
H       0.2519   0.1356   0.6107     H
H       0.2519   0.3644   0.6107     H
O       0.2537  0.70027   0.4957     O
O       0.2537  0.79973   0.4957     O
C       0.2559  0.15123    0.531     C
C       0.2559  0.34877    0.531     C
C       0.2588  0.06966   0.1136     C
C       0.2588  0.43034   0.1136     C
H        0.261   0.6549    0.949     H
H        0.261   0.8451    0.949     H
C       0.2686  0.09457   0.7786     C
C       0.2686  0.40543   0.7786     C
C       0.2731   0.6271   0.0759     C
C       0.2731   0.8729   0.0759     C
C       0.2773  0.02773   0.1414     C
C       0.2773  0.47227   0.1414     C
C       0.2809   0.6386   0.9799     C
C       0.2809   0.8614   0.9799     C
Fe     0.28509     0.75  0.43834    Fe
C       0.2867  0.64664   0.5616     C
C       0.2867  0.85336   0.5616     C
C       0.2924  0.54781   0.2002     C
C       0.2924  0.95219   0.2002     C
O       0.2936   0.7009   0.3787     O
O       0.2936   0.7991   0.3787     O
H       0.2993   0.1329   0.8435     H
H       0.2993   0.3671   0.8435     H
C       0.3059  0.58681    0.236     C
C       0.3059  0.91319    0.236     C
C       0.3079   0.1229   0.0473     C
C       0.3079   0.3771   0.0473     C
C       0.3088  0.03712   0.6755     C
C       0.3088  0.46288   0.6755     C
C       0.3157  0.50068   0.6461     C
C       0.3157  0.99932   0.6461     C
C       0.3179    0.687   0.5329     C
C       0.3179    0.813   0.5329     C
H       0.3211   0.0525    0.918     H
H       0.3211   0.4475    0.918     H
C       0.3305  0.08448   0.0733     C
C       0.3305  0.41552   0.0733     C
H       0.3319   0.5149   0.9546     H
H       0.3319   0.9851   0.9546     H
H       0.3334   0.0771   0.7829     H
H       0.3334   0.4229   0.7829     H
C       0.3338   0.1891   0.5377     C
C       0.3338   0.3109   0.5377     C
C       0.3357  0.59344   0.6278     C
C       0.3357  0.90656   0.6278     C
C       0.3385   0.5906   0.0703     C
C       0.3385   0.9094   0.0703     C
C       0.3462  0.65335   0.3081     C
C       0.3462  0.84665   0.3081     C
C       0.3466   0.6023   0.9743     C
C       0.3466   0.8977   0.9743     C
O       0.3507  0.20317   0.5845     O
O       0.3507  0.29683   0.5845     O
H       0.3569    0.133   0.0198     H
H       0.3569    0.367   0.0198     H
H       0.3582   0.5743   0.1012     H
H       0.3582   0.9257   0.1012     H
C       0.3586  0.63179    0.602     C
C       0.3586  0.86821    0.602     C
C       0.3709   0.6892   0.3482     C
C       0.3709   0.8108   0.3482     C
O       0.3718  0.20484   0.4947     O
O       0.3718  0.29516   0.4947     O
H       0.3724   0.5941   0.9396     H
H       0.3724   0.9059   0.9396     H
C       0.3751  0.57788   0.0193     C
C       0.3751  0.92212   0.0193     C
C       0.3787  0.01653   0.1662     C
C       0.3787  0.48347   0.1662     C
H       0.3847   0.5082   0.6291     H
H       0.3847   0.9918   0.6291     H
H       0.3848   0.5834   0.6553     H
H       0.3848   0.9166   0.6553     H
C       0.3857  0.52123   0.1956     C
C       0.3857  0.97877   0.1956     C
H       0.3909   0.0944   0.6846     H
H       0.3909   0.4056   0.6846     H
H        0.395   0.0683   0.0634     H
H        0.395   0.4317   0.0634     H
C       0.4002  0.50888   0.9731     C
C       0.4002  0.99112   0.9731     C
C       0.4003  0.61255   0.2296     C
C       0.4003  0.88745   0.2296     C
C       0.4013   0.0595   0.9212     C
C       0.4013   0.4405   0.9212     C
H       0.4095    0.089   0.9337     H
H       0.4095    0.411   0.9337     H
O       0.4097  0.70397    0.548     O
O       0.4097  0.79603    0.548     O
C       0.4127   0.0649   0.6769     C
C       0.4127   0.4351   0.6769     C
C       0.4204  0.64556   0.2656     C
C       0.4204  0.85444   0.2656     C
H       0.4232   0.6479   0.6118     H
H       0.4232   0.8521   0.6118     H
H       0.4378   0.0564   0.8859     H
H       0.4378   0.4436   0.8859     H
C       0.4421  0.53776   0.0105     C
C       0.4421  0.96224   0.0105     C
H       0.4509   0.0636   0.6419     H
H       0.4509   0.4364   0.6419     H
H       0.4509   0.6075   0.2006     H
O       0.4509     0.75   0.4483     O
H       0.4509   0.8925   0.2006     H
Fe     0.45453     0.25  0.61115    Fe
H       0.4546   0.5289   0.2126     H
H       0.4546   0.9711   0.2126     H
C       0.4576  0.02893   0.9624     C
C       0.4576  0.47107   0.9624     C
H       0.4595   0.5342   0.8108     H
H       0.4595   0.9658   0.8108     H
H       0.4633   0.0743   0.1739     H
H       0.4633   0.4257   0.1739     H
H       0.4637   0.0547   0.7052     H
H       0.4637   0.4453   0.7052     H
O        0.466  0.70509   0.3456     O
O        0.466  0.79491   0.3456     O
C       0.4838    0.045   0.1639     C
C       0.4838    0.455   0.1639     C
H       0.4851    0.663   0.2612     H
H       0.4851    0.837   0.2612     H
H       0.4853   0.5447   0.8728     H
H       0.4853   0.9553   0.8728     H
Fe     0.49182     0.25  0.48104    Fe
Fe     0.50818     0.75  0.51896    Fe
H       0.5147   0.0447   0.1272     H
H       0.5147   0.4553   0.1272     H
H       0.5149    0.163   0.7388     H
H       0.5149    0.337   0.7388     H
C       0.5162    0.545   0.8361     C
C       0.5162    0.955   0.8361     C
O        0.534  0.20509   0.6544     O
O        0.534  0.29491   0.6544     O
H       0.5363   0.5547   0.2948     H
H       0.5363   0.9453   0.2948     H
H       0.5367   0.5743   0.8261     H
H       0.5367   0.9257   0.8261     H
H       0.5405   0.0342   0.1892     H
H       0.5405   0.4658   0.1892     H
C       0.5424  0.52893   0.0376     C
C       0.5424  0.97107   0.0376     C
H       0.5454   0.0289   0.7874     H
H       0.5454   0.4711   0.7874     H
Fe     0.54547     0.75  0.38885    Fe
H       0.5491   0.1075   0.7994     H
O       0.5491     0.25   0.5517     O
H       0.5491   0.3925   0.7994     H
H       0.5491   0.5636   0.3581     H
H       0.5491   0.9364   0.3581     H
C       0.5579  0.03776   0.9895     C
C       0.5579  0.46224   0.9895     C
H       0.5622   0.5564   0.1141     H
H       0.5622   0.9436   0.1141     H
H       0.5768   0.1479   0.3882     H
H       0.5768   0.3521   0.3882     H
C       0.5796  0.14556   0.7344     C
C       0.5796  0.35444   0.7344     C
C       0.5873   0.5649   0.3231     C
C       0.5873   0.9351   0.3231     C
O       0.5903  0.20397    0.452     O
O       0.5903  0.29603    0.452     O
H       0.5905    0.589   0.0663     H
H       0.5905    0.911   0.0663     H
C       0.5987   0.5595   0.0788     C
C       0.5987   0.9405   0.0788     C
C       0.5997  0.11255   0.7704     C
C       0.5997  0.38745   0.7704     C
C       0.5998  0.00888   0.0269     C
C       0.5998  0.49112   0.0269     C
H        0.605   0.5683   0.9366     H
H        0.605   0.9317   0.9366     H
H       0.6091   0.5944   0.3154     H
H       0.6091   0.9056   0.3154     H
C       0.6143  0.02123   0.8044     C
C       0.6143  0.47877   0.8044     C
H       0.6152   0.0834   0.3447     H
H       0.6152   0.4166   0.3447     H
H       0.6153   0.0082   0.3709     H
H       0.6153   0.4918   0.3709     H
C       0.6213  0.51653   0.8338     C
C       0.6213  0.98347   0.8338     C
C       0.6249  0.07788   0.9807     C
C       0.6249  0.42212   0.9807     C
H       0.6276   0.0941   0.0604     H
H       0.6276   0.4059   0.0604     H
O       0.6282  0.70484   0.5053     O
O       0.6282  0.79516   0.5053     O
C       0.6291   0.1892   0.6518     C
C       0.6291   0.3108   0.6518     C
C       0.6414  0.13179    0.398     C
C       0.6414  0.36821    0.398     C
H       0.6418   0.0743   0.8988     H
H       0.6418   0.4257   0.8988     H
H       0.6431    0.633   0.9802     H
H       0.6431    0.867   0.9802     H
O       0.6493  0.70317   0.4155     O
O       0.6493  0.79683   0.4155     O
C       0.6534   0.1023   0.0257     C
C       0.6534   0.3977   0.0257     C
C       0.6538  0.15335   0.6919     C
C       0.6538  0.34665   0.6919     C
C       0.6615   0.0906   0.9297     C
C       0.6615   0.4094   0.9297     C
C       0.6643  0.09344   0.3722     C
C       0.6643  0.40656   0.3722     C
C       0.6662   0.6891   0.4623     C
C       0.6662   0.8109   0.4623     C
H       0.6666   0.5771   0.2171     H
H       0.6666   0.9229   0.2171     H
H       0.6681   0.0149   0.0454     H
H       0.6681   0.4851   0.0454     H
C       0.6695  0.58448   0.9267     C
C       0.6695  0.91552   0.9267     C
H       0.6789   0.5525    0.082     H
H       0.6789   0.9475    0.082     H
C       0.6821    0.187   0.4671     C
C       0.6821    0.313   0.4671     C
C       0.6843  0.00068   0.3539     C
C       0.6843  0.49932   0.3539     C
C       0.6912  0.53712   0.3245     C
C       0.6912  0.96288   0.3245     C
C       0.6921   0.6229   0.9527     C
C       0.6921   0.8771   0.9527     C
C       0.6941  0.08681    0.764     C
C       0.6941  0.41319    0.764     C
H       0.7007   0.6329   0.1565     H
H       0.7007   0.8671   0.1565     H
O       0.7064   0.2009   0.6213     O
O       0.7064   0.2991   0.6213     O
C       0.7076  0.04781   0.7998     C
C       0.7076  0.45219   0.7998     C
C       0.7133  0.14664   0.4384     C
C       0.7133  0.35336   0.4384     C
Fe     0.71491     0.25  0.56166    Fe
C       0.7191   0.1386   0.0201     C
C       0.7191   0.3614   0.0201     C
C       0.7227  0.52773   0.8586     C
C       0.7227  0.97227   0.8586     C
C       0.7269   0.1271   0.9241     C
C       0.7269   0.3729   0.9241     C
C       0.7314  0.59457   0.2214     C
C       0.7314  0.90543   0.2214     C
H        0.739   0.1549    0.051     H
H        0.739   0.3451    0.051     H
C       0.7412  0.56966   0.8864     C
C       0.7412  0.93034   0.8864     C
C       0.7441  0.65123    0.469     C
C       0.7441  0.84877    0.469     C
O       0.7463  0.20027   0.5043     O
O       0.7463  0.29973   0.5043     O
H       0.7481   0.6356   0.3893     H
H       0.7481   0.8644   0.3893     H
C       0.7485  0.12773   0.6855     C
C       0.7485  0.37227   0.6855     C
C       0.7515  0.62773   0.1855     C
C       0.7515  0.87227   0.1855     C
H       0.7519   0.1356   0.8893     H
H       0.7519   0.3644   0.8893     H
O       0.7537  0.70027   0.0043     O
O       0.7537  0.79973   0.0043     O
C       0.7559  0.15123    0.969     C
C       0.7559  0.34877    0.969     C
C       0.7588  0.06966   0.3864     C
C       0.7588  0.43034   0.3864     C
H        0.761   0.6549    0.551     H
H        0.761   0.8451    0.551     H
C       0.7686  0.09457   0.7214     C
C       0.7686  0.40543   0.7214     C
C       0.7731   0.6271   0.4241     C
C       0.7731   0.8729   0.4241     C
C       0.7773  0.02773   0.3586     C
C       0.7773  0.47227   0.3586     C
C       0.7809   0.6386   0.5201     C
C       0.7809   0.8614   0.5201     C
Fe     0.78509     0.75  0.06166    Fe
C       0.7867  0.64664   0.9384     C
C       0.7867  0.85336   0.9384     C
C       0.7924  0.54781   0.2998     C
C       0.7924  0.95219   0.2998     C
O       0.7936   0.7009   0.1213     O
O       0.7936   0.7991   0.1213     O
H       0.7993   0.1329   0.6565     H
H       0.7993   0.3671   0.6565     H
C       0.8059  0.58681    0.264     C
C       0.8059  0.91319    0.264     C
C       0.8079   0.1229   0.4527     C
C       0.8079   0.3771   0.4527     C
C       0.8088  0.03712   0.8245     C
C       0.8088  0.46288   0.8245     C
C       0.8157  0.50068   0.8539     C
C       0.8157  0.99932   0.8539     C
C       0.8179    0.687   0.9671     C
C       0.8179    0.813   0.9671     C
H       0.8211   0.0525    0.582     H
H       0.8211   0.4475    0.582     H
C       0.8305  0.08448   0.4267     C
C       0.8305  0.41552   0.4267     C
H       0.8319   0.5149   0.5454     H
H       0.8319   0.9851   0.5454     H
H       0.8334   0.0771   0.7171     H
H       0.8334   0.4229   0.7171     H
C       0.8338   0.1891   0.9623     C
C       0.8338   0.3109   0.9623     C
C       0.8357  0.59344   0.8722     C
C       0.8357  0.90656   0.8722     C
C       0.8385   0.5906   0.4297     C
C       0.8385   0.9094   0.4297     C
C       0.8462  0.65335   0.1919     C
C       0.8462  0.84665   0.1919     C
C       0.8466   0.6023   0.5257     C
C       0.8466   0.8977   0.5257     C
O       0.8507  0.20317   0.9155     O
O       0.8507  0.29683   0.9155     O
H       0.8569    0.133   0.4802     H
H       0.8569    0.367   0.4802     H
H       0.8582   0.5743   0.3988     H
H       0.8582   0.9257   0.3988     H
C       0.8586  0.63179    0.898     C
C       0.8586  0.86821    0.898     C
C       0.8709   0.6892   0.1518     C
C       0.8709   0.8108   0.1518     C
O       0.8718  0.20484   0.0053     O
O       0.8718  0.29516   0.0053     O
H       0.8724   0.5941   0.5604     H
H       0.8724   0.9059   0.5604     H
C       0.8751  0.57788   0.4807     C
C       0.8751  0.92212   0.4807     C
C       0.8787  0.01653   0.3338     C
C       0.8787  0.48347   0.3338     C
H       0.8847   0.5082   0.8709     H
H       0.8847   0.9918   0.8709     H
H       0.8848   0.5834   0.8447     H
H       0.8848   0.9166   0.8447     H
C       0.8857  0.52123   0.3044     C
C       0.8857  0.97877   0.3044     C
H       0.8909   0.0944   0.8154     H
H       0.8909   0.4056   0.8154     H
H        0.895   0.0683   0.4366     H
H        0.895   0.4317   0.4366     H
C       0.9002  0.50888   0.5269     C
C       0.9002  0.99112   0.5269     C
C       0.9003  0.61255   0.2704     C
C       0.9003  0.88745   0.2704     C
C       0.9013   0.0595   0.5788     C
C       0.9013   0.4405   0.5788     C
H       0.9095    0.089   0.5663     H
H       0.9095    0.411   0.5663     H
O       0.9097  0.70397    0.952     O
O       0.9097  0.79603    0.952     O
C       0.9127   0.0649   0.8231     C
C       0.9127   0.4351   0.8231     C
C       0.9204  0.64556   0.2344     C
C       0.9204  0.85444   0.2344     C
H       0.9232   0.6479   0.8882     H
H       0.9232   0.8521   0.8882     H
H       0.9378   0.0564   0.6141     H
H       0.9378   0.4436   0.6141     H
C       0.9421  0.53776   0.4895     C
C       0.9421  0.96224   0.4895     C
H       0.9509   0.0636   0.8581     H
H       0.9509   0.4364   0.8581     H
H       0.9509   0.6075   0.2994     H
O       0.9509     0.75   0.0517     O
H       0.9509   0.8925   0.2994     H
Fe     0.95453     0.25  0.88885    Fe
H       0.9546   0.5289   0.2874     H
H       0.9546   0.9711   0.2874     H
C       0.9576  0.02893   0.5376     C
C       0.9576  0.47107   0.5376     C
H       0.9595   0.5342   0.6892     H
H       0.9595   0.9658   0.6892     H
H       0.9633   0.0743   0.3261     H
H       0.9633   0.4257   0.3261     H
H       0.9637   0.0547   0.7948     H
H       0.9637   0.4453   0.7948     H
O        0.966  0.70509   0.1544     O
O        0.966  0.79491   0.1544     O
C       0.9838    0.045   0.3361     C
C       0.9838    0.455   0.3361     C
H       0.9851    0.663   0.2388     H
H       0.9851    0.837   0.2388     H
H       0.9853   0.5447   0.6272     H
H       0.9853   0.9553   0.6272     H
Fe     0.99182     0.25  0.01896    Fe
