data_I
_chemical_name_common  '/home/zhangsd/repos/MofS-CGCNN/ML/data/SSD/clean_cifs/TUFTAR_clean'
_cell_length_a  7.72970
_cell_length_b 10.27250
_cell_length_c 16.02340
_cell_angle_alpha 86.81700
_cell_angle_beta  85.97400
_cell_angle_gamma 77.10700
_space_group_name_H-M_alt      'P 1'


loop_
_space_group_symop_operation_xyz
  'x, y, z' 

loop_
_atom_site_label
_atom_site_fract_x
_atom_site_fract_y
_atom_site_fract_z
_atom_site_type_symbol
N       0.0149   0.0788   0.7805     N
C       0.0182   0.9664   0.8285     C
O       0.0379   0.3685   0.0762     O
C        0.051    0.533   0.9642     C
N       0.0599   0.3689    0.744     N
C       0.0606   0.4879   0.7051     C
H       0.0767   0.1103   0.0627     H
C       0.0788   0.0305   0.0958     C
C       0.0823   0.8015   0.1935     C
C       0.0876   0.4427   0.3346     C
C       0.0883    0.685   0.2533     C
H       0.0885   0.8838     0.81     H
H       0.0895    0.356   0.3591     H
O       0.0997   0.0727   0.7048     O
H       0.1632   0.5245   0.7047     H
C        0.179   0.9103   0.0689     C
C       0.1812   0.7937    0.117     C
O       0.2064   0.2973   0.7774     O
O       0.2141   0.4843   0.9515     O
C       0.2333   0.4994   0.3385     C
C       0.2336   0.6221   0.2978     C
O       0.2405   0.5565    0.118     O
H       0.2469   0.9073    0.017     H
C       0.2851   0.6612   0.0878     C
O       0.2908   0.2475    0.203     O
H       0.3322   0.4546   0.3688     H
O       0.3378   0.9705   0.5759     O
Eu     0.35439  0.33627  0.06325    Eu
O       0.3599   0.8119   0.2712     O
C       0.3804   0.6949   0.3062     C
O       0.3821   0.0445   0.8187     O
Eu      0.3849  0.13162  0.67534    Eu
C       0.3895   0.1386   0.2254     C
O       0.3973   0.0883   0.2995     O
O       0.4068   0.8895   0.4473     O
O       0.4081   0.6619   0.0323     O
C       0.4254   0.9583    0.508     C
C       0.4874   0.9387   0.8421     C
O       0.4905    0.356   0.6519     O
O       0.4998   0.8933   0.9168     O
O       0.5002   0.1067   0.0832     O
O       0.5095    0.644   0.3481     O
C       0.5126   0.0613   0.1579     C
C       0.5746   0.0417    0.492     C
O       0.5919   0.3381   0.9677     O
O       0.5932   0.1105   0.5527     O
O       0.6027   0.9117   0.7005     O
C       0.6105   0.8614   0.7746     C
Eu      0.6151  0.86838  0.32466    Eu
O       0.6179   0.9555   0.1813     O
C       0.6196   0.3051   0.6938     C
O       0.6401   0.1881   0.7288     O
Eu     0.64561  0.66373  0.93675    Eu
O       0.6622   0.0295   0.4241     O
H       0.6678   0.5454   0.6312     H
O       0.7092   0.7525    0.797     O
C       0.7149   0.3388   0.9122     C
H       0.7531   0.0927    0.983     H
O       0.7595   0.4435    0.882     O
C       0.7664   0.3779   0.7022     C
C       0.7667   0.5006   0.6615     C
O       0.7859   0.5157   0.0485     O
O       0.7936   0.7027   0.2226     O
C       0.8188   0.2063    0.883     C
C        0.821   0.0897   0.9311     C
H       0.8368   0.4755   0.2953     H
O       0.9003   0.9273   0.2952     O
H       0.9105    0.644   0.6409     H
H       0.9115   0.1162     0.19     H
C       0.9117    0.315   0.7467     C
C       0.9124   0.5573   0.6654     C
C       0.9177   0.1985   0.8065     C
C       0.9212   0.9695   0.9042     C
H       0.9233   0.8897   0.9373     H
C       0.9394   0.5121   0.2949     C
N       0.9401   0.6311    0.256     N
C        0.949    0.467   0.0358     C
O       0.9621   0.6315   0.9238     O
C       0.9818   0.0336   0.1715     C
N       0.9851   0.9212   0.2195     N
