data_I
_chemical_name_common  '/home/zhangsd/repos/MofS-CGCNN/ML/data/SSD/clean_cifs/TUKDAG_clean'
_cell_length_a 11.56400
_cell_length_b 22.34700
_cell_length_c 10.17900
_cell_angle_alpha 90.00000
_cell_angle_beta  103.34300
_cell_angle_gamma 90.00000
_space_group_name_H-M_alt      'P 1'


loop_
_space_group_symop_operation_xyz
  'x, y, z' 

loop_
_atom_site_label
_atom_site_fract_x
_atom_site_fract_y
_atom_site_fract_z
_atom_site_type_symbol
H       0.0016   0.2011   0.7314     H
H       0.0016   0.2989   0.2314     H
N      0.00387  0.62158    0.684     N
N      0.00387  0.87842    0.184     N
H       0.0095   0.0105   0.3721     H
H       0.0095   0.4895   0.8721     H
H       0.0314   0.6164   0.1041     H
H       0.0314   0.8836   0.6041     H
C       0.0439  0.67295   0.7359     C
C       0.0439  0.82705   0.2359     C
C       0.0507  0.53218   0.1845     C
C       0.0507  0.96782   0.6845     C
C       0.0727  0.59061   0.1702     C
C       0.0727  0.90939   0.6702     C
H       0.0957   0.7113   0.1903     H
H       0.0957   0.7887   0.6903     H
H       0.0962   0.5559   0.6096     H
H       0.0962   0.9441   0.1096     H
C       0.0989  0.59356   0.6489     C
C       0.0989  0.90644   0.1489     C
N       0.1296  0.50897   0.2949     N
N       0.1296  0.99103   0.7949     N
N      0.16079  0.68003   0.7358     N
N      0.16079  0.81997   0.2358     N
O       0.1628  0.09095   0.1049     O
O       0.1628  0.40905   0.6049     O
N       0.1694  0.60458   0.2739     N
N       0.1694  0.89542   0.7739     N
C       0.1708  0.71277   0.2481     C
C       0.1708  0.78723   0.7481     C
O      0.18427    0.112   0.6129     O
O      0.18427    0.388   0.1129     O
Cd     0.18677  0.09006  0.85486    Cd
Cd     0.18677  0.40994  0.35486    Cd
C       0.1964  0.62884   0.6798     C
C       0.1964  0.87116   0.1798     C
C       0.1992  0.55358   0.3451     C
C       0.1992  0.94642   0.8451     C
H       0.1997   0.0905    0.365     H
H       0.1997   0.4095    0.865     H
C       0.2273  0.73292   0.7822     C
C       0.2273  0.76708   0.2822     C
C       0.2275  0.66079   0.3012     C
C       0.2275  0.83921   0.8012     C
H       0.2618   0.5506   0.4208     H
H       0.2618   0.9494   0.9208     H
C       0.2661  0.07146   0.1344     C
C       0.2661  0.42854   0.6344     C
H       0.2715   0.6204   0.6662     H
H       0.2715   0.8796   0.1662     H
H       0.2748   0.2482   0.7674     H
H       0.2748   0.2518   0.2674     H
C       0.2815  0.08486   0.3834     C
C       0.2815  0.41514   0.8834     C
C       0.2867  0.09016   0.6317     C
C       0.2867  0.40984   0.1317     C
H       0.3053   0.6101   0.0461     H
H       0.3053   0.8899   0.5461     H
H       0.3058   0.5577   0.9437     H
H       0.3058   0.9423   0.4437     H
N       0.3077  0.18114   0.9081     N
N       0.3077  0.31886   0.4081     N
H       0.3138   0.5436   0.0963     H
H       0.3138   0.9564   0.5963     H
O      0.31733  0.05068  0.04711     O
O      0.31733  0.44932  0.54711     O
C       0.3279  0.23185   0.8415     C
C       0.3279  0.26815   0.3415     C
C       0.3367  0.57113   0.0346     C
C       0.3367  0.92887   0.5346     C
C       0.3379  0.07503   0.2784     C
C       0.3379  0.42497   0.7784     C
O       0.3403  0.06948  0.74421     O
O       0.3403  0.43052  0.24421     O
C       0.3414   0.7291   0.8631     C
C       0.3414   0.7709   0.3631     C
C       0.3415  0.66306   0.3842     C
C       0.3415  0.83694   0.8842     C
C       0.3483  0.08626   0.5163     C
C       0.3483  0.41374   0.0163     C
H        0.379   0.6924   0.8835     H
H        0.379   0.8076   0.3835     H
H       0.3798   0.6281     0.42     H
H       0.3798   0.8719     0.92     H
C       0.3972  0.71796   0.4127     C
C       0.3972  0.78204   0.9127     C
C       0.4047  0.17431   0.0037     C
C       0.4047  0.32569   0.5037     C
H       0.4169   0.1428    0.065     H
H       0.4169   0.3572    0.565     H
C       0.4361  0.24507   0.3988     C
C       0.4361  0.25493   0.8988     C
C       0.4609  0.07006   0.3064     C
C       0.4609  0.42994   0.8064     C
H       0.4703   0.2109    0.372     H
H       0.4703   0.2891    0.872     H
C       0.4706  0.57435   0.0624     C
C       0.4706  0.92565   0.5624     C
C       0.4711  0.08114   0.5414     C
C       0.4711  0.41886   0.0414     C
H       0.4846   0.5823   0.8699     H
H       0.4846   0.9177   0.3699     H
N       0.4847  0.21813    0.003     N
N       0.4847  0.28187    0.503     N
H       0.4982   0.0637   0.2359     H
H       0.4982   0.4363   0.7359     H
H       0.5018   0.5637   0.2641     H
H       0.5018   0.9363   0.7641     H
N       0.5153  0.71813    0.497     N
N       0.5153  0.78187    0.997     N
H       0.5154   0.0823   0.6301     H
H       0.5154   0.4177   0.1301     H
C       0.5289  0.58114   0.9586     C
C       0.5289  0.91886   0.4586     C
C       0.5294  0.07435   0.4376     C
C       0.5294  0.42565   0.9376     C
H       0.5297   0.7109    0.128     H
H       0.5297   0.7891    0.628     H
C       0.5391  0.57006   0.1936     C
C       0.5391  0.92994   0.6936     C
C       0.5639  0.74507   0.1012     C
C       0.5639  0.75493   0.6012     C
H       0.5831   0.6428    0.435     H
H       0.5831   0.8572    0.935     H
C       0.5953  0.67431   0.4963     C
C       0.5953  0.82569   0.9963     C
C       0.6028  0.21796   0.0873     C
C       0.6028  0.28204   0.5873     C
H       0.6202   0.1281     0.08     H
H       0.6202   0.3719     0.58     H
H        0.621   0.1924   0.6165     H
H        0.621   0.3076   0.1165     H
C       0.6517  0.58626   0.9837     C
C       0.6517  0.91374   0.4837     C
C       0.6585  0.16306   0.1158     C
C       0.6585  0.33694   0.6158     C
C       0.6586   0.2291   0.6369     C
C       0.6586   0.2709   0.1369     C
O       0.6597  0.56948  0.75579     O
O       0.6597  0.93052  0.25579     O
C       0.6621  0.57503   0.2216     C
C       0.6621  0.92497   0.7216     C
C       0.6633  0.07113   0.4654     C
C       0.6633  0.42887   0.9654     C
C       0.6721  0.73185   0.6585     C
C       0.6721  0.76815   0.1585     C
O      0.68267  0.55068  0.45289     O
O      0.68267  0.94932  0.95289     O
H       0.6862   0.0436   0.4037     H
H       0.6862   0.4564   0.9037     H
N       0.6923  0.68114   0.5919     N
N       0.6923  0.81886   0.0919     N
H       0.6942   0.0577   0.5563     H
H       0.6942   0.4423   0.0563     H
H       0.6947   0.1101   0.4539     H
H       0.6947   0.3899   0.9539     H
C       0.7133  0.59016   0.8683     C
C       0.7133  0.90984   0.3683     C
C       0.7185  0.58486   0.1166     C
C       0.7185  0.91514   0.6166     C
H       0.7252   0.7482   0.7326     H
H       0.7252   0.7518   0.2326     H
H       0.7285   0.1204   0.8338     H
H       0.7285   0.3796   0.3338     H
C       0.7339  0.57146   0.3656     C
C       0.7339  0.92854   0.8656     C
H       0.7382   0.0506   0.0792     H
H       0.7382   0.4494   0.5792     H
C       0.7725  0.16079   0.1988     C
C       0.7725  0.33921   0.6988     C
C       0.7727  0.23292   0.7178     C
C       0.7727  0.26708   0.2178     C
H       0.8003   0.5905    0.135     H
H       0.8003   0.9095    0.635     H
C       0.8008  0.05358   0.1549     C
C       0.8008  0.44642   0.6549     C
C       0.8036  0.12884   0.8202     C
C       0.8036  0.37116   0.3202     C
Cd     0.81323  0.59006  0.64514    Cd
Cd     0.81323  0.90994  0.14514    Cd
O      0.81573    0.612   0.8871     O
O      0.81573    0.888   0.3871     O
C       0.8292  0.21277   0.2519     C
C       0.8292  0.28723   0.7519     C
N       0.8306  0.10458   0.2261     N
N       0.8306  0.39542   0.7261     N
O       0.8372  0.59095   0.3951     O
O       0.8372  0.90905   0.8951     O
N      0.83921  0.18003   0.7642     N
N      0.83921  0.31997   0.2642     N
N       0.8704  0.00897   0.2051     N
N       0.8704  0.49103   0.7051     N
C       0.9011  0.09356   0.8511     C
C       0.9011  0.40644   0.3511     C
H       0.9038   0.0559   0.8904     H
H       0.9038   0.4441   0.3904     H
H       0.9043   0.2113   0.3097     H
H       0.9043   0.2887   0.8097     H
C       0.9273  0.09061   0.3298     C
C       0.9273  0.40939   0.8298     C
C       0.9493  0.03218   0.3155     C
C       0.9493  0.46782   0.8155     C
C       0.9561  0.17295   0.7641     C
C       0.9561  0.32705   0.2641     C
H       0.9686   0.1164   0.3959     H
H       0.9686   0.3836   0.8959     H
H       0.9905   0.5105   0.1279     H
H       0.9905   0.9895   0.6279     H
N      0.99613  0.12158    0.816     N
N      0.99613  0.37842    0.316     N
H       0.9984   0.7011   0.7686     H
H       0.9984   0.7989   0.2686     H
