data_I
_chemical_name_common  '/home/zhangsd/repos/MofS-CGCNN/ML/data/SSD/clean_cifs/TUTHIA_clean'
_cell_length_a 18.68800
_cell_length_b 15.05200
_cell_length_c 16.25900
_cell_angle_alpha 90.00000
_cell_angle_beta  113.10400
_cell_angle_gamma 90.00000
_space_group_name_H-M_alt      'P 1'


loop_
_space_group_symop_operation_xyz
  'x, y, z' 

loop_
_atom_site_label
_atom_site_fract_x
_atom_site_fract_y
_atom_site_fract_z
_atom_site_type_symbol
C       0.0107    0.362   0.0302     C
C       0.0107    0.638   0.5302     C
H       0.0277   0.3273   0.9941     H
H       0.0277   0.6727   0.4941     H
C       0.0314   0.4678   0.1394     C
C       0.0314   0.5322   0.6394     C
C       0.0462   0.4582   0.3744     C
C       0.0462   0.5418   0.8744     C
C       0.0622   0.4181   0.0926     C
C       0.0622   0.5819   0.5926     C
H       0.0623   0.4914   0.6812     H
H       0.0623   0.5086   0.1812     H
C       0.0644    0.357   0.4791     C
C       0.0644    0.643   0.9791     C
H       0.0658   0.4943   0.3416     H
H       0.0658   0.5057   0.8416     H
N       0.0935   0.4021   0.4303     N
N       0.0935   0.5979   0.9303     N
H       0.0975   0.3193   0.5228     H
H       0.0975   0.6807   0.0228     H
C       0.1451   0.4288    0.104     C
C       0.1451   0.5712    0.604     C
H       0.1493   0.4794   0.0692     H
H       0.1493   0.5206   0.5692     H
N       0.1752   0.3494   0.0756     N
N       0.1752   0.6506   0.5756     N
H       0.1768    0.348   0.0235     H
H       0.1768    0.652   0.5235     H
H       0.1769   0.4408   0.1664     H
H       0.1769   0.5592   0.6664     H
H       0.1827   0.3227   0.2398     H
H       0.1827   0.6773   0.7398     H
O       0.1977   0.2658   0.3884     O
O       0.1977   0.7342   0.8884     O
C       0.2009   0.2741   0.2185     C
C       0.2009   0.2769   0.1321     C
C       0.2009   0.7231   0.6321     C
C       0.2009   0.7259   0.7185     C
O        0.211   0.4748   0.3345     O
O        0.211   0.5252   0.8345     O
Mn     0.22045  0.39075  0.45114    Mn
Mn     0.22045  0.60925  0.95114    Mn
C       0.2251   0.2017   0.1011     C
C       0.2251   0.7983   0.6011     C
C       0.2274   0.2013   0.2714     C
C       0.2274   0.7987   0.7714     C
C       0.2279   0.2007   0.3652     C
C       0.2279   0.7993   0.8652     C
C        0.229   0.4557   0.8819     C
C        0.229   0.5443   0.3819     C
H       0.2298   0.4219   0.7218     H
H       0.2298   0.5781   0.2218     H
O       0.2327   0.4563   0.9612     O
O       0.2327   0.5437   0.4612     O
O       0.2441   0.3663   0.5868     O
O       0.2441   0.6337   0.0868     O
C       0.2476   0.3726   0.7586     C
C       0.2476   0.6274   0.2586     C
C       0.2493   0.3729   0.8455     C
C       0.2493   0.6271   0.3455     C
C       0.2507   0.1271   0.1545     C
C       0.2507   0.8729   0.6545     C
C       0.2524   0.1274   0.2414     C
C       0.2524   0.8726   0.7414     C
O       0.2559   0.1337   0.4132     O
O       0.2559   0.8663   0.9132     O
O       0.2673   0.0437   0.0388     O
O       0.2673   0.9563   0.5388     O
H       0.2702   0.0781   0.2782     H
H       0.2702   0.9219   0.7782     H
C        0.271   0.0443   0.1181     C
C        0.271   0.9557   0.6181     C
C       0.2721   0.2993   0.6348     C
C       0.2721   0.7007   0.1348     C
C       0.2726   0.2987   0.7286     C
C       0.2726   0.7013   0.2286     C
C       0.2749   0.2983   0.8989     C
C       0.2749   0.7017   0.3989     C
Mn     0.27955  0.10925  0.54886    Mn
Mn     0.27955  0.89075  0.04886    Mn
O        0.289   0.0252   0.6655     O
O        0.289   0.9748   0.1655     O
C       0.2991   0.2231   0.8679     C
C       0.2991   0.2259   0.7815     C
C       0.2991   0.7741   0.2815     C
C       0.2991   0.7769   0.3679     C
O       0.3023   0.2342   0.6116     O
O       0.3023   0.7658   0.1116     O
H       0.3173   0.1773   0.7602     H
H       0.3173   0.8227   0.2602     H
H       0.3231   0.0592   0.8336     H
H       0.3231   0.9408   0.3336     H
H       0.3232    0.152   0.9765     H
H       0.3232    0.848   0.4765     H
N       0.3248   0.1506   0.9244     N
N       0.3248   0.8494   0.4244     N
H       0.3507   0.0206   0.9308     H
H       0.3507   0.9794   0.4308     H
C       0.3549   0.0712    0.896     C
C       0.3549   0.9288    0.396     C
H       0.4025   0.1807   0.4772     H
H       0.4025   0.8193   0.9772     H
N       0.4065   0.0979   0.5697     N
N       0.4065   0.9021   0.0697     N
H       0.4342   0.0057   0.6584     H
H       0.4342   0.9943   0.1584     H
C       0.4356    0.143   0.5209     C
C       0.4356    0.857   0.0209     C
H       0.4377   0.0086   0.3188     H
H       0.4377   0.9914   0.8188     H
C       0.4378   0.0819   0.9074     C
C       0.4378   0.9181   0.4074     C
C       0.4538   0.0418   0.6256     C
C       0.4538   0.9582   0.1256     C
C       0.4686   0.0322   0.8606     C
C       0.4686   0.9678   0.3606     C
H       0.4723   0.1727   0.0059     H
H       0.4723   0.8273   0.5059     H
C       0.4893    0.138   0.9698     C
C       0.4893    0.862   0.4698     C
C       0.5107    0.138   0.5302     C
C       0.5107    0.862   0.0302     C
H       0.5277   0.1727   0.4941     H
H       0.5277   0.8273   0.9941     H
C       0.5314   0.0322   0.6394     C
C       0.5314   0.9678   0.1394     C
C       0.5462   0.0418   0.8744     C
C       0.5462   0.9582   0.3744     C
C       0.5622   0.0819   0.5926     C
C       0.5622   0.9181   0.0926     C
H       0.5623   0.0086   0.1812     H
H       0.5623   0.9914   0.6812     H
C       0.5644    0.143   0.9791     C
C       0.5644    0.857   0.4791     C
H       0.5658   0.0057   0.8416     H
H       0.5658   0.9943   0.3416     H
N       0.5935   0.0979   0.9303     N
N       0.5935   0.9021   0.4303     N
H       0.5975   0.1807   0.0228     H
H       0.5975   0.8193   0.5228     H
C       0.6451   0.0712    0.604     C
C       0.6451   0.9288    0.104     C
H       0.6493   0.0206   0.5692     H
H       0.6493   0.9794   0.0692     H
N       0.6752   0.1506   0.5756     N
N       0.6752   0.8494   0.0756     N
H       0.6768    0.152   0.5235     H
H       0.6768    0.848   0.0235     H
H       0.6769   0.0592   0.6664     H
H       0.6769   0.9408   0.1664     H
H       0.6827   0.1773   0.7398     H
H       0.6827   0.8227   0.2398     H
O       0.6977   0.2342   0.8884     O
O       0.6977   0.7658   0.3884     O
C       0.7009   0.2231   0.6321     C
C       0.7009   0.2259   0.7185     C
C       0.7009   0.7741   0.2185     C
C       0.7009   0.7769   0.1321     C
O        0.711   0.0252   0.8345     O
O        0.711   0.9748   0.3345     O
Mn     0.72045  0.10925  0.95114    Mn
Mn     0.72045  0.89075  0.45114    Mn
C       0.7251   0.2983   0.6011     C
C       0.7251   0.7017   0.1011     C
C       0.7274   0.2987   0.7714     C
C       0.7274   0.7013   0.2714     C
C       0.7279   0.2993   0.8652     C
C       0.7279   0.7007   0.3652     C
C        0.729   0.0443   0.3819     C
C        0.729   0.9557   0.8819     C
H       0.7298   0.0781   0.2218     H
H       0.7298   0.9219   0.7218     H
O       0.7327   0.0437   0.4612     O
O       0.7327   0.9563   0.9612     O
O       0.7441   0.1337   0.0868     O
O       0.7441   0.8663   0.5868     O
C       0.7476   0.1274   0.2586     C
C       0.7476   0.8726   0.7586     C
C       0.7493   0.1271   0.3455     C
C       0.7493   0.8729   0.8455     C
C       0.7507   0.3729   0.6545     C
C       0.7507   0.6271   0.1545     C
C       0.7524   0.3726   0.7414     C
C       0.7524   0.6274   0.2414     C
O       0.7559   0.3663   0.9132     O
O       0.7559   0.6337   0.4132     O
O       0.7673   0.4563   0.5388     O
O       0.7673   0.5437   0.0388     O
H       0.7702   0.4219   0.7782     H
H       0.7702   0.5781   0.2782     H
C        0.771   0.4557   0.6181     C
C        0.771   0.5443   0.1181     C
C       0.7721   0.2007   0.1348     C
C       0.7721   0.7993   0.6348     C
C       0.7726   0.2013   0.2286     C
C       0.7726   0.7987   0.7286     C
C       0.7749   0.2017   0.3989     C
C       0.7749   0.7983   0.8989     C
Mn     0.77955  0.39075  0.04886    Mn
Mn     0.77955  0.60925  0.54886    Mn
O        0.789   0.4748   0.1655     O
O        0.789   0.5252   0.6655     O
C       0.7991   0.2741   0.2815     C
C       0.7991   0.2769   0.3679     C
C       0.7991   0.7231   0.8679     C
C       0.7991   0.7259   0.7815     C
O       0.8023   0.2658   0.1116     O
O       0.8023   0.7342   0.6116     O
H       0.8173   0.3227   0.2602     H
H       0.8173   0.6773   0.7602     H
H       0.8231   0.4408   0.3336     H
H       0.8231   0.5592   0.8336     H
H       0.8232    0.348   0.4765     H
H       0.8232    0.652   0.9765     H
N       0.8248   0.3494   0.4244     N
N       0.8248   0.6506   0.9244     N
H       0.8507   0.4794   0.4308     H
H       0.8507   0.5206   0.9308     H
C       0.8549   0.4288    0.396     C
C       0.8549   0.5712    0.896     C
H       0.9025   0.3193   0.9772     H
H       0.9025   0.6807   0.4772     H
N       0.9065   0.4021   0.0697     N
N       0.9065   0.5979   0.5697     N
H       0.9342   0.4943   0.1584     H
H       0.9342   0.5057   0.6584     H
C       0.9356    0.357   0.0209     C
C       0.9356    0.643   0.5209     C
H       0.9377   0.4914   0.8188     H
H       0.9377   0.5086   0.3188     H
C       0.9378   0.4181   0.4074     C
C       0.9378   0.5819   0.9074     C
C       0.9538   0.4582   0.1256     C
C       0.9538   0.5418   0.6256     C
C       0.9686   0.4678   0.3606     C
C       0.9686   0.5322   0.8606     C
H       0.9723   0.3273   0.5059     H
H       0.9723   0.6727   0.0059     H
C       0.9893    0.362   0.4698     C
C       0.9893    0.638   0.9698     C
