data_I
_chemical_name_common  '/home/zhangsd/repos/MofS-CGCNN/ML/data/SSD/clean_cifs/TUVDUJ_clean'
_cell_length_a 15.22900
_cell_length_b 15.22900
_cell_length_c 15.85200
_cell_angle_alpha 90.00000
_cell_angle_beta  90.00000
_cell_angle_gamma 120.00000
_space_group_name_H-M_alt      'P 1'


loop_
_space_group_symop_operation_xyz
  'x, y, z' 

loop_
_atom_site_label
_atom_site_fract_x
_atom_site_fract_y
_atom_site_fract_z
_atom_site_type_symbol
Mn         0.0      0.5      0.0    Mn
Mn         0.0      0.5      0.5    Mn
H       0.0583   0.2914   0.3433     H
H       0.0583   0.2914   0.6567     H
H       0.0583   0.7669   0.1567     H
H       0.0583   0.7669   0.8433     H
O       0.0659   0.4507   0.4068     O
O       0.0659   0.4507   0.5932     O
O       0.0659   0.6152   0.0932     O
O       0.0659   0.6152   0.9068     O
H       0.1011   0.2022     0.25     H
H       0.1011   0.2022     0.75     H
H       0.1011   0.8989     0.25     H
H       0.1011   0.8989     0.75     H
C       0.1108   0.3257   0.3049     C
C       0.1108   0.3257   0.6951     C
C       0.1108   0.7851   0.1951     C
C       0.1108   0.7851   0.8049     C
C      0.13635   0.2727     0.25     C
C      0.13635   0.2727     0.75     C
C      0.13635  0.86365     0.25     C
C      0.13635  0.86365     0.75     C
C       0.1419   0.4951   0.3591     C
C       0.1419   0.4951   0.6409     C
C       0.1419   0.6468   0.1409     C
C       0.1419   0.6468   0.8591     C
C       0.1625   0.4288   0.3029     C
C       0.1625   0.4288   0.6971     C
C       0.1625   0.7337   0.1971     C
C       0.1625   0.7337   0.8029     C
O       0.2013   0.5892  0.35467     O
O       0.2013   0.5892  0.64533     O
O       0.2013   0.6121  0.14533     O
O       0.2013   0.6121  0.85467     O
H       0.2022   0.1011     0.25     H
H       0.2022   0.1011     0.75     H
C       0.2149   0.3257   0.1951     C
C       0.2149   0.3257   0.8049     C
C       0.2149   0.8892   0.3049     C
C       0.2149   0.8892   0.6951     C
H       0.2331   0.2914   0.1567     H
H       0.2331   0.2914   0.8433     H
H       0.2331   0.9417   0.3433     H
H       0.2331   0.9417   0.6567     H
N       0.2405    0.481     0.25     N
N       0.2405    0.481     0.75     N
N       0.2405   0.7595     0.25     N
N       0.2405   0.7595     0.75     N
C       0.2663   0.4288   0.1971     C
C       0.2663   0.4288   0.8029     C
C       0.2663   0.8375   0.3029     C
C       0.2663   0.8375   0.6971     C
C       0.2727  0.13635     0.25     C
C       0.2727  0.13635     0.75     C
H       0.2914   0.0583   0.1567     H
H       0.2914   0.0583   0.8433     H
H       0.2914   0.2331   0.3433     H
H       0.2914   0.2331   0.6567     H
C       0.3257   0.1108   0.1951     C
C       0.3257   0.1108   0.8049     C
C       0.3257   0.2149   0.3049     C
C       0.3257   0.2149   0.6951     C
Er     0.33333  0.66666     0.25    Er
Er     0.33333  0.66666     0.75    Er
C       0.3532   0.4951   0.1409     C
C       0.3532   0.4951   0.8591     C
C       0.3532   0.8581   0.3591     C
C       0.3532   0.8581   0.6409     C
O       0.3848   0.4507   0.0932     O
O       0.3848   0.4507   0.9068     O
O       0.3848   0.9341   0.4068     O
O       0.3848   0.9341   0.5932     O
O       0.3879   0.5892  0.14533     O
O       0.3879   0.5892  0.85467     O
O       0.3879   0.7987  0.35467     O
O       0.3879   0.7987  0.64533     O
O       0.4108   0.6121  0.35467     O
O       0.4108   0.6121  0.64533     O
O       0.4108   0.7987  0.14533     O
O       0.4108   0.7987  0.85467     O
C       0.4288   0.1625   0.1971     C
C       0.4288   0.1625   0.8029     C
C       0.4288   0.2663   0.3029     C
C       0.4288   0.2663   0.6971     C
O       0.4507   0.0659   0.0932     O
O       0.4507   0.0659   0.9068     O
O       0.4507   0.3848   0.4068     O
O       0.4507   0.3848   0.5932     O
N        0.481   0.2405     0.25     N
N        0.481   0.2405     0.75     N
C       0.4951   0.1419   0.1409     C
C       0.4951   0.1419   0.8591     C
C       0.4951   0.3532   0.3591     C
C       0.4951   0.3532   0.6409     C
Mn         0.5     -0.0      0.0    Mn
Mn         0.5     -0.0      0.5    Mn
Mn         0.5      0.5      0.0    Mn
Mn         0.5      0.5      0.5    Mn
C       0.5049   0.6468   0.3591     C
C       0.5049   0.6468   0.6409     C
C       0.5049   0.8581   0.1409     C
C       0.5049   0.8581   0.8591     C
N        0.519   0.7595     0.25     N
N        0.519   0.7595     0.75     N
O       0.5493   0.6152   0.4068     O
O       0.5493   0.6152   0.5932     O
O       0.5493   0.9341   0.0932     O
O       0.5493   0.9341   0.9068     O
C       0.5712   0.7337   0.3029     C
C       0.5712   0.7337   0.6971     C
C       0.5712   0.8375   0.1971     C
C       0.5712   0.8375   0.8029     C
O       0.5892   0.2013  0.14533     O
O       0.5892   0.2013  0.85467     O
O       0.5892   0.3879  0.35467     O
O       0.5892   0.3879  0.64533     O
O       0.6121   0.2013  0.35467     O
O       0.6121   0.2013  0.64533     O
O       0.6121   0.4108  0.14533     O
O       0.6121   0.4108  0.85467     O
O       0.6152   0.0659   0.4068     O
O       0.6152   0.0659   0.5932     O
O       0.6152   0.5493   0.0932     O
O       0.6152   0.5493   0.9068     O
C       0.6468   0.1419   0.3591     C
C       0.6468   0.1419   0.6409     C
C       0.6468   0.5049   0.1409     C
C       0.6468   0.5049   0.8591     C
Er     0.66667  0.33334     0.25    Er
Er     0.66667  0.33334     0.75    Er
C       0.6743   0.7851   0.3049     C
C       0.6743   0.7851   0.6951     C
C       0.6743   0.8892   0.1951     C
C       0.6743   0.8892   0.8049     C
H       0.7086   0.7669   0.3433     H
H       0.7086   0.7669   0.6567     H
H       0.7086   0.9417   0.1567     H
H       0.7086   0.9417   0.8433     H
C       0.7273  0.86365     0.25     C
C       0.7273  0.86365     0.75     C
C       0.7337   0.1625   0.3029     C
C       0.7337   0.1625   0.6971     C
C       0.7337   0.5712   0.1971     C
C       0.7337   0.5712   0.8029     C
N       0.7595   0.2405     0.25     N
N       0.7595   0.2405     0.75     N
N       0.7595    0.519     0.25     N
N       0.7595    0.519     0.75     N
H       0.7669   0.0583   0.3433     H
H       0.7669   0.0583   0.6567     H
H       0.7669   0.7086   0.1567     H
H       0.7669   0.7086   0.8433     H
C       0.7851   0.1108   0.3049     C
C       0.7851   0.1108   0.6951     C
C       0.7851   0.6743   0.1951     C
C       0.7851   0.6743   0.8049     C
H       0.7978   0.8989     0.25     H
H       0.7978   0.8989     0.75     H
O       0.7987   0.3879  0.14533     O
O       0.7987   0.3879  0.85467     O
O       0.7987   0.4108  0.35467     O
O       0.7987   0.4108  0.64533     O
C       0.8375   0.2663   0.1971     C
C       0.8375   0.2663   0.8029     C
C       0.8375   0.5712   0.3029     C
C       0.8375   0.5712   0.6971     C
C       0.8581   0.3532   0.1409     C
C       0.8581   0.3532   0.8591     C
C       0.8581   0.5049   0.3591     C
C       0.8581   0.5049   0.6409     C
C      0.86365  0.13635     0.25     C
C      0.86365  0.13635     0.75     C
C      0.86365   0.7273     0.25     C
C      0.86365   0.7273     0.75     C
C       0.8892   0.2149   0.1951     C
C       0.8892   0.2149   0.8049     C
C       0.8892   0.6743   0.3049     C
C       0.8892   0.6743   0.6951     C
H       0.8989   0.1011     0.25     H
H       0.8989   0.1011     0.75     H
H       0.8989   0.7978     0.25     H
H       0.8989   0.7978     0.75     H
O       0.9341   0.3848   0.0932     O
O       0.9341   0.3848   0.9068     O
O       0.9341   0.5493   0.4068     O
O       0.9341   0.5493   0.5932     O
H       0.9417   0.2331   0.1567     H
H       0.9417   0.2331   0.8433     H
H       0.9417   0.7086   0.3433     H
H       0.9417   0.7086   0.6567     H
