data_I
_chemical_name_common  '/home/zhangsd/repos/MofS-CGCNN/ML/data/SSD/clean_cifs/UBULIO_SL'
_cell_length_a 41.45900
_cell_length_b 41.45900
_cell_length_c 17.56100
_cell_angle_alpha 90.00000
_cell_angle_beta  90.00000
_cell_angle_gamma 120.00000
_space_group_name_H-M_alt      'P 1'


loop_
_space_group_symop_operation_xyz
  'x, y, z' 

loop_
_atom_site_label
_atom_site_fract_x
_atom_site_fract_y
_atom_site_fract_z
_atom_site_type_symbol
O       0.0045    0.617   0.1602     O
C      0.01017  0.47479   0.2547     C
C      0.01081  0.47125   0.7464     C
O      0.01219   0.3651  0.94712     O
C       0.0128  0.53022  0.30415     C
C       0.0128   0.5896   0.1788     C
C      0.01344  0.52668  0.69691     C
O      0.01426   0.5817   0.6508     O
N       0.0153   0.4408   0.7175     N
O      0.01708  0.37283   0.0767     O
H       0.0172   0.4567   0.2575     H
C      0.02329  0.50324  0.30832     C
C      0.02393   0.4997  0.69274     C
O      0.02465  0.58794  0.35559     O
C      0.02578   0.5591   0.6414     C
C      0.02776   0.3709   0.0108     C
C       0.0283  0.56017  0.36501     C
Zn     0.02882  0.62833  0.59764    Zn
Zn     0.02897  0.62793  0.41815    Zn
C       0.0329   0.3964   0.6851     C
H       0.0333   0.3809   0.7262     H
H       0.0391   0.5042    0.347     H
H      0.04329  0.50089  0.64534     H
O       0.0436   0.5936   0.1679     O
O      0.04717  0.55919  0.41993     O
H       0.0479   0.3957   0.6435     H
C       0.0485    0.437    0.713     C
O      0.04898  0.55904  0.59549     O
H       0.0492   0.4274   0.8298     H
O      0.05683  0.67156   0.3558     O
H        0.057   0.6942   0.7976     H
O      0.05776  0.63162  0.50952     O
H       0.0591   0.3452    0.906     H
O      0.06104  0.66839   0.6675     O
H       0.0627    0.698   0.2289     H
H       0.0628   0.4889   0.8304     H
C       0.0645  0.36956  0.00857     C
H       0.0659   0.4545   0.6755     H
C       0.0677   0.4442   0.7928     C
Zn     0.06887  0.59144  0.50592    Zn
C      0.07497  0.35547  0.94752     C
H       0.0812   0.3944   0.1115     H
C      0.08205  0.71237  0.79871     C
H       0.0823   0.7297   0.9065     H
C       0.0831   0.4845   0.8203     C
C      0.08819  0.38493  0.07063     C
C      0.08832  0.71397  0.22515     C
H       0.0886   0.7282   0.1149     H
H       0.0905     0.41   0.7813     H
C      0.09084  0.69591   0.3537     C
C      0.09207  0.69669  0.65755     C
H       0.0972   0.4884   0.8661     H
C      0.09722  0.73365  0.86396     C
H       0.0989   0.5015   0.7817     H
C       0.1001    0.436   0.7909     C
C      0.10382  0.73204  0.15683     C
Zn     0.10421  0.67888  0.50904    Zn
C      0.10433  0.71831  0.73514     C
C      0.10912  0.35675  0.94853     C
O      0.11046  0.70723  0.59661     O
C      0.11105  0.71973  0.28784     C
H       0.1128   0.4426    0.839     H
O      0.11414  0.70394  0.40645     O
H       0.1161   0.3473   0.9077     H
H       0.1172   0.4504   0.7511     H
H       0.1185   0.7366    0.015     H
C      0.12233  0.38621  0.07164     C
O      0.12246  0.60905   0.4978     O
C       0.1328  0.37212  0.01059     C
C      0.13466  0.76086  0.86566     C
H       0.1382   0.3965   0.1132     H
C      0.13987  0.75992  0.01323     C
C      0.14177  0.74553  0.73683     C
C      0.14205  0.75586   0.1512     C
O      0.14599  0.66959   0.4953     O
C      0.14788  0.64081   0.5184     C
C      0.14928  0.74356  0.28222     C
C      0.15107  0.77931  0.94482     C
H       0.1567   0.7495   0.6943     H
C      0.15693  0.76681  0.80209     C
C       0.1606  0.77542  0.07897     C
H       0.1645   0.7474   0.3242     H
C      0.16478  0.76162  0.21389     C
C      0.17029    0.374  0.00789     C
H       0.1728   0.3633   0.8964     H
H       0.1735   0.5968   0.4595     H
H       0.1793   0.3857   0.1203     H
H        0.182    0.785   0.8032     H
C      0.18299  0.81421  0.94215     C
C      0.18579  0.36878  0.94215     C
C       0.1873  0.64656   0.5068     C
C      0.18969  0.38221   0.0763     C
H       0.1904   0.7776   0.2101     H
H       0.1905   0.8272   0.8964     H
C      0.19252  0.81031   0.0763     C
C      0.19323  0.61843  0.47979     C
C      0.20371  0.82971  0.00789     C
H       0.2064   0.8207   0.1203     H
H       0.2128   0.6977   0.5551     H
H        0.215    0.397   0.8032     H
C      0.21676  0.67887    0.537     C
C      0.22069  0.37176  0.94482     C
H       0.2224   0.4128   0.2101     H
C      0.22458  0.38518  0.07897     C
C      0.22862   0.6226    0.483     C
H       0.2312   0.8839   0.9077     H
H       0.2326   0.6038    0.465     H
C      0.23319  0.39012  0.80209     C
C      0.23838  0.40316  0.21389     C
C      0.23914   0.3738  0.86566     C
C      0.23932   0.8672  0.01059     C
C      0.24008  0.37995  0.01323     C
C      0.24414  0.38619   0.1512     C
C      0.24763  0.89088  0.94853     C
H       0.2505   0.4072   0.6943     H
C      0.25215  0.68304   0.5403     C
H       0.2526   0.4171   0.3242     H
C      0.25447  0.39624  0.73683     C
C      0.25644  0.40572  0.28222     C
C      0.25808  0.65491   0.5133     C
H       0.2583   0.8618   0.1132     H
H       0.2634   0.3819    0.015     H
C      0.26388  0.87767  0.07164     C
C      0.26635  0.36357  0.86396     C
C      0.26796  0.37178  0.15683     C
H       0.2703   0.3526   0.9065     H
H       0.2718   0.3604   0.1149     H
H       0.2719   0.7047   0.5605     H
C      0.28027  0.39132  0.28784     C
C       0.2805  0.92503  0.94752     C
C      0.28169  0.38602  0.73514     C
H       0.2823   0.6075   0.5067     H
C      0.28603  0.37435  0.22515     C
H       0.2861   0.9409    0.906     H
C      0.28763  0.36968  0.79871     C
O      0.29277  0.40323  0.59661     O
H       0.2953   0.5672   0.5605     H
O      0.29606   0.4102  0.40645     O
C      0.29674  0.91181  0.07063     C
C       0.2976  0.66225   0.5048     C
H        0.302   0.3647   0.2289     H
H       0.3023   0.5151   0.5551     H
C      0.30298  0.63133   0.5056     C
C      0.30331  0.39538  0.65755     C
C      0.30409  0.39493   0.3537     C
C      0.30506   0.9355  0.00857     C
H       0.3058   0.3628   0.7976     H
H       0.3132   0.9188   0.1115     H
C      0.31696  0.56911   0.5403     C
H       0.3195   0.9095   0.7813     H
Zn     0.32112  0.42533  0.50904    Zn
C      0.32113  0.53789    0.537     C
H       0.3252   0.7177   0.5067     H
C      0.32835  0.69702   0.5056     C
O      0.32844  0.38527   0.3558     O
H       0.3298   0.8872    0.839     H
O      0.33041   0.4764   0.4953     O
O      0.33161  0.39265   0.6675     O
H       0.3332   0.8828   0.7511     H
C       0.3359   0.8999   0.7909     C
C      0.33775  0.63535   0.5048     C
C      0.34314  0.97224   0.0108     C
C      0.34509  0.60317   0.5133     C
H       0.3452   0.2861    0.406     H
H       0.3473   0.2312   0.4077     H
H       0.3476   0.9667   0.7262     H
H       0.3478   0.9521   0.6435     H
H       0.3526   0.0823   0.4065     H
O      0.35291  0.98781  0.94712     O
C      0.35344  0.54074   0.5068     C
C      0.35547   0.2805  0.44752     C
O      0.35575  0.98292   0.0767     O
C      0.35675  0.24763  0.44853     C
C      0.35919  0.50707   0.5184     C
H       0.3604   0.0886   0.6149     H
H       0.3628    0.057   0.2976     H
H       0.3633   0.1905   0.3964     H
C       0.3635   0.9671   0.6851     C
C      0.36357  0.09722  0.36396     C
C      0.36465   0.7024   0.5048     C
H       0.3647   0.0627   0.7289     H
O       0.3651  0.35291  0.44712     O
O      0.36838  0.42614  0.50952     O
C      0.36867  0.67165   0.5056     C
C      0.36878  0.18299  0.44215     C
C      0.36956  0.30506  0.50857     C
C      0.36968  0.08205  0.29871     C
C       0.3709  0.34314   0.5108     C
H       0.3712   0.7674    0.465     H
Zn     0.37167  0.40049  0.59764    Zn
C      0.37176  0.15107  0.44482     C
C      0.37178  0.10382  0.65683     C
Zn     0.37207  0.40104  0.41815    Zn
C      0.37212  0.23932  0.51059     C
O      0.37283  0.35575   0.5767     O
C       0.3738  0.13466  0.36566     C
C        0.374  0.20371  0.50789     C
C      0.37435  0.08832  0.72515     C
C       0.3765   0.9323   0.7928     C
C       0.3774  0.60602    0.483     C
H       0.3782   0.9508   0.8298     H
C      0.37995  0.13987  0.51323     C
H       0.3809   0.3476   0.2262     H
C      0.38157   0.5748  0.47979     C
H       0.3819   0.1185    0.515     H
C      0.38221  0.19252   0.5763     C
O        0.383   0.3875   0.1602     O
C      0.38493  0.29674  0.57063     C
C      0.38518   0.1606  0.57897     C
O      0.38527  0.05683   0.8558     O
H       0.3857   0.2064   0.6203     H
C      0.38602  0.10433  0.23514     C
C      0.38619  0.14205   0.6512     C
C      0.38621  0.26388  0.57164     C
O       0.3875   0.0045   0.6602     O
C       0.3885   0.9515    0.713     C
H       0.3886   0.9341   0.6755     H
C      0.39012  0.15693  0.30209     C
O      0.39095  0.51341   0.4978     O
H       0.3912   0.9028   0.8661     H
C      0.39132  0.11105  0.78784     C
H       0.3925   0.6748   0.5067     H
O      0.39265  0.06104   0.1675     O
C      0.39398  0.77138    0.483     C
H       0.3944   0.3132   0.6115     H
C      0.39493  0.09084   0.8537     C
C      0.39538  0.09207  0.15755     C
H       0.3957   0.3478   0.1435     H
H       0.3962   0.6288    0.465     H
C      0.39624  0.14177  0.23683     C
C       0.3964   0.3635   0.1851     C
H       0.3965   0.2583   0.6132     H
C      0.39683  0.74192   0.5133     C
H        0.397    0.182   0.3032     H
Zn     0.40049  0.02882  0.09764    Zn
Zn     0.40104  0.02897  0.91815    Zn
C       0.4014   0.9169   0.8203     C
H       0.4026   0.9011   0.7817     H
C      0.40316  0.16478  0.71389     C
H       0.4032   0.5767   0.4595     H
O      0.40323  0.11046  0.09661     O
C      0.40572  0.14928  0.78222     C
O       0.4064     0.45   0.1679     O
H       0.4072   0.1567   0.1943     H
Zn     0.40856  0.47743  0.50592    Zn
H         0.41   0.3195   0.2813     H
O       0.4102  0.11414  0.90645     O
C       0.4104   0.4232   0.1788     C
O      0.41206  0.43671  0.35559     O
H       0.4128   0.1904   0.7101     H
H       0.4171   0.1645   0.8242     H
O       0.4183  0.43256   0.6508     O
C       0.4232   0.0128   0.6788     C
H       0.4233   0.8265   0.4595     H
C       0.4252  0.80677  0.47979     C
Zn     0.42533  0.10421  0.00904    Zn
N       0.4255   0.9847   0.7175     N
H       0.4261   0.9372   0.8304     H
O      0.42614  0.05776  0.00952     O
H       0.4274   0.3782   0.3298     H
C      0.43089  0.74785   0.5403     C
O      0.43256  0.01426   0.1508     O
H       0.4328   0.7281   0.5605     H
C        0.436   0.3359   0.2909     C
O      0.43671  0.02465  0.85559     O
C        0.437   0.3885    0.213     C
H       0.4395   0.9828   0.2575     H
C      0.43983  0.46813  0.36501     C
N       0.4408   0.4255   0.2175     N
O      0.44081  0.48798  0.41993     O
C       0.4409  0.46668   0.6414     C
O      0.44096  0.48994  0.59549     O
H       0.4426   0.3298    0.339     H
C       0.4442   0.3765   0.2928     C
O         0.45   0.0436   0.6679     O
H       0.4504   0.3332   0.2511     H
H       0.4545   0.3886   0.1755     H
H       0.4567   0.4395   0.7575     H
H      0.45761  0.95671  0.64534     H
C      0.45926   0.8127   0.5068     C
C      0.46044  0.98919   0.7464     C
C      0.46211  0.78324    0.537     C
C      0.46462  0.98983   0.2547     C
H       0.4651   0.9609    0.347     H
C      0.46668  0.02578   0.1414     C
C      0.46813   0.0283  0.86501     C
C      0.46978  0.48258  0.30415     C
C      0.47125  0.46044   0.2464     C
C      0.47332  0.48676  0.69691     C
C      0.47479  0.46462   0.7547     C
C      0.47577  0.97607  0.69274     C
O       0.4764  0.14599   0.9953     O
Zn     0.47743  0.06887  0.00592    Zn
C      0.47995  0.97671  0.30832     C
C      0.48258   0.0128  0.80415     C
C       0.4845   0.4014   0.3203     C
H       0.4849   0.7872   0.5551     H
O      0.48659  0.87754   0.4978     O
C      0.48676  0.01344  0.19691     C
O      0.48798  0.04717  0.91993     O
H       0.4884   0.3912   0.3661     H
H       0.4889   0.4261   0.3304     H
O      0.48994  0.04898  0.09549     O
C      0.49293  0.85212   0.5184     C
H       0.4958   0.5349    0.347     H
C      0.49676  0.52005  0.30832     C
H       0.4985   0.5974   0.7817     H
H      0.49911  0.54239  0.64534     H
C       0.4997  0.47577  0.19274     C
C       0.5003  0.52423  0.69274     C
H      0.50089  0.45761  0.14534     H
H       0.5015   0.4026   0.2817     H
C      0.50324  0.47995  0.80832     C
H       0.5042   0.4651    0.847     H
C      0.50707  0.14788   0.0184     C
O      0.51006  0.95102  0.59549     O
H       0.5111   0.5739   0.8304     H
H       0.5116   0.6088   0.8661     H
O      0.51202  0.95283  0.41993     O
C      0.51324  0.98656  0.69691     C
O      0.51341  0.12246   0.9978     O
H       0.5151   0.2128   0.0551     H
C       0.5155   0.5986   0.8203     C
C      0.51742   0.9872  0.30415     C
C      0.52005  0.02329  0.80832     C
Zn     0.52257  0.93113  0.50592    Zn
O       0.5236  0.85401   0.4953     O
C      0.52423  0.02393  0.19274     C
C      0.52521  0.53538   0.2547     C
C      0.52668  0.51324  0.19691     C
C      0.52875  0.53956   0.7464     C
C      0.53022  0.51742  0.80415     C
C      0.53187   0.9717  0.36501     C
C      0.53332  0.97422   0.6414     C
H       0.5349   0.0391    0.847     H
C      0.53538  0.01017   0.7547     C
C      0.53789  0.21676    0.037     C
C      0.53956  0.01081   0.2464     C
C      0.54074   0.1873   0.0068     C
H      0.54239  0.04329  0.14534     H
H       0.5433   0.5605   0.2575     H
H       0.5455   0.6114   0.6755     H
H       0.5496   0.6668   0.7511     H
O         0.55   0.9564   0.1679     O
C       0.5558   0.6235   0.7928     C
H       0.5574   0.6702    0.839     H
O      0.55904  0.51006  0.09549     O
C       0.5591  0.53332   0.1414     C
O      0.55919  0.51202  0.91993     O
N       0.5592   0.5745   0.7175     N
C      0.56017  0.53187  0.86501     C
H       0.5605   0.0172   0.7575     H
C        0.563   0.6115    0.713     C
O      0.56329  0.97535  0.35559     O
C        0.564   0.6641   0.7909     C
H       0.5672   0.2719   0.0605     H
O      0.56744  0.98574   0.6508     O
C      0.56911  0.25215   0.0403     C
H       0.5726   0.6218   0.8298     H
O      0.57386  0.94224  0.50952     O
H       0.5739   0.0628   0.3304     H
N       0.5745   0.0153   0.2175     N
Zn     0.57467  0.89579  0.50904    Zn
C       0.5748  0.19323  0.97979     C
H       0.5767   0.1735   0.9595     H
C       0.5768   0.9872   0.1788     C
O       0.5817  0.56744   0.1508     O
H       0.5829   0.8355   0.3242     H
H       0.5872   0.8096   0.2101     H
O      0.58794  0.56329  0.85559     O
C       0.5896   0.5768   0.6788     C
O       0.5898  0.88586  0.40645     O
H         0.59   0.6805   0.7813     H
Zn     0.59144  0.52257  0.00592    Zn
H       0.5928   0.8433   0.6943     H
O       0.5936     0.55   0.6679     O
C      0.59428  0.85072  0.28222     C
O      0.59677  0.88954  0.59661     O
H       0.5968   0.4233   0.9595     H
C      0.59684  0.83522  0.21389     C
H       0.5974   0.0989   0.2817     H
C       0.5986   0.0831   0.3203     C
Zn     0.59896  0.97103  0.41815    Zn
Zn     0.59951  0.97118  0.59764    Zn
H        0.603    0.818   0.8032     H
C      0.60317  0.25808   0.0133     C
H       0.6035   0.7417   0.1132     H
C       0.6036   0.6365   0.6851     C
C      0.60376  0.85823  0.73683     C
H       0.6038   0.3712    0.965     H
H       0.6043   0.6522   0.6435     H
C      0.60462  0.90793  0.65755     C
C      0.60507  0.90916   0.3537     C
H       0.6056   0.6868   0.1115     H
C      0.60602  0.22862    0.983     C
O      0.60735  0.93896   0.6675     O
H       0.6075   0.3252   0.0067     H
C      0.60868  0.88895  0.28784     C
H       0.6088   0.0972   0.3661     H
O      0.60905  0.48659   0.9978     O
C      0.60988  0.84307  0.80209     C
H       0.6114   0.0659   0.1755     H
C       0.6115   0.0485    0.213     C
O       0.6125   0.9955   0.1602     O
C      0.61379  0.73612  0.07164     C
C      0.61381  0.85795   0.1512     C
C      0.61398  0.89567  0.73514     C
H       0.6143   0.7936   0.1203     H
O      0.61473  0.94317   0.3558     O
C      0.61482   0.8394  0.07897     C
C      0.61507  0.70326  0.07063     C
O        0.617   0.6125   0.6602     O
C      0.61779  0.80748   0.0763     C
H       0.6181   0.8815    0.015     H
C      0.61843   0.4252  0.97979     C
H       0.6191   0.6524   0.7262     H
C      0.62005  0.86013  0.01323     C
H       0.6218   0.0492   0.3298     H
C       0.6226  0.39398    0.983     C
C       0.6235   0.0677   0.2928     C
C      0.62565  0.91168  0.22515     C
C        0.626  0.79629  0.00789     C
C       0.6262  0.86534  0.86566     C
O      0.62717  0.64425   0.0767     O
C      0.62788  0.76068  0.01059     C
Zn     0.62793  0.59896  0.91815    Zn
C      0.62822  0.89618  0.15683     C
C      0.62824  0.84893  0.94482     C
Zn     0.62833  0.59951  0.09764    Zn
H       0.6288   0.2326    0.965     H
C       0.6291  0.65686   0.0108     C
C      0.63032  0.91795  0.79871     C
C      0.63044  0.69494  0.00857     C
C      0.63122  0.81701  0.94215     C
C      0.63133  0.32835   0.0056     C
O      0.63162  0.57386  0.00952     O
O       0.6349  0.64709  0.94712     O
H       0.6353   0.9373   0.2289     H
C      0.63535   0.2976   0.0048     C
C      0.63643  0.90278  0.86396     C
C       0.6365   0.0329   0.1851     C
H       0.6367   0.8095   0.8964     H
H       0.6372    0.943   0.7976     H
H       0.6396   0.9114   0.1149     H
C      0.64081  0.49293   0.0184     C
C      0.64325  0.75237  0.94853     C
O      0.64425  0.01708   0.5767     O
C      0.64453   0.7195  0.94752     C
C      0.64656  0.45926   0.0068     C
O      0.64709  0.01219  0.44712     O
H       0.6474   0.9177   0.9065     H
H       0.6522   0.0479   0.1435     H
H       0.6524   0.0333   0.2262     H
H       0.6527   0.7688   0.9077     H
H       0.6548   0.7139    0.906     H
C      0.65491  0.39683   0.0133     C
C      0.65686  0.02776   0.5108     C
C      0.66225  0.36465   0.0048     C
C       0.6641   0.1001   0.2909     C
H       0.6668   0.1172   0.2511     H
O      0.66839  0.60735   0.1675     O
O      0.66959   0.5236   0.9953     O
H       0.6702   0.1128    0.339     H
O      0.67156  0.61473   0.8558     O
C      0.67165  0.30298   0.0056     C
H       0.6748   0.2823   0.0067     H
C      0.67887  0.46211    0.037     C
Zn     0.67888  0.57467  0.00904    Zn
H       0.6805   0.0905   0.2813     H
C      0.68304  0.43089   0.0403     C
H       0.6868   0.0812   0.6115     H
H       0.6942   0.6372   0.2976     H
C      0.69494   0.0645  0.50857     C
C      0.69591  0.60507   0.8537     C
C      0.69669  0.60462  0.15755     C
C      0.69702  0.36867   0.0056     C
H       0.6977   0.4849   0.0551     H
H        0.698   0.6353   0.7289     H
C       0.7024  0.33775   0.0048     C
C      0.70326  0.08819  0.57063     C
O      0.70394   0.5898  0.90645     O
H       0.7047   0.4328   0.0605     H
O      0.70723  0.59677  0.09661     O
C      0.71237  0.63032  0.29871     C
H       0.7139   0.0591    0.406     H
C      0.71397  0.62565  0.72515     C
H       0.7177   0.3925   0.0067     H
C      0.71831  0.61398  0.23514     C
C       0.7195  0.07497  0.44752     C
C      0.71973  0.60868  0.78784     C
H       0.7281   0.2953   0.0605     H
H       0.7282   0.6396   0.6149     H
H       0.7297   0.6474   0.4065     H
C      0.73204  0.62822  0.65683     C
C      0.73365  0.63643  0.36396     C
C      0.73612  0.12233  0.57164     C
H       0.7366   0.6181    0.515     H
H       0.7417   0.1382   0.6132     H
C      0.74192  0.34509   0.0133     C
C      0.74356  0.59428  0.78222     C
C      0.74553  0.60376  0.23683     C
H       0.7474   0.5829   0.8242     H
C      0.74785  0.31696   0.0403     C
H       0.7495   0.5928   0.1943     H
C      0.75237  0.10912  0.44853     C
C      0.75586  0.61381   0.6512     C
C      0.75992  0.62005  0.51323     C
C      0.76068   0.1328  0.51059     C
C      0.76086   0.6262  0.36566     C
C      0.76162  0.59684  0.71389     C
C      0.76681  0.60988  0.30209     C
H       0.7674   0.3962    0.965     H
H       0.7688   0.1161   0.4077     H
C      0.77138   0.3774    0.983     C
C      0.77542  0.61482  0.57897     C
H       0.7776   0.5872   0.7101     H
C      0.77931  0.62824  0.44482     C
C      0.78324  0.32113    0.037     C
H        0.785    0.603   0.3032     H
H       0.7872   0.3023   0.0551     H
H       0.7936   0.1793   0.6203     H
C      0.79629  0.17029  0.50789     C
C      0.80677  0.38157  0.97979     C
C      0.80748  0.18969   0.5763     C
H       0.8095   0.1728   0.3964     H
H       0.8096   0.2224   0.7101     H
C      0.81031  0.61779   0.5763     C
C       0.8127  0.35344   0.0068     C
C      0.81421  0.63122  0.44215     C
C      0.81701  0.18579  0.44215     C
H        0.818    0.215   0.3032     H
H       0.8207   0.6143   0.6203     H
H       0.8265   0.4032   0.9595     H
H       0.8272   0.6367   0.3964     H
C      0.82971    0.626  0.50789     C
C      0.83522  0.23838  0.71389     C
H       0.8355   0.2526   0.8242     H
C       0.8394  0.22458  0.57897     C
C      0.84307  0.23319  0.30209     C
H       0.8433   0.2505   0.1943     H
C      0.84893  0.22069  0.44482     C
C      0.85072  0.25644  0.78222     C
C      0.85212  0.35919   0.0184     C
O      0.85401  0.33041   0.9953     O
C      0.85795  0.24414   0.6512     C
C      0.85823  0.25447  0.23683     C
C      0.86013  0.24008  0.51323     C
H       0.8618   0.6035   0.6132     H
C      0.86534  0.23914  0.36566     C
C       0.8672  0.62788  0.51059     C
O      0.87754  0.39095   0.9978     O
C      0.87767  0.61379  0.57164     C
H       0.8815   0.2634    0.515     H
H       0.8828   0.5496   0.2511     H
H       0.8839   0.6527   0.4077     H
O      0.88586  0.29606  0.90645     O
H       0.8872   0.5574    0.339     H
C      0.88895  0.28027  0.78784     C
O      0.88954  0.29277  0.09661     O
C      0.89088  0.64325  0.44853     C
C      0.89567  0.28169  0.23514     C
Zn     0.89579  0.32112  0.00904    Zn
C      0.89618  0.26796  0.65683     C
C       0.8999    0.564   0.2909     C
H       0.9011   0.4985   0.2817     H
C      0.90278  0.26635  0.36396     C
H       0.9028   0.5116   0.3661     H
C      0.90793  0.30331  0.15755     C
C      0.90916  0.30409   0.8537     C
H       0.9095     0.59   0.2813     H
H       0.9114   0.2718   0.6149     H
C      0.91168  0.28603  0.72515     C
C      0.91181  0.61507  0.57063     C
C       0.9169   0.5155   0.3203     C
H       0.9177   0.2703   0.4065     H
C      0.91795  0.28763  0.29871     C
H       0.9188   0.6056   0.6115     H
C      0.92503  0.64453  0.44752     C
Zn     0.93113  0.40856  0.00592    Zn
C       0.9323   0.5558   0.2928     C
H       0.9341   0.5455   0.1755     H
C       0.9355  0.63044  0.50857     C
H       0.9372   0.5111   0.3304     H
H       0.9373    0.302   0.7289     H
O      0.93896  0.33161   0.1675     O
H       0.9409   0.6548    0.406     H
O      0.94224  0.36838  0.00952     O
H        0.943   0.3058   0.2976     H
O      0.94317  0.32844   0.8558     O
H       0.9508   0.5726   0.3298     H
O      0.95102  0.44096  0.09549     O
C       0.9515    0.563    0.213     C
H       0.9521   0.6043   0.1435     H
O      0.95283  0.44081  0.91993     O
O       0.9564   0.4064   0.6679     O
H      0.95671  0.49911  0.14534     H
H       0.9609   0.4958    0.847     H
H       0.9667   0.6191   0.2262     H
C       0.9671   0.6036   0.1851     C
Zn     0.97103  0.37207  0.91815    Zn
Zn     0.97118  0.37167  0.09764    Zn
C       0.9717  0.43983  0.86501     C
C      0.97224   0.6291   0.5108     C
C      0.97422   0.4409   0.1414     C
O      0.97535  0.41206  0.85559     O
C      0.97607   0.5003  0.19274     C
C      0.97671  0.49676  0.80832     C
H       0.9828   0.5433   0.7575     H
O      0.98292  0.62717   0.5767     O
N       0.9847   0.5592   0.2175     N
O      0.98574   0.4183   0.1508     O
C      0.98656  0.47332  0.19691     C
C       0.9872   0.4104   0.6788     C
C       0.9872  0.46978  0.80415     C
O      0.98781   0.6349  0.44712     O
C      0.98919  0.52875   0.2464     C
C      0.98983  0.52521   0.7547     C
O       0.9955    0.383   0.6602     O
