data_I
_chemical_name_common  '/home/zhangsd/repos/MofS-CGCNN/ML/data/SSD/clean_cifs/UCABAE_clean'
_cell_length_a 12.15380
_cell_length_b 12.15740
_cell_length_c 16.15360
_cell_angle_alpha 77.04500
_cell_angle_beta  82.55000
_cell_angle_gamma 83.52700
_space_group_name_H-M_alt      'P 1'


loop_
_space_group_symop_operation_xyz
  'x, y, z' 

loop_
_atom_site_label
_atom_site_fract_x
_atom_site_fract_y
_atom_site_fract_z
_atom_site_type_symbol
Cd         0.0      0.0      0.5    Cd
Cd         0.0      0.5      0.5    Cd
O       0.0105   0.8088  0.50396     O
C       0.0792   0.7362   0.5378     C
O        0.084   0.6315  0.54422     O
H       0.0991   0.9461   0.7056     H
H       0.1083   0.3953    0.317     H
H        0.112    0.221    0.581     H
N       0.1121   0.3791  0.59777     N
N       0.1279   0.0191   0.3807     N
H       0.1335   0.8708   0.3441     H
H       0.1343   0.7624   0.5615     H
C       0.1353   0.2653   0.6134     C
N       0.1455   0.4974  0.38938     N
N       0.1545   0.9782  0.58103     N
C        0.158   0.4433   0.3258     C
C       0.1602   0.9494   0.6642     C
C       0.1605   0.9417   0.3343     C
H       0.1608   0.3686   0.1787     H
C       0.1615   0.4098   0.6567     C
H        0.162    0.478     0.66     H
H       0.1678    0.843   0.8321     H
H        0.183    0.169    0.357     H
C       0.1899   0.1065   0.3425     C
N       0.1944   0.2236   0.6773     N
N       0.2108   0.3192   0.7051     N
C       0.2359   0.3747   0.1599     C
N       0.2376   0.9808  0.27166     N
C       0.2385   0.5541   0.3762     C
H        0.239   0.4739   0.7882     H
H        0.241   0.2956   0.0623     H
C       0.2431   0.8482   0.8342     C
H       0.2434   0.7871   0.9601     H
N       0.2527   0.4679  0.27615     N
H        0.253   0.5998   0.4119     H
N        0.258   0.0876   0.2758     N
H       0.2616   0.0676   0.1103     H
C        0.263   0.9657   0.5486     C
N       0.2658   0.9256  0.68058     N
C       0.2711   0.3102   0.7769     C
C       0.2749   0.4044   0.8117     C
C       0.2845   0.3307   0.0904     C
H       0.2852   0.9784   0.4902     H
C       0.2873   0.9296   0.2029     C
C       0.2891   0.8142   0.9106     C
C       0.2914   0.9925   0.1212     C
C       0.3005   0.4277   0.2012     C
N       0.3066   0.5389   0.3086     N
C       0.3113   0.8905   0.7604     C
H       0.3155   0.1427   0.7914     H
H        0.317    0.766    0.282     H
C       0.3211   0.2062   0.8133     C
C       0.3232   0.8147   0.2205     C
C       0.3325   0.3931   0.8813     C
H       0.3326   0.4557   0.9055     H
N       0.3338   0.9345   0.6056     N
C       0.3409   0.9424   0.0549     C
H       0.3422   0.9842    0.999     H
C       0.3724   0.7662   0.1531     C
C       0.3797   0.1973   0.8827     C
C        0.388   0.8324   0.0696     C
C       0.3899   0.2935   0.9166     C
H       0.3953   0.6892   0.1632     H
C       0.3974   0.3382   0.0616     C
C       0.4019   0.8192   0.9155     C
C       0.4115   0.4415   0.1714     C
H       0.4131   0.1271   0.9077     H
C       0.4234   0.8985   0.7636     C
C       0.4502    0.784   0.9984     C
C       0.4521   0.2808   0.9922     C
H       0.4537   0.4794   0.1982     H
H       0.4575   0.1297   0.1574     H
C       0.4586   0.3984   0.1015     C
C       0.4675   0.8638   0.8405     C
H       0.4676   0.5906   0.9194     H
H       0.4685   0.9271   0.7141     H
H       0.5315   0.0729   0.2859     H
H       0.5324   0.4094   0.0806     H
C       0.5325   0.1362   0.1595     C
C       0.5414   0.6016   0.8985     C
H       0.5425   0.8703   0.8426     H
H       0.5463   0.5206   0.8018     H
C       0.5479   0.7192   0.0078     C
C       0.5498    0.216   0.0016     C
C       0.5766   0.1015   0.2364     C
H       0.5869   0.8729   0.0923     H
C       0.5885   0.5585   0.8286     C
C       0.5981   0.1808   0.0845     C
C       0.6026   0.6618   0.9384     C
H       0.6047   0.3108   0.8368     H
C       0.6101   0.7065   0.0834     C
C        0.612   0.1676   0.9304     C
C       0.6203   0.8027   0.1173     C
C       0.6276   0.2338   0.8469     C
H       0.6578   0.0158    0.001     H
C       0.6591   0.0576   0.9451     C
N       0.6662   0.0655   0.3944     N
H       0.6674   0.5443   0.0945     H
C       0.6675   0.6069   0.1187     C
C       0.6768   0.1853   0.7795     C
C       0.6789   0.7938   0.1867     C
H        0.683    0.234    0.718     H
H       0.6845   0.8573   0.2086     H
C       0.6887   0.1095   0.2396     C
N       0.6934   0.4611   0.6914     N
C       0.6995   0.5723   0.7988     C
C       0.7086   0.0075   0.8788     C
C       0.7109   0.1858   0.0894     C
C       0.7127   0.0704   0.7971     C
H       0.7148   0.0216   0.5098     H
C       0.7155   0.6693   0.9096     C
C       0.7251   0.5956   0.1883     C
C       0.7289   0.6898   0.2231     C
N       0.7342   0.0744  0.31942     N
C        0.737   0.0343   0.4514     C
H       0.7384   0.9324   0.8897     H
N        0.742   0.9124   0.7242     N
H        0.747   0.4002   0.5881     H
N       0.7473   0.5321  0.72385     N
H       0.7566   0.2129   0.0399     H
C       0.7569   0.1518   0.1658     C
H        0.759   0.7044   0.9377     H
H        0.761   0.5261   0.2118     H
C       0.7615   0.4459   0.6238     C
N       0.7624   0.0192  0.72834     N
C       0.7641   0.6253   0.8401     C
N       0.7892   0.6808   0.2949     N
N       0.8056   0.7764   0.3227     N
C       0.8101   0.8935   0.6575     C
H        0.817    0.831    0.643     H
H       0.8322    0.157   0.1679     H
H        0.838    0.522     0.34     H
C       0.8385   0.5902   0.3433     C
H       0.8392   0.6314   0.8213     H
C       0.8395   0.0583   0.6657     C
C       0.8398   0.0506   0.3358     C
C        0.842   0.5567   0.6742     C
N       0.8455   0.0218  0.41897     N
N       0.8545   0.5026  0.61062     N
C       0.8647   0.7347   0.3866     C
H       0.8657   0.2376   0.4385     H
H       0.8665   0.1292   0.6559     H
N       0.8721   0.9809   0.6193     N
N       0.8879   0.6209  0.40223     N
H        0.888    0.779    0.419     H
H       0.8917   0.6047    0.683     H
H       0.9009   0.0539   0.2944     H
O        0.916   0.3685  0.45578     O
C       0.9208   0.2638   0.4622     C
O       0.9895   0.1912  0.49604     O
