data_I
_chemical_name_common  '/home/zhangsd/repos/MofS-CGCNN/ML/data/SSD/clean_cifs/UDOVUG_charged'
_cell_length_a 10.48100
_cell_length_b 23.98600
_cell_length_c 23.98600
_cell_angle_alpha 90.00000
_cell_angle_beta  90.00000
_cell_angle_gamma 90.00000
_space_group_name_H-M_alt      'P 1'


loop_
_space_group_symop_operation_xyz
  'x, y, z' 

loop_
_atom_site_label
_atom_site_fract_x
_atom_site_fract_y
_atom_site_fract_z
_atom_site_type_symbol
O       0.0206    0.052    0.915     O
O       0.0206    0.448    0.585     O
O       0.0206    0.585    0.052     O
O       0.0206    0.915    0.448     O
O        0.064   0.0124   0.3493     O
O        0.064   0.1507   0.0124     O
O        0.064   0.3493   0.4876     O
O        0.064   0.4876   0.1507     O
H       0.0723   0.0942   0.2886     H
H       0.0723   0.2114   0.0942     H
H       0.0723   0.2886   0.4058     H
H       0.0723   0.4058   0.2114     H
O        0.074   0.0341   0.0428     O
O        0.074   0.0428   0.4659     O
O        0.074   0.4572   0.0341     O
O        0.074   0.4659   0.4572     O
C       0.0771   0.1946   0.9858     C
C       0.0771   0.3054   0.5142     C
C       0.0771   0.5142   0.1946     C
C       0.0771   0.9858   0.3054     C
C       0.0789   0.0762   0.2544     C
C       0.0789   0.2456   0.0762     C
C       0.0789   0.2544   0.4238     C
C       0.0789   0.4238   0.2456     C
C       0.0797   0.0195   0.2526     C
C       0.0797   0.2474   0.0195     C
C       0.0797   0.2526   0.4805     C
C       0.0797   0.4805   0.2474     C
H       0.0835   0.1983   0.5454     H
H       0.0835   0.3017   0.9546     H
H       0.0835   0.5454   0.3017     H
H       0.0835   0.9546   0.1983     H
C       0.0839   0.2002   0.5066     C
C       0.0839   0.2998   0.9934     C
C       0.0839   0.5066   0.2998     C
C       0.0839   0.9934   0.2002     C
O       0.0849   0.1971   0.9348     O
O       0.0849   0.3029   0.5652     O
O       0.0849   0.5652   0.1971     O
O       0.0849   0.9348   0.3029     O
C       0.0879   0.1073   0.2062     C
C       0.0879   0.2062   0.3927     C
C       0.0879   0.2938   0.1073     C
C       0.0879   0.3927   0.2938     C
C       0.0886   0.0236    0.152     C
C       0.0886    0.152   0.4764     C
C       0.0886    0.348   0.0236     C
C       0.0886   0.4764    0.348     C
P        0.089  0.08499  0.51073     P
P        0.089  0.41501  0.98927     P
P        0.089  0.51073  0.41501     P
P        0.089  0.98927  0.08499     P
C        0.091   0.0809   0.1554     C
C        0.091   0.1554   0.4191     C
C        0.091   0.3446   0.0809     C
C        0.091   0.4191   0.3446     C
H       0.0918    0.146    0.208     H
H       0.0918    0.208    0.354     H
H       0.0918    0.292    0.146     H
H       0.0918    0.354    0.292     H
H       0.0948    0.102   0.1229     H
H       0.0948   0.1229    0.398     H
H       0.0948   0.3771    0.102     H
H       0.0948    0.398   0.3771     H
Zn     0.11049  0.07915  0.97965    Zn
Zn     0.11049  0.42085  0.52035    Zn
Zn     0.11049  0.52035  0.07915    Zn
Zn     0.11049  0.97965  0.42085    Zn
O       0.2125   0.0792    0.543     O
O       0.2125   0.4208    0.957     O
O       0.2125    0.543   0.4208     O
O       0.2125    0.957   0.0792     O
O       0.2875   0.0792    0.957     O
O       0.2875   0.4208    0.543     O
O       0.2875    0.543   0.0792     O
O       0.2875    0.957   0.4208     O
Zn     0.38951  0.07915  0.52035    Zn
Zn     0.38951  0.42085  0.97965    Zn
Zn     0.38951  0.52035  0.42085    Zn
Zn     0.38951  0.97965  0.07915    Zn
H       0.4052    0.102   0.3771     H
H       0.4052   0.1229    0.102     H
H       0.4052   0.3771    0.398     H
H       0.4052    0.398   0.1229     H
H       0.4082    0.146    0.292     H
H       0.4082    0.208    0.146     H
H       0.4082    0.292    0.354     H
H       0.4082    0.354    0.208     H
C        0.409   0.0809   0.3446     C
C        0.409   0.1554   0.0809     C
C        0.409   0.3446   0.4191     C
C        0.409   0.4191   0.1554     C
P        0.411  0.08499  0.98927     P
P        0.411  0.41501  0.51073     P
P        0.411  0.51073  0.08499     P
P        0.411  0.98927  0.41501     P
C       0.4114   0.0236    0.348     C
C       0.4114    0.152   0.0236     C
C       0.4114    0.348   0.4764     C
C       0.4114   0.4764    0.152     C
C       0.4121   0.1073   0.2938     C
C       0.4121   0.2062   0.1073     C
C       0.4121   0.2938   0.3927     C
C       0.4121   0.3927   0.2062     C
O       0.4151   0.1971   0.5652     O
O       0.4151   0.3029   0.9348     O
O       0.4151   0.5652   0.3029     O
O       0.4151   0.9348   0.1971     O
C       0.4161   0.2002   0.9934     C
C       0.4161   0.2998   0.5066     C
C       0.4161   0.5066   0.2002     C
C       0.4161   0.9934   0.2998     C
H       0.4165   0.1983   0.9546     H
H       0.4165   0.3017   0.5454     H
H       0.4165   0.5454   0.1983     H
H       0.4165   0.9546   0.3017     H
C       0.4203   0.0195   0.2474     C
C       0.4203   0.2474   0.4805     C
C       0.4203   0.2526   0.0195     C
C       0.4203   0.4805   0.2526     C
C       0.4211   0.0762   0.2456     C
C       0.4211   0.2456   0.4238     C
C       0.4211   0.2544   0.0762     C
C       0.4211   0.4238   0.2544     C
C       0.4229   0.1946   0.5142     C
C       0.4229   0.3054   0.9858     C
C       0.4229   0.5142   0.3054     C
C       0.4229   0.9858   0.1946     C
O        0.426   0.0341   0.4572     O
O        0.426   0.0428   0.0341     O
O        0.426   0.4572   0.4659     O
O        0.426   0.4659   0.0428     O
H       0.4277   0.0942   0.2114     H
H       0.4277   0.2114   0.4058     H
H       0.4277   0.2886   0.0942     H
H       0.4277   0.4058   0.2886     H
O        0.436   0.0124   0.1507     O
O        0.436   0.1507   0.4876     O
O        0.436   0.3493   0.0124     O
O        0.436   0.4876   0.3493     O
O       0.4794    0.052    0.585     O
O       0.4794    0.448    0.915     O
O       0.4794    0.585    0.448     O
O       0.4794    0.915    0.052     O
O       0.5206    0.085    0.948     O
O       0.5206    0.415    0.552     O
O       0.5206    0.552    0.085     O
O       0.5206    0.948    0.415     O
O        0.564   0.5124   0.6507     O
O        0.564   0.6507   0.9876     O
O        0.564   0.8493   0.5124     O
O        0.564   0.9876   0.8493     O
H       0.5723   0.5942   0.7114     H
H       0.5723   0.7114   0.9058     H
H       0.5723   0.7886   0.5942     H
H       0.5723   0.9058   0.7886     H
O        0.574   0.5341   0.9572     O
O        0.574   0.5428   0.5341     O
O        0.574   0.9572   0.9659     O
O        0.574   0.9659   0.5428     O
C       0.5771   0.0142   0.8054     C
C       0.5771   0.4858   0.6946     C
C       0.5771   0.6946   0.0142     C
C       0.5771   0.8054   0.4858     C
C       0.5789   0.5762   0.7456     C
C       0.5789   0.7456   0.9238     C
C       0.5789   0.7544   0.5762     C
C       0.5789   0.9238   0.7544     C
C       0.5797   0.5195   0.7474     C
C       0.5797   0.7474   0.9805     C
C       0.5797   0.7526   0.5195     C
C       0.5797   0.9805   0.7526     C
H       0.5835   0.0454   0.6983     H
H       0.5835   0.4546   0.8017     H
H       0.5835   0.6983   0.4546     H
H       0.5835   0.8017   0.0454     H
C       0.5839   0.0066   0.7002     C
C       0.5839   0.4934   0.7998     C
C       0.5839   0.7002   0.4934     C
C       0.5839   0.7998   0.0066     C
O       0.5849   0.0652   0.8029     O
O       0.5849   0.4348   0.6971     O
O       0.5849   0.6971   0.0652     O
O       0.5849   0.8029   0.4348     O
C       0.5879   0.6073   0.7938     C
C       0.5879   0.7062   0.6073     C
C       0.5879   0.7938   0.8927     C
C       0.5879   0.8927   0.7062     C
C       0.5886   0.5236    0.848     C
C       0.5886    0.652   0.5236     C
C       0.5886    0.848   0.9764     C
C       0.5886   0.9764    0.652     C
P        0.589  0.01073  0.58499     P
P        0.589  0.48927  0.91501     P
P        0.589  0.58499  0.48927     P
P        0.589  0.91501  0.01073     P
C        0.591   0.5809   0.8446     C
C        0.591   0.6554   0.5809     C
C        0.591   0.8446   0.9191     C
C        0.591   0.9191   0.6554     C
H       0.5918    0.646    0.792     H
H       0.5918    0.708    0.646     H
H       0.5918    0.792    0.854     H
H       0.5918    0.854    0.708     H
H       0.5948    0.602   0.8771     H
H       0.5948   0.6229    0.602     H
H       0.5948   0.8771    0.898     H
H       0.5948    0.898   0.6229     H
Zn     0.61049  0.02035  0.92085    Zn
Zn     0.61049  0.47965  0.57915    Zn
Zn     0.61049  0.57915  0.02035    Zn
Zn     0.61049  0.92085  0.47965    Zn
O       0.7125    0.043   0.5792     O
O       0.7125    0.457   0.9208     O
O       0.7125   0.5792    0.457     O
O       0.7125   0.9208    0.043     O
O       0.7875    0.043   0.9208     O
O       0.7875    0.457   0.5792     O
O       0.7875   0.5792    0.043     O
O       0.7875   0.9208    0.457     O
Zn     0.88951  0.02035  0.57915    Zn
Zn     0.88951  0.47965  0.92085    Zn
Zn     0.88951  0.57915  0.47965    Zn
Zn     0.88951  0.92085  0.02035    Zn
H       0.9052    0.602   0.6229     H
H       0.9052   0.6229    0.898     H
H       0.9052   0.8771    0.602     H
H       0.9052    0.898   0.8771     H
H       0.9082    0.646    0.708     H
H       0.9082    0.708    0.854     H
H       0.9082    0.792    0.646     H
H       0.9082    0.854    0.792     H
C        0.909   0.5809   0.6554     C
C        0.909   0.6554   0.9191     C
C        0.909   0.8446   0.5809     C
C        0.909   0.9191   0.8446     C
P        0.911  0.01073  0.91501     P
P        0.911  0.48927  0.58499     P
P        0.911  0.58499  0.01073     P
P        0.911  0.91501  0.48927     P
C       0.9114   0.5236    0.652     C
C       0.9114    0.652   0.9764     C
C       0.9114    0.848   0.5236     C
C       0.9114   0.9764    0.848     C
C       0.9121   0.6073   0.7062     C
C       0.9121   0.7062   0.8927     C
C       0.9121   0.7938   0.6073     C
C       0.9121   0.8927   0.7938     C
O       0.9151   0.0652   0.6971     O
O       0.9151   0.4348   0.8029     O
O       0.9151   0.6971   0.4348     O
O       0.9151   0.8029   0.0652     O
C       0.9161   0.0066   0.7998     C
C       0.9161   0.4934   0.7002     C
C       0.9161   0.7002   0.0066     C
C       0.9161   0.7998   0.4934     C
H       0.9165   0.0454   0.8017     H
H       0.9165   0.4546   0.6983     H
H       0.9165   0.6983   0.0454     H
H       0.9165   0.8017   0.4546     H
C       0.9203   0.5195   0.7526     C
C       0.9203   0.7474   0.5195     C
C       0.9203   0.7526   0.9805     C
C       0.9203   0.9805   0.7474     C
C       0.9211   0.5762   0.7544     C
C       0.9211   0.7456   0.5762     C
C       0.9211   0.7544   0.9238     C
C       0.9211   0.9238   0.7456     C
C       0.9229   0.0142   0.6946     C
C       0.9229   0.4858   0.8054     C
C       0.9229   0.6946   0.4858     C
C       0.9229   0.8054   0.0142     C
O        0.926   0.5341   0.5428     O
O        0.926   0.5428   0.9659     O
O        0.926   0.9572   0.5341     O
O        0.926   0.9659   0.9572     O
H       0.9277   0.5942   0.7886     H
H       0.9277   0.7114   0.5942     H
H       0.9277   0.7886   0.9058     H
H       0.9277   0.9058   0.7114     H
O        0.936   0.5124   0.8493     O
O        0.936   0.6507   0.5124     O
O        0.936   0.8493   0.9876     O
O        0.936   0.9876   0.6507     O
O       0.9794    0.085    0.552     O
O       0.9794    0.415    0.948     O
O       0.9794    0.552    0.415     O
O       0.9794    0.948    0.085     O
