data_I
_chemical_name_common  '/home/zhangsd/repos/MofS-CGCNN/ML/data/SSD/clean_cifs/UFEMIC_clean'
_cell_length_a 14.33840
_cell_length_b 13.35220
_cell_length_c 12.34440
_cell_angle_alpha 90.00000
_cell_angle_beta  90.00000
_cell_angle_gamma 90.00000
_space_group_name_H-M_alt      'P 1'


loop_
_space_group_symop_operation_xyz
  'x, y, z' 

loop_
_atom_site_label
_atom_site_fract_x
_atom_site_fract_y
_atom_site_fract_z
_atom_site_type_symbol
C       0.0276   0.5121   0.9685     C
C       0.0276   0.9879   0.9685     C
C       0.0311   0.7067   0.4591     C
C       0.0311   0.7933   0.4591     C
C       0.0419   0.5144   0.6302     C
C       0.0419   0.9856   0.6302     C
Cu     0.05434  0.56262  0.46104    Cu
Cu     0.05434  0.93738  0.46104    Cu
N        0.075   0.5288   0.7115     N
N        0.075   0.9712   0.7115     N
Cu     0.12182  0.55643  0.86343    Cu
Cu     0.12182  0.94357  0.86343    Cu
C       0.1354   0.7054    0.865     C
C       0.1354   0.7946    0.865     C
C       0.1811   0.5291   0.4192     C
C       0.1811   0.9709   0.4192     C
N       0.2454   0.0049   0.8933     N
N       0.2454   0.4951   0.8933     N
N       0.2546   0.5049   0.3933     N
N       0.2546   0.9951   0.3933     N
C       0.3189   0.0291   0.9192     C
C       0.3189   0.4709   0.9192     C
C       0.3646   0.2054    0.365     C
C       0.3646   0.2946    0.365     C
Cu     0.37818  0.05643  0.36343    Cu
Cu     0.37818  0.44357  0.36343    Cu
N        0.425   0.0288   0.2115     N
N        0.425   0.4712   0.2115     N
Cu     0.44566  0.06262  0.96104    Cu
Cu     0.44566  0.43738  0.96104    Cu
C       0.4581   0.0144   0.1302     C
C       0.4581   0.4856   0.1302     C
C       0.4689   0.2067   0.9591     C
C       0.4689   0.2933   0.9591     C
C       0.4724   0.0121   0.4685     C
C       0.4724   0.4879   0.4685     C
C       0.5276   0.5121   0.5315     C
C       0.5276   0.9879   0.5315     C
C       0.5311   0.7067   0.0409     C
C       0.5311   0.7933   0.0409     C
C       0.5419   0.5144   0.8698     C
C       0.5419   0.9856   0.8698     C
Cu     0.55434  0.56262  0.03896    Cu
Cu     0.55434  0.93738  0.03896    Cu
N        0.575   0.5288   0.7885     N
N        0.575   0.9712   0.7885     N
Cu     0.62182  0.55643  0.63657    Cu
Cu     0.62182  0.94357  0.63657    Cu
C       0.6354   0.7054    0.635     C
C       0.6354   0.7946    0.635     C
C       0.6811   0.5291   0.0808     C
C       0.6811   0.9709   0.0808     C
N       0.7454   0.0049   0.6067     N
N       0.7454   0.4951   0.6067     N
N       0.7546   0.5049   0.1067     N
N       0.7546   0.9951   0.1067     N
C       0.8189   0.0291   0.5808     C
C       0.8189   0.4709   0.5808     C
C       0.8646   0.2054    0.135     C
C       0.8646   0.2946    0.135     C
Cu     0.87818  0.05643  0.13657    Cu
Cu     0.87818  0.44357  0.13657    Cu
N        0.925   0.0288   0.2885     N
N        0.925   0.4712   0.2885     N
Cu     0.94566  0.06262  0.53896    Cu
Cu     0.94566  0.43738  0.53896    Cu
C       0.9581   0.0144   0.3698     C
C       0.9581   0.4856   0.3698     C
C       0.9689   0.2067   0.5409     C
C       0.9689   0.2933   0.5409     C
C       0.9724   0.0121   0.0315     C
C       0.9724   0.4879   0.0315     C
