data_I
_chemical_name_common  '/home/zhangsd/repos/MofS-CGCNN/ML/data/SSD/clean_cifs/UFISOS_clean'
_cell_length_a 14.88250
_cell_length_b 23.32810
_cell_length_c  9.10870
_cell_angle_alpha 90.00000
_cell_angle_beta  90.00000
_cell_angle_gamma 90.00000
_space_group_name_H-M_alt      'P 1'


loop_
_space_group_symop_operation_xyz
  'x, y, z' 

loop_
_atom_site_label
_atom_site_fract_x
_atom_site_fract_y
_atom_site_fract_z
_atom_site_type_symbol
O          0.0      0.0   0.8437     O
O          0.0      0.5   0.3437     O
O      0.01586   0.3802  0.31996     O
O      0.01586   0.8802  0.81996     O
O      0.01842  0.06952  0.56479     O
O      0.01842  0.56952  0.06479     O
C      0.04117  0.39183   0.0648     C
C      0.04117  0.89183   0.5648     C
C      0.05887  0.36189   0.2119     C
C      0.05887  0.86189   0.7119     C
Cl     0.06809  0.24408  0.91597    Cl
Cl     0.06809  0.74408  0.41597    Cl
Fe     0.07784  0.05464  0.76258    Fe
Fe     0.07784  0.55464  0.26258    Fe
O      0.08637  0.37498  0.95788     O
O      0.08637  0.87498  0.45788     O
O       0.1156  0.32199  0.21158     O
O       0.1156  0.82199  0.71158     O
O       0.1344  0.07199  0.96158     O
O       0.1344  0.57199  0.46158     O
O      0.16363  0.12498  0.70788     O
O      0.16363  0.62498  0.20788     O
Fe     0.17216  0.30464  0.01258    Fe
Fe     0.17216  0.80464  0.51258    Fe
Cl     0.18191  0.49408  0.16597    Cl
Cl     0.18191  0.99408  0.66597    Cl
C      0.19113  0.11189   0.9619     C
C      0.19113  0.61189   0.4619     C
C      0.20883  0.14183   0.8148     C
C      0.20883  0.64183   0.3148     C
O      0.23158  0.31952  0.81479     O
O      0.23158  0.81952  0.31479     O
O      0.23414   0.1302  0.06996     O
O      0.23414   0.6302  0.56996     O
O         0.25     0.25   0.0937     O
O         0.25     0.75   0.5937     O
O      0.26586   0.3698  0.06996     O
O      0.26586   0.8698  0.56996     O
O      0.26842  0.18048  0.81479     O
O      0.26842  0.68048  0.31479     O
C      0.29117  0.35817   0.8148     C
C      0.29117  0.85817   0.3148     C
C      0.30887  0.38811   0.9619     C
C      0.30887  0.88811   0.4619     C
Cl     0.31809  0.00592  0.16597    Cl
Cl     0.31809  0.50592  0.66597    Cl
Fe     0.32784  0.19536  0.01258    Fe
Fe     0.32784  0.69536  0.51258    Fe
O      0.33637  0.37502  0.70788     O
O      0.33637  0.87502  0.20788     O
O       0.3656  0.42801  0.96158     O
O       0.3656  0.92801  0.46158     O
O       0.3844  0.17801  0.21158     O
O       0.3844  0.67801  0.71158     O
O      0.41363  0.12502  0.95788     O
O      0.41363  0.62502  0.45788     O
Fe     0.42216  0.44536  0.76258    Fe
Fe     0.42216  0.94536  0.26258    Fe
Cl     0.43191  0.25592  0.91597    Cl
Cl     0.43191  0.75592  0.41597    Cl
C      0.44113  0.13811   0.2119     C
C      0.44113  0.63811   0.7119     C
C      0.45883  0.10817   0.0648     C
C      0.45883  0.60817   0.5648     C
O      0.48158  0.43048  0.56479     O
O      0.48158  0.93048  0.06479     O
O      0.48414   0.1198  0.31996     O
O      0.48414   0.6198  0.81996     O
O          0.5      0.0   0.3437     O
O          0.5      0.5   0.8437     O
O      0.51586   0.3802  0.81996     O
O      0.51586   0.8802  0.31996     O
O      0.51842  0.06952  0.06479     O
O      0.51842  0.56952  0.56479     O
C      0.54117  0.39183   0.5648     C
C      0.54117  0.89183   0.0648     C
C      0.55887  0.36189   0.7119     C
C      0.55887  0.86189   0.2119     C
Cl     0.56809  0.24408  0.41597    Cl
Cl     0.56809  0.74408  0.91597    Cl
Fe     0.57784  0.05464  0.26258    Fe
Fe     0.57784  0.55464  0.76258    Fe
O      0.58637  0.37498  0.45788     O
O      0.58637  0.87498  0.95788     O
O       0.6156  0.32199  0.71158     O
O       0.6156  0.82199  0.21158     O
O       0.6344  0.07199  0.46158     O
O       0.6344  0.57199  0.96158     O
O      0.66363  0.12498  0.20788     O
O      0.66363  0.62498  0.70788     O
Fe     0.67216  0.30464  0.51258    Fe
Fe     0.67216  0.80464  0.01258    Fe
Cl     0.68191  0.49408  0.66597    Cl
Cl     0.68191  0.99408  0.16597    Cl
C      0.69113  0.11189   0.4619     C
C      0.69113  0.61189   0.9619     C
C      0.70883  0.14183   0.3148     C
C      0.70883  0.64183   0.8148     C
O      0.73158  0.31952  0.31479     O
O      0.73158  0.81952  0.81479     O
O      0.73414   0.1302  0.56996     O
O      0.73414   0.6302  0.06996     O
O         0.75     0.25   0.5937     O
O         0.75     0.75   0.0937     O
O      0.76586   0.3698  0.56996     O
O      0.76586   0.8698  0.06996     O
O      0.76842  0.18048  0.31479     O
O      0.76842  0.68048  0.81479     O
C      0.79117  0.35817   0.3148     C
C      0.79117  0.85817   0.8148     C
C      0.80887  0.38811   0.4619     C
C      0.80887  0.88811   0.9619     C
Cl     0.81809  0.00592  0.66597    Cl
Cl     0.81809  0.50592  0.16597    Cl
Fe     0.82784  0.19536  0.51258    Fe
Fe     0.82784  0.69536  0.01258    Fe
O      0.83637  0.37502  0.20788     O
O      0.83637  0.87502  0.70788     O
O       0.8656  0.42801  0.46158     O
O       0.8656  0.92801  0.96158     O
O       0.8844  0.17801  0.71158     O
O       0.8844  0.67801  0.21158     O
O      0.91363  0.12502  0.45788     O
O      0.91363  0.62502  0.95788     O
Fe     0.92216  0.44536  0.26258    Fe
Fe     0.92216  0.94536  0.76258    Fe
Cl     0.93191  0.25592  0.41597    Cl
Cl     0.93191  0.75592  0.91597    Cl
C      0.94113  0.13811   0.7119     C
C      0.94113  0.63811   0.2119     C
C      0.95883  0.10817   0.5648     C
C      0.95883  0.60817   0.0648     C
O      0.98158  0.43048  0.06479     O
O      0.98158  0.93048  0.56479     O
O      0.98414   0.1198  0.81996     O
O      0.98414   0.6198  0.31996     O
