data_I
_chemical_name_common  '/home/zhangsd/repos/MofS-CGCNN/ML/data/SSD/clean_cifs/UJAQEC_clean'
_cell_length_a 10.20670
_cell_length_b 11.12970
_cell_length_c 13.92510
_cell_angle_alpha 112.66300
_cell_angle_beta  104.57400
_cell_angle_gamma 94.79600
_space_group_name_H-M_alt      'P 1'


loop_
_space_group_symop_operation_xyz
  'x, y, z' 

loop_
_atom_site_label
_atom_site_fract_x
_atom_site_fract_y
_atom_site_fract_z
_atom_site_type_symbol
C        0.001   0.6945   0.0286     C
H       0.0271   0.4523   0.8169     H
O       0.0401   0.4127  0.07443     O
C       0.0585   0.8984   0.2348     C
C       0.0647   0.5397   0.8805     C
C       0.0771   0.1651   0.8264     C
H       0.0785   0.9667   0.3065     H
C       0.1072   0.2671   0.9313     C
O       0.1135   0.6374  0.84726     O
C       0.1377   0.7579   0.0881     C
H       0.1405     0.53   0.9357     H
O       0.1633   0.0693  0.67549     O
C       0.1655   0.8621   0.1914     C
C       0.1927   0.1284    0.779     C
H       0.2001   0.3093   0.9743     H
C       0.2003   0.6028   0.7828     C
H       0.2106   0.7308   0.0592     H
H       0.2111   0.7809    0.774     H
H       0.2209   0.4203   0.7785     H
C       0.2405   0.6986   0.7501     C
C       0.2445   0.4833    0.752     C
C       0.3123   0.9309   0.2578     C
O       0.3145   0.1553  0.84112     O
C       0.3238    0.675   0.6825     C
C       0.3242   0.4576   0.6813     C
O       0.3305    0.037  0.34347     O
O       0.3564   0.8964  0.70468     O
C       0.3627   0.5519   0.6461     C
C        0.371   0.7811   0.6506     C
C       0.3723   0.3282   0.6468     C
Co     0.38618  0.07824   0.6976    Co
O       0.3863   0.2808  0.55116     O
O       0.3932   0.0105  0.54354     O
O       0.3945   0.2736  0.71093     O
O        0.406   0.8788  0.22402     O
H       0.4158   0.5326   0.5969     H
O       0.4213   0.7469  0.57231     O
Co      0.4943  0.13633  0.49098    Co
Co      0.5057  0.86367  0.50902    Co
O       0.5787   0.2531  0.42769     O
H       0.5842   0.4674   0.4031     H
O        0.594   0.1212  0.77598     O
O       0.6055   0.7264  0.28907     O
O       0.6068   0.9895  0.45646     O
O       0.6137   0.7192  0.44884     O
Co     0.61382  0.92176   0.3024    Co
C       0.6277   0.6718   0.3532     C
C        0.629   0.2189   0.3494     C
C       0.6373   0.4481   0.3539     C
O       0.6436   0.1036  0.29532     O
O       0.6695    0.963  0.65653     O
C       0.6758   0.5424   0.3187     C
C       0.6762    0.325   0.3175     C
O       0.6855   0.8447  0.15888     O
C       0.6877   0.0691   0.7422     C
C       0.7555   0.5167    0.248     C
C       0.7595   0.3014   0.2499     C
H       0.7791   0.5797   0.2215     H
H       0.7889   0.2191    0.226     H
H       0.7894   0.2692   0.9408     H
C       0.7997   0.3972   0.2172     C
H       0.7999   0.6907   0.0257     H
C       0.8073   0.8716    0.221     C
C       0.8345   0.1379   0.8086     C
O       0.8367   0.9307  0.32451     O
H       0.8595     0.47   0.0643     H
C       0.8623   0.2421   0.9119     C
O       0.8865   0.3626  0.15274     O
C       0.8928   0.7329   0.0687     C
H       0.9215   0.0333   0.6935     H
C       0.9229   0.8349   0.1736     C
C       0.9353   0.4603   0.1195     C
C       0.9415   0.1016   0.7652     C
O       0.9599   0.5873  0.92557     O
H       0.9729   0.5477   0.1831     H
C        0.999   0.3055   0.9714     C
