data_I
_chemical_name_common  '/home/zhangsd/repos/MofS-CGCNN/ML/data/SSD/clean_cifs/UJAQAY_clean'
_cell_length_a 12.37470
_cell_length_b 14.19460
_cell_length_c 15.31760
_cell_angle_alpha 107.77000
_cell_angle_beta  113.82500
_cell_angle_gamma 90.00000
_space_group_name_H-M_alt      'P 1'


loop_
_space_group_symop_operation_xyz
  'x, y, z' 

loop_
_atom_site_label
_atom_site_fract_x
_atom_site_fract_y
_atom_site_fract_z
_atom_site_type_symbol
Mn         0.0      0.0      0.5    Mn
C       0.0064   0.7985    0.952     C
C      0.01283   0.1392  0.10466     C
Mn     0.01797   0.9964  0.24794    Mn
O      0.04739  0.14066  0.75658     O
N      0.05217   0.0979  0.16974     N
C       0.0544   0.7015    0.048     C
C      0.09183   0.6392  0.10466     C
O      0.09425  0.13413   0.6279     O
O       0.0964  0.90025    0.575     O
C      0.09959   0.1756  0.71438     C
O       0.1131  0.91197  0.72812     O
N      0.11757   0.5979  0.16974     N
C       0.1264   0.8689   0.6474     C
O      0.13183   0.0081  0.44108     O
O      0.14337   0.0698  0.92274     O
H       0.1527   0.2887    0.905     H
H       0.1544   0.7465   0.4928     H
O      0.16452    0.111    0.369     O
C      0.17348   0.2769  0.77596     C
C      0.18248   0.7744  0.63976     C
C      0.18707   0.7229  0.54854     C
C      0.18902   0.3217  0.87624     C
C      0.19186   0.0813  0.44352     C
O      0.20448    0.611    0.369     O
H       0.2105   0.9417   0.8364     H
H       0.2187    0.295   0.6674     H
O      0.22063   0.4302  0.07726     O
H       0.2272   0.7763   0.7832     H
C      0.22867   0.3253  0.73514     C
Mn     0.22997   0.4964  0.24794    Mn
C      0.23099   0.7408  0.72118     C
C      0.23527   0.0372  0.96034     C
C      0.24017   0.6359  0.53994     C
H       0.2477   0.2113    0.095     H
C      0.25166   0.5813  0.44352     C
C      0.25809   0.4147  0.93318     C
O      0.26467  0.95659  0.91112     O
C      0.27493   0.4628  0.03966     C
C      0.28539   0.6545  0.71218     C
C      0.28873   0.6012  0.62166     C
O      0.29081  0.35934  0.24342     O
H       0.2913   0.0414   0.6152     H
C      0.29828    0.418  0.79336     C
C      0.29977   0.1359  0.53994     C
H       0.3011   0.0689   0.7652     H
O      0.30925   0.5081  0.44108     O
C      0.31257   0.4642  0.89154     C
C      0.31278   0.1783  0.12376     C
H       0.3239   0.5414   0.6152     H
C      0.32491   0.0853  0.06682     C
C      0.33293   0.1012  0.62166     C
O      0.33694  0.62914  0.79934     O
H       0.3384   0.2465   0.4928     H
O      0.35127  0.45891  0.74664     O
O      0.35355  0.54341  0.08888     O
H       0.3586   0.5284   0.9304     H
C      0.36147   0.2229  0.54854     C
H       0.3741   0.5583   0.1636     H
C      0.38422   0.0564  0.79824     C
O      0.38498  0.58803  0.27188     O
C      0.38521   0.3244  0.28562     C
O      0.39537  0.95891  0.74664     O
C      0.39752   0.2231  0.22404     C
H       0.4011   0.0623   0.8688     H
C      0.41402   0.5564  0.79824     C
C      0.42103   0.0358  0.10846     C
C      0.42679   0.1545  0.71218     C
H       0.4282   0.9716   0.0696     H
H        0.444   0.7237   0.2168     H
H       0.4487    0.795   0.6674     H
C      0.45728   0.2744  0.63976     C
O       0.4624  0.12914  0.79934     O
H       0.4641   0.5689   0.7652     H
O      0.46635  0.36587   0.3721     O
H       0.4677   0.5623   0.8688     H
O       0.4786  0.40025    0.575     O
C        0.479   0.6311   0.3526     C
C      0.49019   0.2408  0.72118     C
C      0.49353   0.1747  0.26486     C
C      0.49508    0.918  0.79336     C
Mn         0.5      0.5      0.5    Mn
C      0.50492    0.082  0.20664     C
C      0.50647   0.8253  0.73514     C
C      0.50981   0.7592  0.27882     C
C        0.521   0.3689   0.6474     C
O       0.5214  0.59975    0.425     O
H       0.5323   0.4377   0.1312     H
O      0.53365  0.63413   0.6279     O
H       0.5359   0.4311   0.2348     H
O       0.5376  0.87086  0.20066     O
C      0.54272   0.7256  0.36024     C
H       0.5513    0.205   0.3326     H
H        0.556   0.2763   0.7832     H
H       0.5718   0.0284   0.9304     H
C      0.57321   0.8455  0.28782     C
C      0.57897   0.9642  0.89154     C
C      0.58598   0.4436  0.20176     C
H       0.5989   0.9377   0.1312     H
C      0.60248   0.7769  0.77596     C
O      0.60463  0.04109  0.25336     O
C      0.61479   0.6756  0.71438     C
O      0.61502  0.41197  0.72812     O
C      0.61578   0.9436  0.20176     C
H       0.6259   0.4417   0.8364     H
C      0.63853   0.7771  0.45146     C
H       0.6414   0.4716   0.0696     H
O      0.64645  0.45659  0.91112     O
O      0.64873  0.54109  0.25336     O
H       0.6616   0.7535   0.5072     H
O      0.66306  0.37086  0.20066     O
C      0.66707   0.8988  0.37834     C
C      0.67509   0.9147  0.93318     C
H       0.6761   0.4586   0.3848     H
C      0.68722   0.8217  0.87624     C
C      0.68743   0.5358  0.10846     C
O      0.69075   0.4919  0.55892     O
H       0.6989   0.9311   0.2348     H
C      0.70023   0.8641  0.46006     C
C      0.70172    0.582  0.20664     C
H       0.7087   0.9586   0.3848     H
O      0.70919  0.64066  0.75658     O
C      0.71127   0.3988  0.37834     C
C      0.71461   0.3455  0.28782     C
C      0.72507   0.5372  0.96034     C
O      0.73533  0.04341  0.08888     O
C      0.74191   0.5853  0.06682     C
C      0.74834   0.4187  0.55648     C
H       0.7523   0.7887    0.905     H
C      0.75983   0.3641  0.46006     C
C      0.76473   0.9628  0.03966     C
C      0.76901   0.2592  0.27882     C
Mn     0.77003   0.5036  0.75206    Mn
C      0.77133   0.6747  0.26486     C
H       0.7728   0.2237   0.2168     H
O      0.77937   0.5698  0.92274     O
H       0.7813    0.705   0.3326     H
H       0.7895   0.0583   0.1636     H
O      0.79552    0.389    0.631     O
C      0.80814   0.9187  0.55648     C
C      0.81098   0.6783  0.12376     C
C      0.81293   0.2771  0.45146     C
C      0.81752   0.2256  0.36024     C
C      0.82652   0.7231  0.22404     C
O      0.83548    0.889    0.631     O
H       0.8456   0.2535   0.5072     H
H       0.8473   0.7113    0.095     H
O      0.85663   0.9302  0.07726     O
O      0.86817   0.9919  0.55892     O
C       0.8736   0.1311   0.3526     C
N      0.88243   0.4021  0.83026     N
O       0.8869  0.08803  0.27188     O
C      0.90041   0.8244  0.28562     C
O       0.9036  0.09975    0.425     O
O      0.90575  0.86587   0.3721     O
C      0.90817   0.3608  0.89534     C
C       0.9456   0.2985    0.952     C
N      0.94783   0.9021  0.83026     N
O      0.95261  0.85934  0.24342     O
Mn     0.98203   0.0036  0.75206    Mn
C      0.98717   0.8608  0.89534     C
C       0.9936   0.2015    0.048     C
