data_I
_chemical_name_common  '/home/zhangsd/repos/MofS-CGCNN/ML/data/SSD/clean_cifs/UJEFOE01_clean'
_cell_length_a  8.34400
_cell_length_b 12.31940
_cell_length_c 17.55800
_cell_angle_alpha 98.05830
_cell_angle_beta  90.00000
_cell_angle_gamma 109.79500
_space_group_name_H-M_alt      'P 1'


loop_
_space_group_symop_operation_xyz
  'x, y, z' 

loop_
_atom_site_label
_atom_site_fract_x
_atom_site_fract_y
_atom_site_fract_z
_atom_site_type_symbol
Yb         0.0      0.0      0.0    Yb
Yb         0.0      0.0      0.5    Yb
C       0.0144    0.489     0.96     C
O       0.0152   0.1006   0.2972     O
C       0.0181   0.3288   0.3147     C
C       0.0225    0.443   0.3243     C
H       0.0236   0.6422   0.1288     H
O       0.0264   0.1682    0.574     O
C       0.0313   0.6736   0.3525     C
C       0.0405   0.6266   0.0767     C
C       0.0458   0.7992   0.3688     C
C       0.0466   0.8652   0.6437     C
C       0.0621   0.4032   0.6025     C
C       0.0649   0.7476   0.6375     C
C       0.0687   0.5204   0.6135     C
H        0.074   0.3032    0.274     H
O       0.0854   0.1006   0.7972     O
O       0.0941   0.9246   0.5897     O
C       0.0972    0.584   0.9209     C
C       0.1152   0.5244   0.2781     C
H       0.1175   0.5698    0.869     H
C       0.1179   0.7166   0.0377     C
C       0.1208   0.6378   0.2921     C
H        0.123   0.3782   0.5637     H
O       0.1253   0.8664   0.3242     O
O       0.1418   0.1682    0.074     O
C        0.147   0.6944   0.9571     C
C       0.1541   0.7102   0.5765     C
C       0.1596   0.6018   0.5658     C
C       0.1673    0.843   0.0778     C
O       0.1695   0.0754   0.9103     O
H       0.1737   0.5012   0.2376     H
O       0.1807     0.92   0.0343     O
C       0.1814   0.1348   0.8563     C
Yb     0.18227      0.0     0.25    Yb
H       0.1841   0.6914   0.2614     H
O       0.1906   0.8604   0.1485     O
H       0.1999    0.756   0.9303     H
H       0.2099   0.7618   0.5433     H
H       0.2233     0.58    0.527     H
H       0.2292   0.3032    0.774     H
C       0.2466   0.2008   0.1312     C
H       0.2552   0.3782   0.0637     H
O       0.2589   0.1336   0.1758     O
O       0.2607     0.08   0.4657     O
C       0.3107   0.3288   0.8147     C
C       0.3173   0.2524   0.8625     C
C       0.3243    0.157   0.4222     C
H       0.3275   0.5012   0.7376     H
O       0.3302   0.1396   0.3515     O
C       0.3411   0.4032   0.1025     C
H       0.3567     0.58    0.027     H
C       0.3577   0.3264   0.1475     C
H       0.3814   0.3578   0.3712     H
C       0.4013   0.2834   0.4623     C
C       0.4092   0.5244   0.7781     C
C       0.4139   0.3734   0.4233     C
C       0.4205    0.443   0.8243     C
C       0.4422   0.6018   0.0658     C
H       0.4439    0.244   0.5697     H
C       0.4439   0.2898   0.9235     C
H       0.4481   0.2382   0.9567     H
C       0.4517   0.5204   0.1135     C
H       0.4523   0.5698    0.369     H
C       0.4526   0.3056   0.5429     C
C       0.4746    0.489     0.46     C
C        0.483   0.3622   0.2079     C
C       0.4868    0.584   0.4209     C
H       0.4927   0.3086   0.2386     H
H       0.5073   0.6914   0.7614     H
C       0.5132    0.416   0.5791     C
C        0.517   0.6378   0.7921     C
C       0.5254    0.511     0.54     C
C       0.5474   0.6944   0.4571     C
H       0.5477   0.4302    0.631     H
C       0.5483   0.4796   0.8865     C
H       0.5519   0.7618   0.0433     H
C       0.5561   0.7102   0.0765     C
H       0.5561    0.756   0.4303     H
C       0.5578   0.3982   0.9342     C
C       0.5795    0.557   0.1757     C
C       0.5861   0.6266   0.5767     C
C       0.5908   0.4756   0.2219     C
C       0.5987   0.7166   0.5377     C
H       0.6186   0.6422   0.6288     H
C       0.6423   0.6736   0.8525     C
H       0.6433     0.42    0.973     H
C       0.6589   0.5968   0.8975     C
O       0.6698   0.8604   0.6485     O
H       0.6725   0.4988   0.2624     H
C       0.6757    0.843   0.5778     C
C       0.6827   0.7476   0.1375     C
C       0.6893   0.6712   0.1853     C
O       0.7393     0.92   0.5343     O
O       0.7411   0.8664   0.8242     O
H       0.7448   0.6218   0.9363     H
C       0.7534   0.7992   0.8688     C
H       0.7708   0.6968    0.226     H
H       0.7767     0.42    0.473     H
H       0.7901   0.2382   0.4567     H
H       0.8001    0.244   0.0697     H
O       0.8094   0.1396   0.8515     O
H       0.8159   0.3086   0.7386     H
Yb     0.81773     -0.0     0.75    Yb
C       0.8186   0.8652   0.1437     C
O       0.8193     0.08   0.9657     O
H       0.8263   0.4988   0.7624     H
O       0.8305   0.9246   0.0897     O
C       0.8327    0.157   0.9222     C
C       0.8404   0.3982   0.4342     C
C       0.8459   0.2898   0.4235     C
C        0.853   0.3056   0.0429     C
O       0.8582   0.8318    0.926     O
O       0.8747   0.1336   0.6758     O
H        0.877   0.6218   0.4363     H
C       0.8792   0.3622   0.7079     C
C       0.8821   0.2834   0.9623     C
H       0.8825   0.4302    0.131     H
C       0.8848   0.4756   0.7219     C
C       0.9028    0.416   0.0791     C
O       0.9059   0.0754   0.4103     O
O       0.9146   0.8994   0.2028     O
H        0.926   0.6968    0.726     H
C       0.9313   0.4796   0.3865     C
C       0.9351   0.2524   0.3625     C
C       0.9379   0.5968   0.3975     C
C       0.9534   0.1348   0.3563     C
C       0.9542   0.2008   0.6312     C
C       0.9595   0.3734   0.9233     C
C       0.9687   0.3264   0.6475     C
O       0.9736   0.8318    0.426     O
H       0.9764   0.3578   0.8712     H
C       0.9775    0.557   0.6757     C
C       0.9819   0.6712   0.6853     C
O       0.9848   0.8994   0.7028     O
C       0.9856    0.511     0.04     C
