data_I
_chemical_name_common  '/home/zhangsd/repos/MofS-CGCNN/ML/data/SSD/clean_cifs/UJOJIO01_clean'
_cell_length_a 13.50680
_cell_length_b 13.50680
_cell_length_c  8.06760
_cell_angle_alpha 90.00000
_cell_angle_beta  90.00000
_cell_angle_gamma 120.00000
_space_group_name_H-M_alt      'P 1'


loop_
_space_group_symop_operation_xyz
  'x, y, z' 

loop_
_atom_site_label
_atom_site_fract_x
_atom_site_fract_y
_atom_site_fract_z
_atom_site_type_symbol
H       0.0169   0.5564   0.3012     H
C      0.03277   0.6803   0.1562     C
Mn     0.03538  0.69751  0.54595    Mn
H        0.044   0.6472   0.0563     H
O      0.04919   0.2297  0.90702     O
O      0.05708  0.81288    0.746     O
N       0.0607  0.63305    0.303     N
H       0.0839   0.7624   0.1517     H
H       0.0885   0.2864     0.44     H
C      0.09119  0.34553    0.664     C
C      0.10995  0.26685   0.7806     C
N      0.13145   0.6316   0.6901     N
H       0.1341   0.6503   0.2955     H
N       0.1355  0.45618   0.1058     N
H       0.1364   0.4231   0.7087     H
N      0.13879  0.34672  0.50035     N
H       0.1553   0.4112   0.4454     H
C       0.1569  0.89005   0.7806     C
O      0.18051  0.95081  0.90702     O
O      0.18712   0.2442    0.746     O
H       0.1979   0.9115     0.44     H
C      0.20583  0.64576   0.7762     C
N      0.20793  0.86121  0.50035     N
C      0.21272  0.53539   0.0486     C
O       0.2297  0.18051  0.40702     O
H       0.2376   0.3215   0.1517     H
O       0.2442  0.05708    0.246     O
C      0.25434  0.90881    0.664     C
H       0.2559   0.8447   0.4454     H
C      0.26685   0.1569   0.2806     C
H       0.2864   0.1979     0.94     H
H       0.2867   0.8636   0.7087     H
Mn     0.30249  0.33787  0.54595    Mn
C       0.3197  0.35247   0.1562     C
N      0.32068   0.8645   0.1058     N
H       0.3215   0.0839   0.6517     H
C      0.32267  0.78728   0.0486     C
Mn     0.33333  0.66667  0.92056    Mn
Mn     0.33787  0.03538  0.04595    Mn
C      0.34553  0.25434    0.164     C
N      0.34672  0.20793  0.00035     N
H       0.3497   0.4838   0.2955     H
C      0.35247  0.03277   0.6562     C
H       0.3528   0.3968   0.0563     H
C      0.35424  0.56007   0.7762     C
N      0.36695  0.42765    0.303     N
N       0.3684  0.49985   0.6901     N
H       0.3968    0.044   0.5563     H
H       0.4112   0.2559   0.9454     H
H       0.4231   0.2867   0.2087     H
N      0.42765   0.0607    0.803     N
C      0.43993  0.79417   0.7762     C
H       0.4436   0.4605   0.3012     H
N      0.45618  0.32068   0.6058     N
H       0.4605   0.0169   0.8012     H
C      0.46461  0.67733   0.0486     C
H       0.4838   0.1341   0.7955     H
N      0.49985  0.13145   0.1901     N
N      0.50015  0.86855   0.6901     N
H       0.5162   0.8659   0.2955     H
C      0.53539  0.32267   0.5486     C
H       0.5395   0.9831   0.3012     H
N      0.54382  0.67932   0.1058     N
H       0.5564   0.5395   0.8012     H
C      0.56007  0.20583   0.2762     C
N      0.57235   0.9393    0.303     N
H       0.5769   0.7133   0.7087     H
H       0.5888   0.7441   0.4454     H
H       0.6032    0.956   0.0563     H
N       0.6316  0.50015   0.1901     N
N      0.63305  0.57235    0.803     N
C      0.64576  0.43993   0.2762     C
H       0.6472   0.6032   0.5563     H
C      0.64753  0.96723   0.1562     C
H       0.6503   0.5162   0.7955     H
N      0.65328  0.79207  0.50035     N
C      0.65447  0.74566    0.664     C
Mn     0.66213  0.96462  0.54595    Mn
Mn     0.66667  0.33333  0.42056    Mn
C      0.67733  0.21272   0.5486     C
H       0.6785   0.9161   0.1517     H
N      0.67932   0.1355   0.6058     N
C       0.6803  0.64753   0.6562     C
Mn     0.69751  0.66213  0.04595    Mn
H       0.7133   0.1364   0.2087     H
H       0.7136   0.8021     0.44     H
C      0.73315   0.8431   0.7806     C
H       0.7441   0.1553   0.9454     H
C      0.74566  0.09119    0.164     C
O       0.7558  0.94292    0.746     O
H       0.7624   0.6785   0.6517     H
O       0.7703  0.81949  0.90702     O
C      0.78728  0.46461   0.5486     C
N      0.79207  0.13879  0.00035     N
C      0.79417  0.35424   0.2762     C
H       0.8021   0.0885     0.94     H
O      0.81288   0.7558    0.246     O
O      0.81949  0.04919  0.40702     O
C       0.8431  0.10995   0.2806     C
H       0.8447   0.5888   0.9454     H
N      0.86121  0.65328  0.00035     N
H       0.8636   0.5769   0.2087     H
N       0.8645  0.54382   0.6058     N
H       0.8659   0.3497   0.7955     H
N      0.86855   0.3684   0.1901     N
C      0.89005  0.73315   0.2806     C
C      0.90881  0.65447    0.164     C
H       0.9115   0.7136     0.94     H
H       0.9161   0.2376   0.6517     H
N       0.9393  0.36695    0.803     N
O      0.94292  0.18712    0.246     O
O      0.95081   0.7703  0.40702     O
H        0.956   0.3528   0.5563     H
Mn     0.96462  0.30249  0.04595    Mn
C      0.96723   0.3197   0.6562     C
H       0.9831   0.4436   0.8012     H
