data_I
_chemical_name_common  '/home/zhangsd/repos/MofS-CGCNN/ML/data/SSD/clean_cifs/UJOJAG_clean'
_cell_length_a 13.47500
_cell_length_b 13.47500
_cell_length_c  8.02910
_cell_angle_alpha 90.00000
_cell_angle_beta  90.00000
_cell_angle_gamma 120.00000
_space_group_name_H-M_alt      'P 1'


loop_
_space_group_symop_operation_xyz
  'x, y, z' 

loop_
_atom_site_label
_atom_site_fract_x
_atom_site_fract_y
_atom_site_fract_z
_atom_site_type_symbol
H        0.017   0.5563   0.2004     H
C       0.0334  0.68101   0.3453     C
Mn     0.03474  0.69735  0.95416    Mn
H        0.044   0.6475   0.4459     H
O      0.04754  0.22656   0.5935     O
O      0.05498  0.81587   0.7574     O
N      0.06098  0.63317   0.1982     N
H       0.0851   0.7632   0.3499     H
H       0.0884   0.2861   0.0629     H
C      0.09057  0.34394   0.8364     C
C      0.10762  0.26342   0.7215     C
N      0.13075  0.63223   0.8087     N
H       0.1346   0.6505   0.2053     H
N       0.1358  0.45553   0.3926     N
H       0.1361   0.4211   0.7898     H
N      0.13855  0.34632   0.0015     N
H       0.1552   0.4113   0.0557     H
C       0.1558  0.89238   0.7215     C
O      0.17902  0.95246   0.5935     O
O      0.18413  0.23911   0.7574     O
H       0.1977   0.9116   0.0629     H
C      0.20553  0.64593   0.7243     C
N      0.20777  0.86145   0.0015     N
C      0.21309  0.53497   0.4499     C
O      0.22656  0.17902   0.0935     O
H       0.2368   0.3219   0.3499     H
O      0.23911  0.05498   0.2574     O
C      0.25337  0.90943   0.8364     C
H       0.2561   0.8448   0.0557     H
C      0.26342   0.1558   0.2215     C
H        0.285   0.8639   0.7898     H
H       0.2861   0.1977   0.5629     H
Mn     0.30265  0.33739  0.95416    Mn
C      0.31899  0.35239   0.3453     C
N      0.31973   0.8642   0.3926     N
C      0.32188  0.78691   0.4499     C
H       0.3219   0.0851   0.8499     H
Mn     0.33333  0.66667    0.579    Mn
Mn     0.33739  0.03474  0.45416    Mn
C      0.34394  0.25337   0.3364     C
N      0.34632  0.20777   0.5015     N
H       0.3495   0.4841   0.2053     H
C      0.35239   0.0334   0.8453     C
H       0.3525   0.3965   0.4459     H
C      0.35407   0.5596   0.7243     C
N      0.36683  0.42781   0.1982     N
N      0.36777  0.49852   0.8087     N
H       0.3965    0.044   0.9459     H
H       0.4113   0.2561   0.5557     H
H       0.4211    0.285   0.2898     H
N      0.42781  0.06098   0.6982     N
C       0.4404  0.79447   0.7243     C
H       0.4437   0.4607   0.2004     H
N      0.45553  0.31973   0.8926     N
H       0.4607    0.017   0.7004     H
C      0.46503  0.67812   0.4499     C
H       0.4841   0.1346   0.7053     H
N      0.49852  0.13075   0.3087     N
N      0.50148  0.86925   0.8087     N
H       0.5159   0.8654   0.2053     H
C      0.53497  0.32188   0.9499     C
H       0.5393    0.983   0.2004     H
N      0.54447  0.68027   0.3926     N
H       0.5563   0.5393   0.7004     H
C       0.5596  0.20553   0.2243     C
N      0.57219  0.93902   0.1982     N
H       0.5789    0.715   0.7898     H
H       0.5887   0.7439   0.0557     H
H       0.6035    0.956   0.4459     H
N      0.63223  0.50148   0.3087     N
N      0.63317  0.57219   0.6982     N
C      0.64593   0.4404   0.2243     C
H       0.6475   0.6035   0.9459     H
C      0.64761   0.9666   0.3453     C
H       0.6505   0.5159   0.7053     H
N      0.65368  0.79223   0.0015     N
C      0.65606  0.74663   0.8364     C
Mn     0.66261  0.96526  0.95416    Mn
Mn     0.66667  0.33333    0.079    Mn
H       0.6781   0.9149   0.3499     H
C      0.67812  0.21309   0.9499     C
N      0.68027   0.1358   0.8926     N
C      0.68101  0.64761   0.8453     C
Mn     0.69735  0.66261  0.45416    Mn
H       0.7139   0.8023   0.0629     H
H        0.715   0.1361   0.2898     H
C      0.73658   0.8442   0.7215     C
H       0.7439   0.1552   0.5557     H
C      0.74663  0.09057   0.3364     C
O      0.76089  0.94502   0.7574     O
H       0.7632   0.6781   0.8499     H
O      0.77344  0.82098   0.5935     O
C      0.78691  0.46503   0.9499     C
N      0.79223  0.13855   0.5015     N
C      0.79447  0.35407   0.2243     C
H       0.8023   0.0884   0.5629     H
O      0.81587  0.76089   0.2574     O
O      0.82098  0.04754   0.0935     O
C       0.8442  0.10762   0.2215     C
H       0.8448   0.5887   0.5557     H
N      0.86145  0.65368   0.5015     N
H       0.8639   0.5789   0.2898     H
N       0.8642  0.54447   0.8926     N
H       0.8654   0.3495   0.7053     H
N      0.86925  0.36777   0.3087     N
C      0.89238  0.73658   0.2215     C
C      0.90943  0.65606   0.3364     C
H       0.9116   0.7139   0.5629     H
H       0.9149   0.2368   0.8499     H
N      0.93902  0.36683   0.6982     N
O      0.94502  0.18413   0.2574     O
O      0.95246  0.77344   0.0935     O
H        0.956   0.3525   0.9459     H
Mn     0.96526  0.30265  0.45416    Mn
C       0.9666  0.31899   0.8453     C
H        0.983   0.4437   0.7004     H
