data_I
_chemical_name_common  '/home/zhangsd/repos/MofS-CGCNN/ML/data/SSD/clean_cifs/UJOJEK_clean'
_cell_length_a 13.51050
_cell_length_b 13.51050
_cell_length_c  8.04630
_cell_angle_alpha 90.00000
_cell_angle_beta  90.00000
_cell_angle_gamma 120.00000
_space_group_name_H-M_alt      'P 1'


loop_
_space_group_symop_operation_xyz
  'x, y, z' 

loop_
_atom_site_label
_atom_site_fract_x
_atom_site_fract_y
_atom_site_fract_z
_atom_site_type_symbol
H       0.0169   0.5565   0.1998     H
C       0.0327   0.6803   0.3445     C
Mn     0.03562  0.69751  0.95433    Mn
H       0.0437   0.6471   0.4449     H
O       0.0485  0.22935   0.5935     O
O       0.0572  0.81313   0.7541     O
N      0.06077   0.6332    0.198     N
H       0.0838   0.7623   0.3492     H
H       0.0883   0.2861   0.0606     H
C       0.0913   0.3455   0.8361     C
C       0.1095   0.2669   0.7199     C
N       0.1316   0.6316     0.81     N
H       0.1341   0.6504   0.2056     H
N       0.1351   0.4559   0.3939     N
H       0.1366    0.423   0.7912     H
N       0.1386   0.3466   0.0002     N
H        0.155    0.411   0.0554     H
C       0.1574   0.8905   0.7199     C
O      0.18085   0.9515   0.5935     O
O      0.18687  0.24407   0.7541     O
H       0.1978   0.9117   0.0606     H
C       0.2058   0.6459   0.7237     C
N        0.208   0.8614   0.0002     N
C       0.2126  0.53506   0.4512     C
O      0.22935  0.18085   0.0935     O
H       0.2377   0.3215   0.3492     H
O      0.24407   0.0572   0.2541     O
C       0.2542   0.9087   0.8361     C
H        0.256    0.845   0.0554     H
C       0.2669   0.1574   0.2199     C
H       0.2861   0.1978   0.5606     H
H       0.2864   0.8634   0.7912     H
Mn     0.30249  0.33811  0.95433    Mn
C       0.3197   0.3524   0.3445     C
N       0.3208   0.8649   0.3939     N
H       0.3215   0.0838   0.8492     H
C      0.32246   0.7874   0.4512     C
Mn     0.33333  0.66667  0.57877    Mn
Mn     0.33811  0.03562  0.45433    Mn
C       0.3455   0.2542   0.3361     C
N       0.3466    0.208   0.5002     N
H       0.3496   0.4837   0.2056     H
C       0.3524   0.0327   0.8445     C
H       0.3529   0.3966   0.4449     H
C       0.3541   0.5599   0.7237     C
N       0.3668  0.42757    0.198     N
N       0.3684      0.5     0.81     N
H       0.3966   0.0437   0.9449     H
H        0.411    0.256   0.5554     H
H        0.423   0.2864   0.2912     H
N      0.42757  0.06077    0.698     N
C       0.4401   0.7942   0.7237     C
H       0.4435   0.4604   0.1998     H
N       0.4559   0.3208   0.8939     N
H       0.4604   0.0169   0.6998     H
C      0.46494  0.67754   0.4512     C
H       0.4837   0.1341   0.7056     H
N          0.5   0.1316     0.31     N
N          0.5   0.8684     0.81     N
H       0.5163   0.8659   0.2056     H
C      0.53506  0.32246   0.9512     C
H       0.5396   0.9831   0.1998     H
N       0.5441   0.6792   0.3939     N
H       0.5565   0.5396   0.6998     H
C       0.5599   0.2058   0.2237     C
N      0.57243  0.93923    0.198     N
H        0.577   0.7136   0.7912     H
H        0.589    0.744   0.0554     H
H       0.6034   0.9563   0.4449     H
N       0.6316      0.5     0.31     N
N       0.6332  0.57243    0.698     N
C       0.6459   0.4401   0.2237     C
H       0.6471   0.6034   0.9449     H
C       0.6476   0.9673   0.3445     C
H       0.6504   0.5163   0.7056     H
N       0.6534    0.792   0.0002     N
C       0.6545   0.7458   0.8361     C
Mn     0.66189  0.96438  0.95433    Mn
Mn     0.66667  0.33333  0.07877    Mn
C      0.67754   0.2126   0.9512     C
H       0.6785   0.9162   0.3492     H
N       0.6792   0.1351   0.8939     N
C       0.6803   0.6476   0.8445     C
Mn     0.69751  0.66189  0.45433    Mn
H       0.7136   0.1366   0.2912     H
H       0.7139   0.8022   0.0606     H
C       0.7331   0.8426   0.7199     C
H        0.744    0.155   0.5554     H
C       0.7458   0.0913   0.3361     C
O      0.75593   0.9428   0.7541     O
H       0.7623   0.6785   0.8492     H
O      0.77065  0.81915   0.5935     O
C       0.7874  0.46494   0.9512     C
N        0.792   0.1386   0.5002     N
C       0.7942   0.3541   0.2237     C
H       0.8022   0.0883   0.5606     H
O      0.81313  0.75593   0.2541     O
O      0.81915   0.0485   0.0935     O
C       0.8426   0.1095   0.2199     C
H        0.845    0.589   0.5554     H
N       0.8614   0.6534   0.5002     N
H       0.8634    0.577   0.2912     H
N       0.8649   0.5441   0.8939     N
H       0.8659   0.3496   0.7056     H
N       0.8684   0.3684     0.31     N
C       0.8905   0.7331   0.2199     C
C       0.9087   0.6545   0.3361     C
H       0.9117   0.7139   0.5606     H
H       0.9162   0.2377   0.8492     H
N      0.93923   0.3668    0.698     N
O       0.9428  0.18687   0.2541     O
O       0.9515  0.77065   0.0935     O
H       0.9563   0.3529   0.9449     H
Mn     0.96438  0.30249  0.45433    Mn
C       0.9673   0.3197   0.8445     C
H       0.9831   0.4435   0.6998     H
