data_I
_chemical_name_common  '/home/zhangsd/repos/MofS-CGCNN/ML/data/SSD/clean_cifs/UJOJOU01_clean'
_cell_length_a 13.48460
_cell_length_b 13.48460
_cell_length_c  8.03200
_cell_angle_alpha 90.00000
_cell_angle_beta  90.00000
_cell_angle_gamma 120.00000
_space_group_name_H-M_alt      'P 1'


loop_
_space_group_symop_operation_xyz
  'x, y, z' 

loop_
_atom_site_label
_atom_site_fract_x
_atom_site_fract_y
_atom_site_fract_z
_atom_site_type_symbol
H        0.019   0.5567   0.3013     H
C       0.0341   0.6793   0.1541     C
Mn     0.03731  0.69858  0.54463    Mn
H       0.0441   0.6445   0.0546     H
O      0.04493   0.2262   0.9032     O
O      0.05749  0.81709   0.7424     O
N       0.0625   0.6335   0.3021     N
H       0.0859   0.7613   0.1472     H
H        0.088   0.2889   0.4369     H
C         0.09   0.3452   0.6626     C
C       0.1068   0.2645    0.777     C
N       0.1324   0.6331   0.6929     N
N       0.1337    0.454   0.1037     N
H       0.1355   0.4221   0.7099     H
H       0.1362   0.6512   0.2947     H
N       0.1381   0.3485   0.4993     N
H       0.1551   0.4139    0.446     H
C       0.1577   0.8932    0.777     C
O      0.18127  0.95507   0.9032     O
O      0.18291   0.2404   0.7424     O
H       0.2009    0.912   0.4369     H
C        0.206   0.6467   0.7786     C
N       0.2104   0.8619   0.4993     N
C       0.2111   0.5336   0.0481     C
O       0.2262  0.18127   0.4032     O
H       0.2387   0.3246   0.1472     H
O       0.2404  0.05749   0.2424     O
C       0.2552     0.91   0.6626     C
H       0.2588   0.8449    0.446     H
C       0.2645   0.1577    0.277     C
H       0.2866   0.8645   0.7099     H
H       0.2889   0.2009   0.9369     H
Mn     0.30142  0.33873  0.54463    Mn
N       0.3203   0.8663   0.1037     N
C       0.3207   0.3548   0.1541     C
C       0.3225   0.7889   0.0481     C
H       0.3246   0.0859   0.6472     H
Mn     0.33333  0.66667   0.9248    Mn
Mn     0.33873  0.03731  0.04463    Mn
C       0.3452   0.2552   0.1626     C
N       0.3485   0.2104   0.9993     N
H       0.3488    0.485   0.2947     H
C       0.3533   0.5593   0.7786     C
C       0.3548   0.0341   0.6541     C
H       0.3555   0.3996   0.0546     H
N       0.3665    0.429   0.3021     N
N       0.3669   0.4993   0.6929     N
H       0.3996   0.0441   0.5546     H
H       0.4139   0.2588    0.946     H
H       0.4221   0.2866   0.2099     H
N        0.429   0.0625   0.8021     N
C       0.4407    0.794   0.7786     C
H       0.4433   0.4623   0.3013     H
N        0.454   0.3203   0.6037     N
H       0.4623    0.019   0.8013     H
C       0.4664   0.6775   0.0481     C
H        0.485   0.1362   0.7947     H
N       0.4993   0.1324   0.1929     N
N       0.5007   0.8676   0.6929     N
H        0.515   0.8638   0.2947     H
C       0.5336   0.3225   0.5481     C
H       0.5377    0.981   0.3013     H
N        0.546   0.6797   0.1037     N
H       0.5567   0.5377   0.8013     H
C       0.5593    0.206   0.2786     C
N        0.571   0.9375   0.3021     N
H       0.5779   0.7134   0.7099     H
H       0.5861   0.7412    0.446     H
H       0.6004   0.9559   0.0546     H
N       0.6331   0.5007   0.1929     N
N       0.6335    0.571   0.8021     N
H       0.6445   0.6004   0.5546     H
C       0.6452   0.9659   0.1541     C
C       0.6467   0.4407   0.2786     C
H       0.6512    0.515   0.7947     H
N       0.6515   0.7896   0.4993     N
C       0.6548   0.7448   0.6626     C
Mn     0.66127  0.96269  0.54463    Mn
Mn     0.66667  0.33333   0.4248    Mn
H       0.6754   0.9141   0.1472     H
C       0.6775   0.2111   0.5481     C
C       0.6793   0.6452   0.6541     C
N       0.6797   0.1337   0.6037     N
Mn     0.69858  0.66127  0.04463    Mn
H       0.7111   0.7991   0.4369     H
H       0.7134   0.1355   0.2099     H
C       0.7355   0.8423    0.777     C
H       0.7412   0.1551    0.946     H
C       0.7448     0.09   0.1626     C
O       0.7596  0.94251   0.7424     O
H       0.7613   0.6754   0.6472     H
O       0.7738  0.81873   0.9032     O
C       0.7889   0.4664   0.5481     C
N       0.7896   0.1381   0.9993     N
C        0.794   0.3533   0.2786     C
H       0.7991    0.088   0.9369     H
O      0.81709   0.7596   0.2424     O
O      0.81873  0.04493   0.4032     O
C       0.8423   0.1068    0.277     C
H       0.8449   0.5861    0.946     H
N       0.8619   0.6515   0.9993     N
H       0.8638   0.3488   0.7947     H
H       0.8645   0.5779   0.2099     H
N       0.8663    0.546   0.6037     N
N       0.8676   0.3669   0.1929     N
C       0.8932   0.7355    0.277     C
C         0.91   0.6548   0.1626     C
H        0.912   0.7111   0.9369     H
H       0.9141   0.2387   0.6472     H
N       0.9375   0.3665   0.8021     N
O      0.94251  0.18291   0.2424     O
O      0.95507   0.7738   0.4032     O
H       0.9559   0.3555   0.5546     H
Mn     0.96269  0.30142  0.04463    Mn
C       0.9659   0.3207   0.6541     C
H        0.981   0.4433   0.8013     H
