data_I
_chemical_name_common  '/home/zhangsd/repos/MofS-CGCNN/ML/data/SSD/clean_cifs/UJOJOU_clean'
_cell_length_a 13.48730
_cell_length_b 13.48730
_cell_length_c  8.02560
_cell_angle_alpha 90.00000
_cell_angle_beta  90.00000
_cell_angle_gamma 120.00000
_space_group_name_H-M_alt      'P 1'


loop_
_space_group_symop_operation_xyz
  'x, y, z' 

loop_
_atom_site_label
_atom_site_fract_x
_atom_site_fract_y
_atom_site_fract_z
_atom_site_type_symbol
H       0.0186   0.5566   0.3001     H
C       0.0339   0.6796   0.1535     C
Mn     0.03701  0.69842  0.54474    Mn
H       0.0438   0.6451   0.0536     H
O      0.04532  0.22616   0.9037     O
O      0.05707  0.81684   0.7422     O
N      0.06226  0.63339   0.3012     N
H       0.0856   0.7616   0.1471     H
H       0.0883   0.2885    0.436     H
C       0.0899    0.345   0.6631     C
C       0.1066   0.2644   0.7773     C
N       0.1325   0.6333   0.6929     N
N       0.1338   0.4544   0.1039     N
H       0.1353   0.4219   0.7104     H
H       0.1358   0.6509   0.2937     H
N       0.1383   0.3482   0.4982     N
H       0.1553   0.4135   0.4447     H
C       0.1578   0.8934   0.7773     C
O      0.18084  0.95468   0.9037     O
O      0.18316  0.24023   0.7422     O
H       0.2002   0.9117    0.436     H
C       0.2063   0.6466   0.7786     C
N       0.2099   0.8617   0.4982     N
C      0.21142  0.53366   0.0486     C
O      0.22616  0.18084   0.4037     O
H       0.2384    0.324   0.1471     H
O      0.24023  0.05707   0.2422     O
C       0.2551   0.9101   0.6631     C
H       0.2582   0.8447   0.4447     H
C       0.2644   0.1578   0.2773     C
H       0.2866   0.8647   0.7104     H
H       0.2885   0.2002    0.936     H
Mn     0.30158  0.33859  0.54474    Mn
C       0.3204   0.3543   0.1535     C
N       0.3206   0.8662   0.1039     N
C      0.32224  0.78858   0.0486     C
H        0.324   0.0856   0.6471     H
Mn     0.33333  0.66667  0.92447    Mn
Mn     0.33859  0.03701  0.04474    Mn
C        0.345   0.2551   0.1631     C
N       0.3482   0.2099   0.9982     N
H       0.3491   0.4849   0.2937     H
C       0.3534   0.5597   0.7786     C
C       0.3543   0.0339   0.6535     C
H       0.3549   0.3987   0.0536     H
N      0.36661  0.42887   0.3012     N
N       0.3667   0.4992   0.6929     N
H       0.3987   0.0438   0.5536     H
H       0.4135   0.2582   0.9447     H
H       0.4219   0.2866   0.2104     H
N      0.42887  0.06226   0.8012     N
C       0.4403   0.7937   0.7786     C
H       0.4434    0.462   0.3001     H
N       0.4544   0.3206   0.6039     N
H        0.462   0.0186   0.8001     H
C      0.46634  0.67776   0.0486     C
H       0.4849   0.1358   0.7937     H
N       0.4992   0.1325   0.1929     N
N       0.5008   0.8675   0.6929     N
H       0.5151   0.8642   0.2937     H
C      0.53366  0.32224   0.5486     C
H        0.538   0.9814   0.3001     H
N       0.5456   0.6794   0.1039     N
H       0.5566    0.538   0.8001     H
C       0.5597   0.2063   0.2786     C
N      0.57113  0.93774   0.3012     N
H       0.5781   0.7134   0.7104     H
H       0.5865   0.7418   0.4447     H
H       0.6013   0.9562   0.0536     H
N       0.6333   0.5008   0.1929     N
N      0.63339  0.57113   0.8012     N
H       0.6451   0.6013   0.5536     H
C       0.6457   0.9661   0.1535     C
C       0.6466   0.4403   0.2786     C
H       0.6509   0.5151   0.7937     H
N       0.6518   0.7901   0.4982     N
C        0.655   0.7449   0.6631     C
Mn     0.66141  0.96299  0.54474    Mn
Mn     0.66667  0.33333  0.42447    Mn
H        0.676   0.9144   0.1471     H
C      0.67776  0.21142   0.5486     C
N       0.6794   0.1338   0.6039     N
C       0.6796   0.6457   0.6535     C
Mn     0.69842  0.66141  0.04474    Mn
H       0.7115   0.7998    0.436     H
H       0.7134   0.1353   0.2104     H
C       0.7356   0.8422   0.7773     C
H       0.7418   0.1553   0.9447     H
C       0.7449   0.0899   0.1631     C
O      0.75977  0.94293   0.7422     O
H       0.7616    0.676   0.6471     H
O      0.77384  0.81916   0.9037     O
C      0.78858  0.46634   0.5486     C
N       0.7901   0.1383   0.9982     N
C       0.7937   0.3534   0.2786     C
H       0.7998   0.0883    0.936     H
O      0.81684  0.75977   0.2422     O
O      0.81916  0.04532   0.4037     O
C       0.8422   0.1066   0.2773     C
H       0.8447   0.5865   0.9447     H
N       0.8617   0.6518   0.9982     N
H       0.8642   0.3491   0.7937     H
H       0.8647   0.5781   0.2104     H
N       0.8662   0.5456   0.6039     N
N       0.8675   0.3667   0.1929     N
C       0.8934   0.7356   0.2773     C
C       0.9101    0.655   0.1631     C
H       0.9117   0.7115    0.936     H
H       0.9144   0.2384   0.6471     H
N      0.93774  0.36661   0.8012     N
O      0.94293  0.18316   0.2422     O
O      0.95468  0.77384   0.4037     O
H       0.9562   0.3549   0.5536     H
Mn     0.96299  0.30158  0.04474    Mn
C       0.9661   0.3204   0.6535     C
H       0.9814   0.4434   0.8001     H
