data_I
_chemical_name_common  '/home/zhangsd/repos/MofS-CGCNN/ML/data/SSD/clean_cifs/UJOJIO04_clean'
_cell_length_a 13.52740
_cell_length_b 13.52740
_cell_length_c  8.07260
_cell_angle_alpha 90.00000
_cell_angle_beta  90.00000
_cell_angle_gamma 120.00000
_space_group_name_H-M_alt      'P 1'


loop_
_space_group_symop_operation_xyz
  'x, y, z' 

loop_
_atom_site_label
_atom_site_fract_x
_atom_site_fract_y
_atom_site_fract_z
_atom_site_type_symbol
H       0.0184   0.5575   0.3017     H
C       0.0334   0.6803   0.1564     C
Mn      0.0369  0.69868  0.54516    Mn
H       0.0445   0.6469   0.0569     H
O      0.04806  0.22957   0.9061     O
O      0.05844  0.81281   0.7465     O
N      0.06186  0.63407   0.3029     N
H       0.0842   0.7622   0.1512     H
H       0.0878   0.2866   0.4398     H
C       0.0906   0.3456   0.6638     C
C       0.1093   0.2673   0.7801     C
N       0.1323   0.6322   0.6919     N
N        0.134   0.4555   0.1031     N
H       0.1353   0.6516   0.2952     H
H       0.1358   0.4231   0.7085     H
N       0.1381   0.3469   0.5001     N
H       0.1544   0.4112   0.4453     H
C        0.158   0.8907   0.7801     C
O      0.18151  0.95194   0.9061     O
O      0.18719  0.24563   0.7465     O
H       0.1988   0.9122   0.4398     H
C      0.20613  0.64633   0.7766     C
N       0.2088   0.8619   0.5001     N
C      0.21185  0.53477   0.0485     C
O      0.22957  0.18151   0.4061     O
H       0.2378    0.322   0.1512     H
O      0.24563  0.05844   0.2465     O
C        0.255   0.9094   0.6638     C
H       0.2568   0.8456   0.4453     H
C       0.2673    0.158   0.2801     C
H       0.2866   0.1988   0.9398     H
H       0.2873   0.8642   0.7085     H
Mn     0.30132  0.33822  0.54516    Mn
C       0.3197   0.3531   0.1564     C
N       0.3215    0.866   0.1031     N
H        0.322   0.0842   0.6512     H
C      0.32292  0.78815   0.0485     C
Mn     0.33333  0.66667   0.9224    Mn
Mn     0.33822   0.0369  0.04516    Mn
C       0.3456    0.255   0.1638     C
N       0.3469   0.2088   0.0001     N
H       0.3484   0.4837   0.2952     H
C       0.3531   0.0334   0.6564     C
H       0.3531   0.3976   0.0569     H
C      0.35367   0.5598   0.7766     C
N      0.36593  0.42779   0.3029     N
N       0.3678   0.5001   0.6919     N
H       0.3976   0.0445   0.5569     H
H       0.4112   0.2568   0.9453     H
H       0.4231   0.2873   0.2085     H
N      0.42779  0.06186   0.8029     N
C       0.4402  0.79387   0.7766     C
H       0.4425   0.4609   0.3017     H
N       0.4555   0.3215   0.6031     N
H       0.4609   0.0184   0.8017     H
C      0.46523  0.67708   0.0485     C
H       0.4837   0.1353   0.7952     H
N       0.4999   0.8677   0.6919     N
N       0.5001   0.1323   0.1919     N
H       0.5163   0.8647   0.2952     H
C      0.53477  0.32292   0.5485     C
H       0.5391   0.9816   0.3017     H
N       0.5445   0.6785   0.1031     N
H       0.5575   0.5391   0.8017     H
C       0.5598  0.20613   0.2766     C
N      0.57221  0.93814   0.3029     N
H       0.5769   0.7127   0.7085     H
H       0.5888   0.7432   0.4453     H
H       0.6024   0.9555   0.0569     H
N       0.6322   0.4999   0.1919     N
N      0.63407  0.57221   0.8029     N
C      0.64633   0.4402   0.2766     C
H       0.6469   0.6024   0.5569     H
C       0.6469   0.9666   0.1564     C
H       0.6516   0.5163   0.7952     H
N       0.6531   0.7912   0.5001     N
C       0.6544    0.745   0.6638     C
Mn     0.66178   0.9631  0.54516    Mn
Mn     0.66667  0.33333   0.4224    Mn
C      0.67708  0.21185   0.5485     C
H        0.678   0.9158   0.1512     H
N       0.6785    0.134   0.6031     N
C       0.6803   0.6469   0.6564     C
Mn     0.69868  0.66178  0.04516    Mn
H       0.7127   0.1358   0.2085     H
H       0.7134   0.8012   0.4398     H
C       0.7327    0.842   0.7801     C
H       0.7432   0.1544   0.9453     H
C        0.745   0.0906   0.1638     C
O      0.75437  0.94156   0.7465     O
H       0.7622    0.678   0.6512     H
O      0.77043  0.81849   0.9061     O
C      0.78815  0.46523   0.5485     C
N       0.7912   0.1381   0.0001     N
C      0.79387  0.35367   0.2766     C
H       0.8012   0.0878   0.9398     H
O      0.81281  0.75437   0.2465     O
O      0.81849  0.04806   0.4061     O
C        0.842   0.1093   0.2801     C
H       0.8456   0.5888   0.9453     H
N       0.8619   0.6531   0.0001     N
H       0.8642   0.5769   0.2085     H
H       0.8647   0.3484   0.7952     H
N        0.866   0.5445   0.6031     N
N       0.8677   0.3678   0.1919     N
C       0.8907   0.7327   0.2801     C
C       0.9094   0.6544   0.1638     C
H       0.9122   0.7134   0.9398     H
H       0.9158   0.2378   0.6512     H
N      0.93814  0.36593   0.8029     N
O      0.94156  0.18719   0.2465     O
O      0.95194  0.77043   0.4061     O
H       0.9555   0.3531   0.5569     H
Mn      0.9631  0.30132  0.04516    Mn
C       0.9666   0.3197   0.6564     C
H       0.9816   0.4425   0.8017     H
