data_I
_chemical_name_common  '/home/zhangsd/repos/MofS-CGCNN/ML/data/SSD/clean_cifs/UJOJEK01_clean'
_cell_length_a 13.52630
_cell_length_b 13.52630
_cell_length_c  8.05670
_cell_angle_alpha 90.00000
_cell_angle_beta  90.00000
_cell_angle_gamma 120.00000
_space_group_name_H-M_alt      'P 1'


loop_
_space_group_symop_operation_xyz
  'x, y, z' 

loop_
_atom_site_label
_atom_site_fract_x
_atom_site_fract_y
_atom_site_fract_z
_atom_site_type_symbol
H       0.0167   0.5567   0.1994     H
C       0.0323   0.6804   0.3441     C
Mn     0.03541   0.6975  0.95413    Mn
H       0.0436   0.6476   0.4444     H
O      0.04913  0.22991   0.5928     O
O      0.05733  0.81216   0.7531     O
N      0.06046  0.63322   0.1976     N
H       0.0832   0.7624   0.3484     H
H       0.0886   0.2861   0.0599     H
C      0.09146  0.34566    0.836     C
C       0.1103  0.26724   0.7191     C
N      0.13173  0.63141   0.8102     N
H       0.1338   0.6505   0.2053     H
N      0.13548  0.45632   0.3937     N
H       0.1365   0.4232   0.7915     H
N      0.13888  0.34651   0.9997     N
H       0.1552   0.4107    0.055     H
C      0.15694   0.8897   0.7191     C
O      0.18078  0.95087   0.5928     O
O      0.18784  0.24517   0.7531     O
H       0.1975   0.9114   0.0599     H
C      0.20583  0.64574   0.7242     C
N      0.20763  0.86112   0.9997     N
C      0.21273  0.53535   0.4511     C
O      0.22991  0.18078   0.0928     O
H       0.2376   0.3208   0.3484     H
O      0.24517  0.05733   0.2531     O
C       0.2542  0.90854    0.836     C
H       0.2555   0.8448    0.055     H
C      0.26724  0.15694   0.2191     C
H       0.2861   0.1975   0.5599     H
H       0.2867   0.8635   0.7915     H
Mn      0.3025  0.33791  0.95413    Mn
C       0.3196   0.3519   0.3441     C
H       0.3208   0.0832   0.8484     H
N      0.32084  0.86452   0.3937     N
C      0.32262  0.78727   0.4511     C
Mn     0.33333  0.66667  0.57942    Mn
Mn     0.33791  0.03541  0.45413    Mn
C      0.34566   0.2542    0.336     C
N      0.34651  0.20763   0.4997     N
H       0.3495   0.4833   0.2053     H
C       0.3519   0.0323   0.8441     C
H       0.3524    0.396   0.4444     H
C      0.35426  0.56009   0.7242     C
N      0.36678  0.42724   0.1976     N
N      0.36859  0.50032   0.8102     N
H        0.396   0.0436   0.9444     H
H       0.4107   0.2555    0.555     H
H       0.4232   0.2867   0.2915     H
N      0.42724  0.06046   0.6976     N
C      0.43991  0.79417   0.7242     C
H       0.4433     0.46   0.1994     H
N      0.45632  0.32084   0.8937     N
H         0.46   0.0167   0.6994     H
C      0.46465  0.67738   0.4511     C
H       0.4833   0.1338   0.7053     H
N      0.49968  0.86827   0.8102     N
N      0.50032  0.13173   0.3102     N
H       0.5167   0.8662   0.2053     H
C      0.53535  0.32262   0.9511     C
H         0.54   0.9833   0.1994     H
N      0.54368  0.67916   0.3937     N
H       0.5567     0.54   0.6994     H
C      0.56009  0.20583   0.2242     C
N      0.57276  0.93954   0.1976     N
H       0.5768   0.7133   0.7915     H
H       0.5893   0.7445    0.055     H
H        0.604   0.9564   0.4444     H
N      0.63141  0.49968   0.3102     N
N      0.63322  0.57276   0.6976     N
C      0.64574  0.43991   0.2242     C
H       0.6476    0.604   0.9444     H
C       0.6481   0.9677   0.3441     C
H       0.6505   0.5167   0.7053     H
N      0.65349  0.79237   0.9997     N
C      0.65434   0.7458    0.836     C
Mn     0.66209  0.96459  0.95413    Mn
Mn     0.66667  0.33333  0.07942    Mn
C      0.67738  0.21273   0.9511     C
N      0.67916  0.13548   0.8937     N
H       0.6792   0.9168   0.3484     H
C       0.6804   0.6481   0.8441     C
Mn      0.6975  0.66209  0.45413    Mn
H       0.7133   0.1365   0.2915     H
H       0.7139   0.8025   0.0599     H
C      0.73276  0.84306   0.7191     C
H       0.7445   0.1552    0.555     H
C       0.7458  0.09146    0.336     C
O      0.75483  0.94267   0.7531     O
H       0.7624   0.6792   0.8484     H
O      0.77009  0.81922   0.5928     O
C      0.78727  0.46465   0.9511     C
N      0.79237  0.13888   0.4997     N
C      0.79417  0.35426   0.2242     C
H       0.8025   0.0886   0.5599     H
O      0.81216  0.75483   0.2531     O
O      0.81922  0.04913   0.0928     O
C      0.84306   0.1103   0.2191     C
H       0.8448   0.5893    0.555     H
N      0.86112  0.65349   0.4997     N
H       0.8635   0.5768   0.2915     H
N      0.86452  0.54368   0.8937     N
H       0.8662   0.3495   0.7053     H
N      0.86827  0.36859   0.3102     N
C       0.8897  0.73276   0.2191     C
C      0.90854  0.65434    0.336     C
H       0.9114   0.7139   0.5599     H
H       0.9168   0.2376   0.8484     H
N      0.93954  0.36678   0.6976     N
O      0.94267  0.18784   0.2531     O
O      0.95087  0.77009   0.0928     O
H       0.9564   0.3524   0.9444     H
Mn     0.96459   0.3025  0.45413    Mn
C       0.9677   0.3196   0.8441     C
H       0.9833   0.4433   0.6994     H
