data_I
_chemical_name_common  '/home/zhangsd/repos/MofS-CGCNN/ML/data/SSD/clean_cifs/UJOJEK02_clean'
_cell_length_a 13.49170
_cell_length_b 13.49170
_cell_length_c  8.06440
_cell_angle_alpha 90.00000
_cell_angle_beta  90.00000
_cell_angle_gamma 120.00000
_space_group_name_H-M_alt      'P 1'


loop_
_space_group_symop_operation_xyz
  'x, y, z' 

loop_
_atom_site_label
_atom_site_fract_x
_atom_site_fract_y
_atom_site_fract_z
_atom_site_type_symbol
H       0.0174   0.5563   0.1989     H
C       0.0331   0.6802    0.344     C
Mn     0.03542  0.69741   0.9542    Mn
H       0.0441   0.6468   0.4439     H
O      0.04822  0.22856   0.5936     O
O      0.05669  0.81444   0.7559     O
N      0.06114  0.63307   0.1972     N
H       0.0844   0.7623   0.3488     H
H       0.0884   0.2868   0.0607     H
C      0.09106  0.34531   0.8359     C
C        0.109  0.26591   0.7205     C
N      0.13111   0.6318   0.8091     N
H       0.1347   0.6505   0.2045     H
N      0.13525  0.45563   0.3941     N
H       0.1364   0.4227   0.7904     H
N      0.13867  0.34703      0.0     N
H       0.1552   0.4117   0.0544     H
C      0.15691    0.891   0.7205     C
O      0.18034  0.95178   0.5936     O
O      0.18556  0.24225   0.7559     O
H       0.1984   0.9116   0.0607     H
C      0.20585  0.64602   0.7234     C
N      0.20836  0.86133      0.0     N
C       0.2128  0.53517   0.4509     C
O      0.22856  0.18034   0.0936     O
H       0.2377   0.3221   0.3488     H
O      0.24225  0.05669   0.2559     O
C      0.25425  0.90894   0.8359     C
H       0.2565   0.8448   0.0544     H
C      0.26591  0.15691   0.2205     C
H       0.2863   0.8636   0.7904     H
H       0.2868   0.1984   0.5607     H
Mn     0.30259  0.33801   0.9542    Mn
C       0.3198   0.3529    0.344     C
N      0.32038  0.86475   0.3941     N
H       0.3221   0.0844   0.8488     H
C      0.32237   0.7872   0.4509     C
Mn     0.33333  0.66667  0.57888    Mn
Mn     0.33801  0.03542   0.4542    Mn
C      0.34531  0.25425   0.3359     C
N      0.34703  0.20836      0.5     N
H       0.3495   0.4842   0.2045     H
C       0.3529   0.0331    0.844     C
H       0.3532   0.3973   0.4439     H
C      0.35398  0.55983   0.7234     C
N      0.36693  0.42807   0.1972     N
N       0.3682  0.49931   0.8091     N
H       0.3973   0.0441   0.9439     H
H       0.4117   0.2565   0.5544     H
H       0.4227   0.2863   0.2904     H
N      0.42807  0.06114   0.6972     N
C      0.44017  0.79415   0.7234     C
H       0.4437   0.4611   0.1989     H
N      0.45563  0.32038   0.8941     N
H       0.4611   0.0174   0.6989     H
C      0.46483  0.67763   0.4509     C
H       0.4842   0.1347   0.7045     H
N      0.49931  0.13111   0.3091     N
N      0.50069  0.86889   0.8091     N
H       0.5158   0.8653   0.2045     H
C      0.53517  0.32237   0.9509     C
H       0.5389   0.9826   0.1989     H
N      0.54437  0.67962   0.3941     N
H       0.5563   0.5389   0.6989     H
C      0.55983  0.20585   0.2234     C
N      0.57193  0.93886   0.1972     N
H       0.5773   0.7137   0.7904     H
H       0.5883   0.7435   0.0544     H
H       0.6027   0.9559   0.4439     H
N       0.6318  0.50069   0.3091     N
N      0.63307  0.57193   0.6972     N
C      0.64602  0.44017   0.2234     C
H       0.6468   0.6027   0.9439     H
C       0.6471   0.9669    0.344     C
H       0.6505   0.5158   0.7045     H
N      0.65297  0.79164      0.0     N
C      0.65469  0.74575   0.8359     C
Mn     0.66199  0.96458   0.9542    Mn
Mn     0.66667  0.33333  0.07888    Mn
C      0.67763   0.2128   0.9509     C
H       0.6779   0.9156   0.3488     H
N      0.67962  0.13525   0.8941     N
C       0.6802   0.6471    0.844     C
Mn     0.69741  0.66199   0.4542    Mn
H       0.7132   0.8016   0.0607     H
H       0.7137   0.1364   0.2904     H
C      0.73409  0.84309   0.7205     C
H       0.7435   0.1552   0.5544     H
C      0.74575  0.09106   0.3359     C
O      0.75775  0.94331   0.7559     O
H       0.7623   0.6779   0.8488     H
O      0.77144  0.81966   0.5936     O
C       0.7872  0.46483   0.9509     C
N      0.79164  0.13867      0.5     N
C      0.79415  0.35398   0.2234     C
H       0.8016   0.0884   0.5607     H
O      0.81444  0.75775   0.2559     O
O      0.81966  0.04822   0.0936     O
C      0.84309    0.109   0.2205     C
H       0.8448   0.5883   0.5544     H
N      0.86133  0.65297      0.5     N
H       0.8636   0.5773   0.2904     H
N      0.86475  0.54437   0.8941     N
H       0.8653   0.3495   0.7045     H
N      0.86889   0.3682   0.3091     N
C        0.891  0.73409   0.2205     C
C      0.90894  0.65469   0.3359     C
H       0.9116   0.7132   0.5607     H
H       0.9156   0.2377   0.8488     H
N      0.93886  0.36693   0.6972     N
O      0.94331  0.18556   0.2559     O
O      0.95178  0.77144   0.0936     O
H       0.9559   0.3532   0.9439     H
Mn     0.96458  0.30259   0.4542    Mn
C       0.9669   0.3198    0.844     C
H       0.9826   0.4437   0.6989     H
