data_I
_chemical_name_common  '/home/zhangsd/repos/MofS-CGCNN/ML/data/SSD/clean_cifs/UJOJIO05_clean'
_cell_length_a 13.53290
_cell_length_b 13.53290
_cell_length_c  8.08160
_cell_angle_alpha 90.00000
_cell_angle_beta  90.00000
_cell_angle_gamma 120.00000
_space_group_name_H-M_alt      'P 1'


loop_
_space_group_symop_operation_xyz
  'x, y, z' 

loop_
_atom_site_label
_atom_site_fract_x
_atom_site_fract_y
_atom_site_fract_z
_atom_site_type_symbol
H       0.0187   0.5576   0.3029     H
C       0.0335   0.6804   0.1574     C
Mn     0.03713  0.69914  0.54514    Mn
H       0.0448   0.6471   0.0579     H
O      0.04804  0.22937   0.9059     O
O      0.05855  0.81296   0.7463     O
N      0.06217   0.6342   0.3039     N
H       0.0843   0.7623   0.1523     H
H       0.0874   0.2865   0.4405     H
C       0.0903   0.3455   0.6638     C
C        0.109   0.2671     0.78     C
N       0.1324   0.6326   0.6922     N
N       0.1338   0.4556   0.1025     N
H       0.1355   0.4229   0.7084     H
H       0.1356   0.6518   0.2962     H
N       0.1377   0.3467   0.5007     N
H       0.1541   0.4111    0.446     H
C       0.1581    0.891     0.78     C
O      0.18133  0.95196   0.9059     O
O      0.18704  0.24559   0.7463     O
H       0.1991   0.9126   0.4405     H
C       0.2061   0.6464   0.7767     C
N        0.209   0.8623   0.5007     N
C      0.21179  0.53474   0.0479     C
O      0.22937  0.18133   0.4059     O
H       0.2377    0.322   0.1523     H
O      0.24559  0.05855   0.2463     O
C       0.2552   0.9097   0.6638     C
H        0.257   0.8459    0.446     H
C       0.2671   0.1581     0.28     C
H       0.2865   0.1991   0.9405     H
H       0.2874   0.8645   0.7084     H
Mn     0.30086  0.33799  0.54514    Mn
C       0.3196   0.3531   0.1574     C
N       0.3218   0.8662   0.1025     N
H        0.322   0.0843   0.6523     H
C      0.32295  0.78821   0.0479     C
Mn     0.33333  0.66667  0.92237    Mn
Mn     0.33799  0.03713  0.04514    Mn
C       0.3455   0.2552   0.1638     C
N       0.3467    0.209   0.0007     N
H       0.3482   0.4838   0.2962     H
H       0.3529   0.3977   0.0579     H
C       0.3531   0.0335   0.6574     C
C       0.3536   0.5597   0.7767     C
N       0.3658  0.42797   0.3039     N
N       0.3674   0.4998   0.6922     N
H       0.3977   0.0448   0.5579     H
H       0.4111    0.257    0.946     H
H       0.4229   0.2874   0.2084     H
N      0.42797  0.06217   0.8039     N
C       0.4403   0.7939   0.7767     C
H       0.4424   0.4611   0.3029     H
N       0.4556   0.3218   0.6025     N
H       0.4611   0.0187   0.8029     H
C      0.46526  0.67705   0.0479     C
H       0.4838   0.1356   0.7962     H
N       0.4998   0.1324   0.1922     N
N       0.5002   0.8676   0.6922     N
H       0.5162   0.8644   0.2962     H
C      0.53474  0.32295   0.5479     C
H       0.5389   0.9813   0.3029     H
N       0.5444   0.6782   0.1025     N
H       0.5576   0.5389   0.8029     H
C       0.5597   0.2061   0.2767     C
N      0.57203  0.93783   0.3039     N
H       0.5771   0.7126   0.7084     H
H       0.5889    0.743    0.446     H
H       0.6023   0.9552   0.0579     H
N       0.6326   0.5002   0.1922     N
N       0.6342  0.57203   0.8039     N
C       0.6464   0.4403   0.2767     C
C       0.6469   0.9665   0.1574     C
H       0.6471   0.6023   0.5579     H
H       0.6518   0.5162   0.7962     H
N       0.6533    0.791   0.5007     N
C       0.6545   0.7448   0.6638     C
Mn     0.66201  0.96287  0.54514    Mn
Mn     0.66667  0.33333  0.42237    Mn
C      0.67705  0.21179   0.5479     C
H        0.678   0.9157   0.1523     H
N       0.6782   0.1338   0.6025     N
C       0.6804   0.6469   0.6574     C
Mn     0.69914  0.66201  0.04514    Mn
H       0.7126   0.1355   0.2084     H
H       0.7135   0.8009   0.4405     H
C       0.7329   0.8419     0.78     C
H        0.743   0.1541    0.946     H
C       0.7448   0.0903   0.1638     C
O      0.75441  0.94145   0.7463     O
H       0.7623    0.678   0.6523     H
O      0.77063  0.81867   0.9059     O
C      0.78821  0.46526   0.5479     C
N        0.791   0.1377   0.0007     N
C       0.7939   0.3536   0.2767     C
H       0.8009   0.0874   0.9405     H
O      0.81296  0.75441   0.2463     O
O      0.81867  0.04804   0.4059     O
C       0.8419    0.109     0.28     C
H       0.8459   0.5889    0.946     H
N       0.8623   0.6533   0.0007     N
H       0.8644   0.3482   0.7962     H
H       0.8645   0.5771   0.2084     H
N       0.8662   0.5444   0.6025     N
N       0.8676   0.3674   0.1922     N
C        0.891   0.7329     0.28     C
C       0.9097   0.6545   0.1638     C
H       0.9126   0.7135   0.9405     H
H       0.9157   0.2377   0.6523     H
N      0.93783   0.3658   0.8039     N
O      0.94145  0.18704   0.2463     O
O      0.95196  0.77063   0.4059     O
H       0.9552   0.3529   0.5579     H
Mn     0.96287  0.30086  0.04514    Mn
C       0.9665   0.3196   0.6574     C
H       0.9813   0.4424   0.8029     H
