data_I
_chemical_name_common  '/home/zhangsd/repos/MofS-CGCNN/ML/data/SSD/clean_cifs/UJOKIP03_clean'
_cell_length_a 13.53920
_cell_length_b 13.53920
_cell_length_c  8.06920
_cell_angle_alpha 90.00000
_cell_angle_beta  90.00000
_cell_angle_gamma 120.00000
_space_group_name_H-M_alt      'P 1'


loop_
_space_group_symop_operation_xyz
  'x, y, z' 

loop_
_atom_site_label
_atom_site_fract_x
_atom_site_fract_y
_atom_site_fract_z
_atom_site_type_symbol
H       0.0154   0.5598   0.3024     H
C       0.0338   0.6843   0.1577     C
Mn     0.03565  0.70327  0.54381    Mn
H       0.0456   0.6519   0.0576     H
O        0.049   0.2259   0.9067     O
O       0.0533   0.8136   0.7453     O
N       0.0603   0.6361   0.3037     N
H        0.085   0.2796   0.4396     H
H       0.0851   0.7662   0.1545     H
C       0.0886   0.3406   0.6634     C
C       0.1074   0.2615   0.7803     C
N       0.1292   0.6351   0.6887     N
N       0.1332   0.4506   0.1126     N
H       0.1332   0.6521   0.2968     H
H       0.1343    0.418   0.7074     H
N       0.1354   0.3404   0.4987     N
H       0.1514   0.4041   0.4426     H
C       0.1541   0.8926   0.7803     C
O       0.1769    0.951   0.9067     O
O       0.1864   0.2397   0.7453     O
H       0.1946    0.915   0.4396     H
C       0.2008   0.6459   0.7731     C
N        0.205   0.8646   0.4987     N
C       0.2112   0.5307   0.0613     C
O       0.2259   0.1769   0.4067     O
H       0.2338   0.3189   0.1545     H
O       0.2397   0.0533   0.2453     O
C        0.252   0.9114   0.6634     C
H       0.2527   0.8486   0.4426     H
C       0.2615   0.1541   0.2803     C
H       0.2796   0.1946   0.9396     H
H       0.2837   0.8657   0.7074     H
Mn     0.29673  0.33238  0.54381    Mn
C       0.3157   0.3495   0.1577     C
N       0.3174   0.8668   0.1126     N
H       0.3189   0.0851   0.6545     H
C       0.3195   0.7888   0.0613     C
Mn     0.33238  0.03565  0.04381    Mn
Cr     0.33333  0.66667   0.9244    Cr
N       0.3404    0.205   0.9987     N
C       0.3406    0.252   0.1634     C
H       0.3479   0.4811   0.2968     H
H       0.3481   0.3937   0.0576     H
C       0.3495   0.0338   0.6577     C
C       0.3541   0.5549   0.7731     C
N       0.3639   0.4242   0.3037     N
N       0.3649   0.4941   0.6887     N
H       0.3937   0.0456   0.5576     H
H       0.4041   0.2527   0.9426     H
H        0.418   0.2837   0.2074     H
N       0.4242   0.0603   0.8037     N
H       0.4402   0.4556   0.3024     H
C       0.4451   0.7992   0.7731     C
N       0.4506   0.3174   0.6126     N
H       0.4556   0.0154   0.8024     H
C       0.4693   0.6805   0.0613     C
H       0.4811   0.1332   0.7968     H
N       0.4941   0.1292   0.1887     N
N       0.5059   0.8708   0.6887     N
H       0.5189   0.8668   0.2968     H
C       0.5307   0.3195   0.5613     C
H       0.5444   0.9846   0.3024     H
N       0.5494   0.6826   0.1126     N
C       0.5549   0.2008   0.2731     C
H       0.5598   0.5444   0.8024     H
N       0.5758   0.9397   0.3037     N
H        0.582   0.7163   0.7074     H
H       0.5959   0.7473   0.4426     H
H       0.6063   0.9544   0.0576     H
N       0.6351   0.5059   0.1887     N
N       0.6361   0.5758   0.8037     N
C       0.6459   0.4451   0.2731     C
C       0.6505   0.9662   0.1577     C
H       0.6519   0.6063   0.5576     H
H       0.6521   0.5189   0.7968     H
C       0.6594    0.748   0.6634     C
N       0.6596    0.795   0.4987     N
Cr     0.66667  0.33333   0.4244    Cr
Mn     0.66762  0.96435  0.54381    Mn
C       0.6805   0.2112   0.5613     C
H       0.6811   0.9149   0.1545     H
N       0.6826   0.1332   0.6126     N
C       0.6843   0.6505   0.6577     C
Mn     0.70327  0.66762  0.04381    Mn
H       0.7163   0.1343   0.2074     H
H       0.7204   0.8054   0.4396     H
C       0.7385   0.8459   0.7803     C
H       0.7473   0.1514   0.9426     H
C        0.748   0.0886   0.1634     C
O       0.7603   0.9467   0.7453     O
H       0.7662   0.6811   0.6545     H
O       0.7741   0.8231   0.9067     O
C       0.7888   0.4693   0.5613     C
N        0.795   0.1354   0.9987     N
C       0.7992   0.3541   0.2731     C
H       0.8054    0.085   0.9396     H
O       0.8136   0.7603   0.2453     O
O       0.8231    0.049   0.4067     O
C       0.8459   0.1074   0.2803     C
H       0.8486   0.5959   0.9426     H
N       0.8646   0.6596   0.9987     N
H       0.8657    0.582   0.2074     H
H       0.8668   0.3479   0.7968     H
N       0.8668   0.5494   0.6126     N
N       0.8708   0.3649   0.1887     N
C       0.8926   0.7385   0.2803     C
C       0.9114   0.6594   0.1634     C
H       0.9149   0.2338   0.6545     H
H        0.915   0.7204   0.9396     H
N       0.9397   0.3639   0.8037     N
O       0.9467   0.1864   0.2453     O
O        0.951   0.7741   0.4067     O
H       0.9544   0.3481   0.5576     H
Mn     0.96435  0.29673  0.04381    Mn
C       0.9662   0.3157   0.6577     C
H       0.9846   0.4402   0.8024     H
