data_I
_chemical_name_common  '/home/zhangsd/repos/MofS-CGCNN/ML/data/SSD/clean_cifs/UJOKIP_clean'
_cell_length_a 13.61440
_cell_length_b 13.61440
_cell_length_c  8.18420
_cell_angle_alpha 90.00000
_cell_angle_beta  90.00000
_cell_angle_gamma 120.00000
_space_group_name_H-M_alt      'P 1'


loop_
_space_group_symop_operation_xyz
  'x, y, z' 

loop_
_atom_site_label
_atom_site_fract_x
_atom_site_fract_y
_atom_site_fract_z
_atom_site_type_symbol
H       0.0187   0.5609   0.3084     H
C       0.0342   0.6816   0.1616     C
Mn     0.03899  0.70461  0.54368    Mn
H       0.0456   0.6477   0.0644     H
O       0.0479   0.2285   0.9046     O
O        0.059   0.8144   0.7461     O
N       0.0624   0.6369   0.3077     N
H       0.0843   0.2858   0.4448     H
H       0.0847   0.7629   0.1553     H
C       0.0887    0.344   0.6667     C
C       0.1077   0.2667   0.7804     C
N       0.1293   0.6341   0.6919     N
N         0.13   0.4495   0.1027     N
H       0.1338   0.4209   0.7105     H
N        0.135   0.3452   0.5043     N
H       0.1351   0.6536   0.3002     H
H       0.1516   0.4095    0.451     H
C        0.159   0.8923   0.7804     C
O       0.1806   0.9521   0.9046     O
O       0.1856   0.2446   0.7461     O
H       0.2015   0.9157   0.4448     H
C       0.2017    0.646   0.7759     C
C       0.2087   0.5298   0.0543     C
N       0.2102    0.865   0.5043     N
O       0.2285   0.1806   0.4046     O
H       0.2371   0.3218   0.1553     H
O       0.2446    0.059   0.2461     O
C       0.2553   0.9113   0.6667     C
H       0.2579   0.8484    0.451     H
C       0.2667    0.159   0.2804     C
H       0.2858   0.2015   0.9448     H
H       0.2871   0.8662   0.7105     H
Mn     0.29539  0.33438  0.54368    Mn
C       0.3184   0.3526   0.1616     C
N       0.3195     0.87   0.1027     N
C       0.3211   0.7913   0.0543     C
H       0.3218   0.0847   0.6553     H
Cr     0.33333  0.66667  0.92497    Cr
Mn     0.33438  0.03899  0.04368    Mn
C        0.344   0.2553   0.1667     C
N       0.3452   0.2102   0.0043     N
H       0.3464   0.4815   0.3002     H
H       0.3523   0.3979   0.0644     H
C       0.3526   0.0342   0.6616     C
C        0.354   0.5557   0.7759     C
N       0.3631   0.4255   0.3077     N
N       0.3659   0.4952   0.6919     N
H       0.3979   0.0456   0.5644     H
H       0.4095   0.2579    0.951     H
H       0.4209   0.2871   0.2105     H
N       0.4255   0.0624   0.8077     N
H       0.4391   0.4578   0.3084     H
C       0.4443   0.7983   0.7759     C
N       0.4495   0.3195   0.6027     N
H       0.4578   0.0187   0.8084     H
C       0.4702   0.6789   0.0543     C
H       0.4815   0.1351   0.8002     H
N       0.4952   0.1293   0.1919     N
N       0.5048   0.8707   0.6919     N
H       0.5185   0.8649   0.3002     H
C       0.5298   0.3211   0.5543     C
H       0.5422   0.9813   0.3084     H
N       0.5505   0.6805   0.1027     N
C       0.5557   0.2017   0.2759     C
H       0.5609   0.5422   0.8084     H
N       0.5745   0.9376   0.3077     N
H       0.5791   0.7129   0.7105     H
H       0.5905   0.7421    0.451     H
H       0.6021   0.9544   0.0644     H
N       0.6341   0.5048   0.1919     N
N       0.6369   0.5745   0.8077     N
C        0.646   0.4443   0.2759     C
C       0.6474   0.9658   0.1616     C
H       0.6477   0.6021   0.5644     H
H       0.6536   0.5185   0.8002     H
N       0.6548   0.7898   0.5043     N
C        0.656   0.7447   0.6667     C
Mn     0.66562  0.96101  0.54368    Mn
Cr     0.66667  0.33333  0.42497    Cr
H       0.6782   0.9153   0.1553     H
C       0.6789   0.2087   0.5543     C
N       0.6805     0.13   0.6027     N
C       0.6816   0.6474   0.6616     C
Mn     0.70461  0.66562  0.04368    Mn
H       0.7129   0.1338   0.2105     H
H       0.7142   0.7985   0.4448     H
C       0.7333    0.841   0.7804     C
H       0.7421   0.1516    0.951     H
C       0.7447   0.0887   0.1667     C
O       0.7554    0.941   0.7461     O
H       0.7629   0.6782   0.6553     H
O       0.7715   0.8194   0.9046     O
N       0.7898    0.135   0.0043     N
C       0.7913   0.4702   0.5543     C
C       0.7983    0.354   0.2759     C
H       0.7985   0.0843   0.9448     H
O       0.8144   0.7554   0.2461     O
O       0.8194   0.0479   0.4046     O
C        0.841   0.1077   0.2804     C
H       0.8484   0.5905    0.951     H
H       0.8649   0.3464   0.8002     H
N        0.865   0.6548   0.0043     N
H       0.8662   0.5791   0.2105     H
N         0.87   0.5505   0.6027     N
N       0.8707   0.3659   0.1919     N
C       0.8923   0.7333   0.2804     C
C       0.9113    0.656   0.1667     C
H       0.9153   0.2371   0.6553     H
H       0.9157   0.7142   0.9448     H
N       0.9376   0.3631   0.8077     N
O        0.941   0.1856   0.2461     O
O       0.9521   0.7715   0.4046     O
H       0.9544   0.3523   0.5644     H
Mn     0.96101  0.29539  0.04368    Mn
C       0.9658   0.3184   0.6616     C
H       0.9813   0.4391   0.8084     H
