data_I
_chemical_name_common  '/home/zhangsd/repos/MofS-CGCNN/ML/data/SSD/clean_cifs/UJOKIP02_clean'
_cell_length_a 13.55760
_cell_length_b 13.55760
_cell_length_c  8.09940
_cell_angle_alpha 90.00000
_cell_angle_beta  90.00000
_cell_angle_gamma 120.00000
_space_group_name_H-M_alt      'P 1'


loop_
_space_group_symop_operation_xyz
  'x, y, z' 

loop_
_atom_site_label
_atom_site_fract_x
_atom_site_fract_y
_atom_site_fract_z
_atom_site_type_symbol
H       0.0159    0.561   0.3033     H
C       0.0342   0.6852   0.1589     C
Mn     0.03617  0.70427  0.54415    Mn
H        0.046   0.6527   0.0592     H
O       0.0495   0.2262   0.9071     O
O       0.0544   0.8147   0.7452     O
N       0.0608   0.6373   0.3045     N
H       0.0831   0.2797   0.4407     H
H       0.0854    0.767   0.1555     H
C       0.0871   0.3396   0.6647     C
C       0.1068   0.2614   0.7805     C
N       0.1299   0.6366   0.6896     N
N       0.1325   0.4513   0.1109     N
H       0.1326    0.417   0.7086     H
N       0.1335   0.3401      0.5     N
H       0.1335   0.6532   0.2977     H
H       0.1496   0.4041   0.4449     H
C       0.1546   0.8932   0.7805     C
O       0.1767   0.9505   0.9071     O
O       0.1853   0.2397   0.7452     O
H       0.1966   0.9169   0.4407     H
C       0.2016    0.647    0.773     C
N       0.2066   0.8665      0.5     N
C       0.2105   0.5308   0.0606     C
O       0.2262   0.1767   0.4071     O
H        0.233   0.3184   0.1555     H
O       0.2397   0.0544   0.2452     O
C       0.2525   0.9129   0.6647     C
H       0.2545   0.8504   0.4449     H
C       0.2614   0.1546   0.2805     C
H       0.2797   0.1966   0.9407     H
H       0.2844   0.8674   0.7086     H
Mn     0.29573   0.3319  0.54415    Mn
C       0.3148    0.349   0.1589     C
H       0.3184   0.0854   0.6555     H
N       0.3188   0.8675   0.1109     N
C       0.3203   0.7895   0.0606     C
Mn      0.3319  0.03617  0.04415    Mn
Cr     0.33333  0.66667   0.9238    Cr
C       0.3396   0.2525   0.1647     C
N       0.3401   0.2066      0.0     N
H       0.3468   0.4803   0.2977     H
H       0.3473   0.3933   0.0592     H
C        0.349   0.0342   0.6589     C
C        0.353   0.5546    0.773     C
N       0.3627   0.4235   0.3045     N
N       0.3634   0.4933   0.6896     N
H       0.3933    0.046   0.5592     H
H       0.4041   0.2545   0.9449     H
H        0.417   0.2844   0.2086     H
N       0.4235   0.0608   0.8045     N
H        0.439   0.4549   0.3033     H
C       0.4454   0.7984    0.773     C
N       0.4513   0.3188   0.6109     N
H       0.4549   0.0159   0.8033     H
C       0.4692   0.6797   0.0606     C
H       0.4803   0.1335   0.7977     H
N       0.4933   0.1299   0.1896     N
N       0.5067   0.8701   0.6896     N
H       0.5197   0.8665   0.2977     H
C       0.5308   0.3203   0.5606     C
H       0.5451   0.9841   0.3033     H
N       0.5487   0.6812   0.1109     N
C       0.5546   0.2016    0.273     C
H        0.561   0.5451   0.8033     H
N       0.5765   0.9392   0.3045     N
H        0.583   0.7156   0.7086     H
H       0.5959   0.7455   0.4449     H
H       0.6067    0.954   0.0592     H
N       0.6366   0.5067   0.1896     N
N       0.6373   0.5765   0.8045     N
C        0.647   0.4454    0.273     C
C        0.651   0.9658   0.1589     C
H       0.6527   0.6067   0.5592     H
H       0.6532   0.5197   0.7977     H
N       0.6599   0.7934      0.5     N
C       0.6604   0.7475   0.6647     C
Cr     0.66667  0.33333   0.4238    Cr
Mn      0.6681  0.96383  0.54415    Mn
C       0.6797   0.2105   0.5606     C
N       0.6812   0.1325   0.6109     N
H       0.6816   0.9146   0.1555     H
C       0.6852    0.651   0.6589     C
Mn     0.70427   0.6681  0.04415    Mn
H       0.7156   0.1326   0.2086     H
H       0.7203   0.8034   0.4407     H
C       0.7386   0.8454   0.7805     C
H       0.7455   0.1496   0.9449     H
C       0.7475   0.0871   0.1647     C
O       0.7603   0.9456   0.7452     O
H        0.767   0.6816   0.6555     H
O       0.7738   0.8233   0.9071     O
C       0.7895   0.4692   0.5606     C
N       0.7934   0.1335      0.0     N
C       0.7984    0.353    0.273     C
H       0.8034   0.0831   0.9407     H
O       0.8147   0.7603   0.2452     O
O       0.8233   0.0495   0.4071     O
C       0.8454   0.1068   0.2805     C
H       0.8504   0.5959   0.9449     H
H       0.8665   0.3468   0.7977     H
N       0.8665   0.6599      0.0     N
H       0.8674    0.583   0.2086     H
N       0.8675   0.5487   0.6109     N
N       0.8701   0.3634   0.1896     N
C       0.8932   0.7386   0.2805     C
C       0.9129   0.6604   0.1647     C
H       0.9146    0.233   0.6555     H
H       0.9169   0.7203   0.9407     H
N       0.9392   0.3627   0.8045     N
O       0.9456   0.1853   0.2452     O
O       0.9505   0.7738   0.4071     O
H        0.954   0.3473   0.5592     H
Mn     0.96383  0.29573  0.04415    Mn
C       0.9658   0.3148   0.6589     C
H       0.9841    0.439   0.8033     H
