data_I
_chemical_name_common  '/home/zhangsd/repos/MofS-CGCNN/ML/data/SSD/clean_cifs/UJULIW_clean'
_cell_length_a 16.13400
_cell_length_b 16.13400
_cell_length_c  4.54890
_cell_angle_alpha 90.00000
_cell_angle_beta  90.00000
_cell_angle_gamma 90.00000
_space_group_name_H-M_alt      'P 1'


loop_
_space_group_symop_operation_xyz
  'x, y, z' 

loop_
_atom_site_label
_atom_site_fract_x
_atom_site_fract_y
_atom_site_fract_z
_atom_site_type_symbol
Cu         0.0      0.5   0.4995    Cu
H       0.0085   0.1431    0.528     H
O       0.0363    0.424    0.219     O
O       0.0385   0.4162    0.793     O
H       0.0418   0.3025    0.368     H
H       0.0455   0.6549   0.1808     H
H       0.0533   0.1844   0.7963     H
C       0.0612    0.153    0.619     C
O       0.0786   0.6933    0.173     O
O        0.081    0.694    0.852     O
H        0.087    0.101   0.6661     H
C       0.0912   0.2786    0.305     C
O        0.096    0.477    0.242     O
O       0.0977   0.4765    0.728     O
H        0.101    0.913   0.3339     H
P       0.1155  0.42488   0.0005     P
C       0.1156   0.2006    0.413     C
H       0.1159   0.7953   0.6047     H
O       0.1319   0.6184    0.754     O
O        0.134   0.6092    0.283     O
C       0.1414     0.32    0.103     C
H       0.1431   0.9915    0.472     H
C        0.153   0.9388    0.381     C
P      0.15928  0.66462    0.998     P
C       0.1667    0.812    0.681     C
H       0.1844   0.9467   0.2037     H
C        0.188   0.1667    0.319     C
O         0.19   0.4549    0.174     O
O       0.1949   0.4573    0.828     O
Cu     0.19906  0.53858   0.5016    Cu
C       0.2006   0.8844    0.587     C
H       0.2047   0.1159   0.3953     H
C       0.2072   0.7606    0.894     C
C        0.216   0.2839    0.993     C
O       0.2197   0.6213    0.205     O
O        0.221    0.621    0.782     O
C       0.2394   0.2072    0.106     C
H       0.2477   0.3106   0.8506     H
C       0.2786   0.9088    0.695     C
C       0.2839    0.784    0.007     C
H       0.3025   0.9582    0.632     H
O        0.306    0.081    0.148     O
O       0.3067   0.0786    0.827     O
H       0.3106   0.7523   0.1494     H
C         0.32   0.8586    0.897     C
P      0.33538  0.15928    0.002     P
H       0.3451   0.0455   0.8192     H
O       0.3787   0.2197    0.795     O
O        0.379    0.221    0.218     O
O       0.3816   0.1319    0.246     O
O       0.3908    0.134    0.717     O
O       0.4162   0.9615    0.207     O
O        0.424   0.9637    0.781     O
P      0.42488   0.8845   0.9995     P
O       0.4549     0.81    0.826     O
O       0.4573   0.8051    0.172     O
Cu     0.46142  0.19906   0.4984    Cu
O       0.4765   0.9023    0.272     O
O        0.477    0.904    0.758     O
Cu         0.5      0.0   0.5005    Cu
O        0.523    0.096    0.758     O
O       0.5235   0.0977    0.272     O
Cu     0.53858  0.80094   0.4984    Cu
O       0.5427   0.1949    0.172     O
O       0.5451     0.19    0.826     O
P      0.57512   0.1155   0.9995     P
O        0.576   0.0363    0.781     O
O       0.5838   0.0385    0.207     O
O       0.6092    0.866    0.717     O
O       0.6184   0.8681    0.246     O
O        0.621    0.779    0.218     O
O       0.6213   0.7803    0.795     O
H       0.6549   0.9545   0.8192     H
P      0.66462  0.84072    0.002     P
C         0.68   0.1414    0.897     C
H       0.6894   0.2477   0.1494     H
O       0.6933   0.9214    0.827     O
O        0.694    0.919    0.148     O
H       0.6975   0.0418    0.632     H
C       0.7161    0.216    0.007     C
C       0.7214   0.0912    0.695     C
H       0.7523   0.6894   0.8506     H
C       0.7606   0.7928    0.106     C
O        0.779    0.379    0.782     O
O       0.7803   0.3787    0.205     O
C        0.784   0.7161    0.993     C
C       0.7928   0.2394    0.894     C
H       0.7953   0.8841   0.3953     H
C       0.7994   0.1156    0.587     C
Cu     0.80094  0.46142   0.5016    Cu
O       0.8051   0.5427    0.828     O
O         0.81   0.5451    0.174     O
C        0.812   0.8333    0.319     C
H       0.8156   0.0533   0.2037     H
C       0.8333    0.188    0.681     C
P      0.84072  0.33538    0.998     P
C        0.847   0.0612    0.381     C
H       0.8569   0.0085    0.472     H
C       0.8586     0.68    0.103     C
O        0.866   0.3908    0.283     O
O       0.8681   0.3816    0.754     O
H       0.8841   0.2047   0.6047     H
C       0.8844   0.7994    0.413     C
P       0.8845  0.57512   0.0005     P
H        0.899    0.087   0.3339     H
O       0.9023   0.5235    0.728     O
O        0.904    0.523    0.242     O
C       0.9088   0.7214    0.305     C
H        0.913    0.899   0.6661     H
O        0.919    0.306    0.852     O
O       0.9214   0.3067    0.173     O
C       0.9388    0.847    0.619     C
H       0.9467   0.8156   0.7963     H
H       0.9545   0.3451   0.1808     H
H       0.9582   0.6975    0.368     H
O       0.9615   0.5838    0.793     O
O       0.9637    0.576    0.219     O
H       0.9915   0.8569    0.528     H
