data_I
_chemical_name_common  '/home/zhangsd/repos/MofS-CGCNN/ML/data/SSD/clean_cifs/UKUPEX_clean'
_cell_length_a 14.69100
_cell_length_b 14.81800
_cell_length_c 17.71300
_cell_angle_alpha 98.13000
_cell_angle_beta  93.10000
_cell_angle_gamma 115.29000
_space_group_name_H-M_alt      'P 1'


loop_
_space_group_symop_operation_xyz
  'x, y, z' 

loop_
_atom_site_label
_atom_site_fract_x
_atom_site_fract_y
_atom_site_fract_z
_atom_site_type_symbol
Mn         0.0      0.0      0.0    Mn
H       0.0076    0.311   0.1738     H
C       0.0077   0.2698   0.8885     C
C       0.0221   0.4929   0.1544     C
O       0.0284    0.119   0.8672     O
C       0.0301   0.5821   0.1138     C
Mn     0.03018  0.99143  0.78246    Mn
C       0.0306   0.3633   0.8591     C
O       0.0408   0.5391    0.803     O
O       0.0417   0.1586   0.1941     O
C       0.0515   0.7561   0.0529     C
C       0.0522   0.5727   0.4528     C
C       0.0527   0.4559   0.5451     C
C       0.0572   0.3392   0.1408     C
H       0.0575   0.8115   0.0289     H
C       0.0653   0.2057   0.8516     C
H       0.0658   0.3654   0.6189     H
C       0.0761   0.4343   0.1204     C
O       0.0764   0.9138   0.6793     O
H       0.0802   0.3876   0.8252     H
C       0.0848   0.1812   0.1331     C
C       0.0935   0.6129   0.0615     C
O       0.1008   0.1197   0.0827     O
C       0.1023   0.6975   0.0304     C
C       0.1025    0.412   0.5873     C
O       0.1092   0.6434   0.4153     O
C       0.1115   0.2874   0.1123     C
C       0.1151   0.5358   0.5089     C
O        0.122   0.9705   0.9674     O
C       0.1284   0.9957   0.6596     C
O       0.1333    0.085   0.6987     O
O       0.1356   0.2492   0.8172     O
C       0.1434   0.4696   0.0717     C
H       0.1455   0.7164   0.9917     H
C       0.1605   0.5636   0.0339     C
O       0.1662   0.0223   0.8546     O
H       0.1761   0.1332   0.5545     H
C       0.1787   0.9905   0.9165     C
C       0.1834   0.3216   0.0632     C
C       0.1897   0.0094   0.5943     C
C       0.2047   0.4363   0.5832     C
C       0.2077   0.0891    0.546     C
C       0.2078     0.42   0.0395     C
O       0.2088   0.3181   0.6624     O
C       0.2111   0.5516   0.5024     C
H       0.2118   0.8776   0.5965     H
H       0.2171   0.2821   0.0448     H
O       0.2234   0.6018    0.993     O
C       0.2284   0.9345   0.5719     C
Mn     0.24443  0.23847   0.7423    Mn
H       0.2457   0.5944   0.4679     H
H       0.2466   0.9068   0.0209     H
H       0.2585   0.4491   0.0074     H
C       0.2617   0.3897    0.636     C
C       0.2662   0.5092   0.5436     C
C       0.2675   0.0984   0.4912     C
C       0.2711   0.9617   0.9215     C
H        0.284   0.1537   0.4647     H
C       0.2895   0.9185   0.9814     C
C       0.2902   0.9491   0.5132     C
C       0.3081   0.0267   0.4711     C
H       0.3168   0.0006   0.8197     H
O       0.3274   0.8101   0.5338     O
C       0.3299   0.9714   0.8609     C
H       0.3368   0.5289   0.5435     H
O        0.339   0.8392   0.1049     O
C         0.34    0.874   0.4957     C
H       0.3533   0.2042   0.0474     H
O       0.3574   0.4396   0.6424     O
O       0.3634   0.1964   0.7076     O
H        0.368   0.3305   0.9628     H
C       0.3692   0.8922   0.9849     C
O        0.372   0.3586   0.8229     O
C       0.3771   0.0452   0.4085     C
C       0.3804    0.837   0.0499     C
O       0.3936   0.1139   0.3707     O
C       0.4045   0.8888   0.4322     C
C       0.4056   0.9407   0.8583     C
C       0.4057   0.2246   0.0154     C
C       0.4069   0.2932   0.9577     C
H       0.4216   0.7267    0.133     H
C       0.4226   0.8918   0.9192     C
H       0.4261   0.0705   0.7241     H
C       0.4273   0.9744   0.3911     C
C        0.433   0.2298   0.6668     C
O       0.4372   0.1236   0.1336     O
H       0.4382   0.7705   0.4407     H
H       0.4461   0.9514   0.8174     H
C        0.449   0.8245   0.4137     C
C       0.4543   0.3624   0.8471     C
C       0.4591   0.7921   0.0399     C
C       0.4611   0.2996   0.9027     C
C       0.4667   0.7384   0.0951     C
O       0.4676   0.5884   0.1865     O
C       0.4686   0.0799   0.6845     C
O       0.4762   0.3153   0.6497     O
C        0.483   0.1919   0.0206     C
Mn      0.4861   0.4596   0.7166    Mn
C       0.4885   0.1593   0.6468     C
C       0.4885   0.9893   0.3354     C
C       0.4934   0.1427   0.0806     C
H       0.4971   0.9549   0.6903     H
H       0.5029   0.0451   0.3097     H
C       0.5066   0.8573   0.9194     C
C       0.5115   0.0107   0.6646     C
C       0.5115   0.8407   0.3532     C
Mn      0.5139   0.5404   0.2834    Mn
C        0.517   0.8081   0.9794     C
O       0.5238   0.6847   0.3503     O
C       0.5314   0.9201   0.3155     C
O       0.5324   0.4116   0.8135     O
C       0.5333   0.2616   0.9049     C
C       0.5389   0.7004   0.0973     C
C       0.5409   0.2079   0.9601     C
C       0.5457   0.6376   0.1529     C
C        0.551   0.1755   0.5863     C
H       0.5539   0.0486   0.1826     H
H       0.5618   0.2295   0.5593     H
O       0.5628   0.8764   0.8664     O
C        0.567   0.7702   0.3332     C
C       0.5727   0.0256   0.6089     C
H       0.5739   0.9295   0.2759     H
C       0.5774   0.1082   0.0808     C
H       0.5784   0.2733    0.867     H
C       0.5931   0.7068   0.0423     C
C       0.5943   0.7754   0.9846     C
C       0.5944   0.0593   0.1417     C
C       0.5955   0.1112   0.5678     C
O       0.6064   0.8861   0.6293     O
C       0.6196    0.163   0.9501     C
C       0.6229   0.9548   0.5915     C
O        0.628   0.6414   0.1771     O
C       0.6308   0.1078   0.0151     C
H        0.632   0.6695   0.0372     H
O       0.6366   0.8036   0.2924     O
O       0.6426   0.5604   0.3576     O
H       0.6467   0.7958   0.9526     H
C         0.66    0.126   0.5043     C
O        0.661   0.1608   0.8951     O
H       0.6632   0.4711   0.4565     H
C       0.6701   0.0286   0.1391     C
O       0.6726   0.1899   0.4662     O
H       0.6832   0.9994   0.1803     H
C       0.6919   0.9733   0.5289     C
C       0.7098   0.0509   0.4868     C
C       0.7105   0.0815   0.0186     C
H        0.716   0.8463   0.5353     H
C       0.7289   0.0383   0.0785     C
C       0.7325   0.9016   0.5088     C
C       0.7338   0.4908   0.4564     C
C       0.7383   0.6103    0.364     C
H       0.7415   0.5509   0.9926     H
H       0.7534   0.0932   0.9791     H
H       0.7543   0.4056   0.5321     H
Mn     0.75557  0.76153   0.2577    Mn
C       0.7716   0.0655   0.4281     C
O       0.7766   0.3982    0.007     O
H       0.7829   0.7179   0.9552     H
H       0.7882   0.1224   0.4035     H
C       0.7889   0.4484   0.4976     C
O       0.7912   0.6819   0.3376     O
C       0.7922     0.58   0.9605     C
C       0.7923   0.9109    0.454     C
C       0.7953   0.5637   0.4168     C
C       0.8103   0.9906   0.4057     C
C       0.8166   0.6784   0.9368     C
C       0.8213   0.0095   0.0835     C
H       0.8239   0.8668   0.4455     H
O       0.8338   0.9777   0.1454     O
C       0.8395   0.4364   0.9661     C
H       0.8545   0.2836   0.0083     H
C       0.8566   0.5304   0.9283     C
O       0.8644   0.7508   0.1828     O
O       0.8667    0.915   0.3013     O
C       0.8716   0.0043   0.3404     C
O        0.878   0.0295   0.0326     O
C       0.8849   0.4642   0.4911     C
C       0.8885   0.7126   0.8877     C
O       0.8908   0.3566   0.5847     O
C       0.8975    0.588   0.4127     C
C       0.8977   0.3025   0.9696     C
O       0.8992   0.8803   0.9173     O
C       0.9065   0.3871   0.9385     C
C       0.9152   0.8188   0.8669     C
H       0.9198   0.6124   0.1748     H
O       0.9236   0.0862   0.3207     O
C       0.9239   0.5657   0.8796     C
H       0.9342   0.6346   0.3811     H
C       0.9347   0.7943   0.1484     C
H       0.9425   0.1885   0.9711     H
C       0.9428   0.6608   0.8592     C
C       0.9473   0.5441   0.4549     C
C       0.9478   0.4273   0.5472     C
C       0.9485   0.2439   0.9471     C
O       0.9583   0.8414   0.8059     O
O       0.9592   0.4609    0.197     O
C       0.9694   0.6367   0.1409     C
Mn     0.96982  0.00857  0.21754    Mn
C       0.9699   0.4179   0.8862     C
O       0.9716    0.881   0.1328     O
C       0.9779   0.5071   0.8456     C
C       0.9923   0.7302   0.1115     C
H       0.9924    0.689   0.8262     H
