data_I
_chemical_name_common  '/home/zhangsd/repos/MofS-CGCNN/ML/data/SSD/clean_cifs/UKUTEB_clean'
_cell_length_a 16.54920
_cell_length_b 14.85230
_cell_length_c 17.73130
_cell_angle_alpha 90.00000
_cell_angle_beta  112.75800
_cell_angle_gamma 90.00000
_space_group_name_H-M_alt      'P 1'


loop_
_space_group_symop_operation_xyz
  'x, y, z' 

loop_
_atom_site_label
_atom_site_fract_x
_atom_site_fract_y
_atom_site_fract_z
_atom_site_type_symbol
C       0.0017   0.0929   0.0082     C
C       0.0017   0.4071   0.5082     C
H       0.0019   0.1552   0.0133     H
H       0.0019   0.3448   0.5133     H
H        0.007   0.0611    0.793     H
H        0.007   0.4389    0.293     H
C       0.0275   0.5535   0.5682     C
C       0.0275   0.9465   0.0682     C
C       0.0306   0.0388   0.0771     C
C       0.0306   0.4612   0.5771     C
C       0.0311   0.6046   0.7022     C
C       0.0311   0.8954   0.2022     C
Zn     0.04732  0.69465  0.85899    Zn
Zn     0.04732  0.80535  0.35899    Zn
H       0.0519   0.0646    0.129     H
H       0.0519   0.4354    0.629     H
N       0.0559   0.6105   0.6397     N
N       0.0559   0.8895   0.1397     N
O       0.0657   0.2476   0.1517     O
O       0.0657   0.2524   0.6517     O
N       0.0668   0.6672   0.7561     N
N       0.0668   0.8328   0.2561     N
O       0.0963   0.6109   0.9504     O
O       0.0963   0.8891   0.4504     O
O       0.0979   0.1157   0.6995     O
O       0.0979   0.3843   0.1995     O
C       0.1115   0.6823   0.6547     C
C       0.1115   0.8177   0.1547     C
C       0.1179   0.7169   0.7265     C
C       0.1179   0.7831   0.2265     C
O       0.1196   0.6925   0.3866     O
O       0.1196   0.8075   0.8866     O
C        0.121    0.189   0.6813     C
C        0.121    0.311   0.1813     C
H       0.1394   0.7031   0.6215     H
H       0.1394   0.7969   0.1215     H
H       0.1439   0.5342   0.3476     H
H       0.1439   0.9658   0.8476     H
H       0.1514   0.7334   0.2521     H
H       0.1514   0.7666   0.7521     H
C       0.1732   0.6701   0.4536     C
C       0.1732   0.8299   0.9536     C
C       0.1799   0.5144   0.3995     C
C       0.1799   0.9856   0.8995     C
H       0.1942   0.1129   0.8662     H
H       0.1942   0.3871   0.3662     H
H       0.1992   0.1664   0.1532     H
H       0.1992   0.3336   0.6532     H
C       0.2037   0.5735    0.465     C
C       0.2037   0.9265    0.965     C
O       0.2073    0.721   0.5159     O
O       0.2073    0.779   0.0159     O
C       0.2093    0.074   0.9107     C
C       0.2093    0.426   0.4107     C
C       0.2136   0.2069   0.6937     C
C       0.2136   0.2931   0.1937     C
O       0.2171   0.6258   0.1698     O
O       0.2171   0.8742   0.6698     O
Zn     0.21712  0.64504  0.00932    Zn
Zn     0.21712  0.85496  0.50932    Zn
O       0.2257   0.5034   0.8866     O
O       0.2257   0.9966   0.3866     O
C       0.2407   0.2116   0.1745     C
C       0.2407   0.2884   0.6745     C
C       0.2556   0.5425   0.5417     C
C       0.2556   0.9575   0.0417     C
H       0.2565   0.0842   0.7392     H
H       0.2565   0.4158   0.2392     H
C       0.2614   0.1042   0.9886     C
C       0.2614   0.3958   0.4886     C
C       0.2649   0.5706   0.8849     C
C       0.2649   0.9294   0.3849     C
O       0.2694     0.64   0.9282     O
O       0.2694     0.86   0.4282     O
H       0.2706   0.5816   0.5861     H
H       0.2706   0.9184   0.0861     H
C       0.2735    0.139   0.7245     C
C       0.2735    0.361   0.2245     C
H       0.2796    0.164   0.9963     H
H       0.2796    0.336   0.4963     H
C       0.2865   0.0466   0.0547     C
C       0.2865   0.4534   0.5547     C
H       0.2873   0.0495   0.2854     H
H       0.2873   0.4505   0.7854     H
C       0.2903     0.61    0.173     C
C       0.2903     0.89    0.673     C
H       0.2913    0.599   0.3209     H
H       0.2913    0.901   0.8209     H
O         0.31   0.6074   0.1103     O
O         0.31   0.8926   0.6103     O
C       0.3107   0.5774   0.8291     C
C       0.3107   0.9226   0.3291     C
C       0.3155   0.5037   0.7822     C
C       0.3155   0.9963   0.2822     C
C       0.3273   0.1935   0.1854     C
C       0.3273   0.3065   0.6854     C
H        0.348   0.7052   0.8537     H
H        0.348   0.7948   0.3537     H
C       0.3487   0.5954   0.3243     C
C       0.3487   0.9046   0.8243     C
C       0.3513   0.6554   0.8232     C
C       0.3513   0.8446   0.3232     C
C       0.3583   0.1522   0.7334     C
C       0.3583   0.3478   0.2334     C
C       0.3606   0.5071   0.7313     C
C       0.3606   0.9929   0.2313     C
Si     0.36275  0.08249  0.15938    Si
Si     0.36275  0.41751  0.65938    Si
C       0.3649   0.5985   0.2554     C
C       0.3649   0.9015   0.7554     C
C       0.3853   0.2348   0.7141     C
C       0.3853   0.2652   0.2141     C
C       0.3969   0.6622   0.7735     C
C       0.3969   0.8378   0.2735     C
H       0.3986   0.1055   0.7526     H
H       0.3986   0.3945   0.2526     H
C       0.4031   0.5894     0.73     C
C       0.4031   0.9106     0.23     C
H       0.4042   0.5833   0.4465     H
H       0.4042   0.9167   0.9465     H
C       0.4163   0.5869   0.3996     C
C       0.4163   0.9131   0.8996     C
H       0.4235   0.7162   0.7696     H
H       0.4235   0.7838   0.2696     H
H       0.4364   0.5937   0.6983     H
H       0.4364   0.9063   0.1983     H
H       0.4434   0.2422   0.7205     H
H       0.4434   0.2578   0.2205     H
C       0.4521   0.5941   0.2614     C
C       0.4521   0.9059   0.7614     C
H       0.4522   0.0793   0.0429     H
H       0.4522   0.4207   0.5429     H
H       0.4631   0.5958   0.2138     H
H       0.4631   0.9042   0.7138     H
C       0.4782   0.0873   0.1641     C
C       0.4782   0.4127   0.6641     C
C       0.4975   0.0838   0.0941     C
C       0.4975   0.4162   0.5941     C
C       0.5025   0.5838   0.4059     C
C       0.5025   0.9162   0.9059     C
C       0.5218   0.5873   0.3359     C
C       0.5218   0.9127   0.8359     C
H       0.5369   0.0958   0.2862     H
H       0.5369   0.4042   0.7862     H
H       0.5478   0.5793   0.4571     H
H       0.5478   0.9207   0.9571     H
C       0.5479   0.0941   0.2386     C
C       0.5479   0.4059   0.7386     C
H       0.5566   0.7422   0.7795     H
H       0.5566   0.7578   0.2795     H
H       0.5636   0.0937   0.8017     H
H       0.5636   0.4063   0.3017     H
H       0.5765   0.2162   0.7304     H
H       0.5765   0.2838   0.2304     H
C       0.5837   0.0869   0.1004     C
C       0.5837   0.4131   0.6004     C
H       0.5958   0.0833   0.0535     H
H       0.5958   0.4167   0.5535     H
C       0.5969   0.0894     0.77     C
C       0.5969   0.4106     0.27     C
H       0.6014   0.6055   0.7474     H
H       0.6014   0.8945   0.2474     H
C       0.6031   0.1622   0.7265     C
C       0.6031   0.3378   0.2265     C
C       0.6147   0.7348   0.7859     C
C       0.6147   0.7652   0.2859     C
C       0.6351   0.0985   0.2446     C
C       0.6351   0.4015   0.7446     C
Si     0.63725  0.58249  0.34062    Si
Si     0.63725  0.91751  0.84062    Si
C       0.6394   0.0071   0.7687     C
C       0.6394   0.4929   0.2687     C
C       0.6417   0.6522   0.7666     C
C       0.6417   0.8478   0.2666     C
C       0.6487   0.1554   0.6768     C
C       0.6487   0.3446   0.1768     C
C       0.6513   0.0954   0.1757     C
C       0.6513   0.4046   0.6757     C
H        0.652   0.2052   0.6463     H
H        0.652   0.2948   0.1463     H
C       0.6727   0.6935   0.3146     C
C       0.6727   0.8065   0.8146     C
C       0.6845   0.0037   0.7178     C
C       0.6845   0.4963   0.2178     C
C       0.6893   0.0774   0.6709     C
C       0.6893   0.4226   0.1709     C
O         0.69   0.1074   0.3897     O
O         0.69   0.3926   0.8897     O
H       0.7087    0.099   0.1791     H
H       0.7087    0.401   0.6791     H
C       0.7097     0.11    0.327     C
C       0.7097     0.39    0.827     C
H       0.7127   0.5495   0.2146     H
H       0.7127   0.9505   0.7146     H
C       0.7135   0.5466   0.4453     C
C       0.7135   0.9534   0.9453     C
H       0.7204    0.664   0.5037     H
H       0.7204    0.836   0.0037     H
C       0.7265    0.639   0.7755     C
C       0.7265    0.861   0.2755     C
H       0.7294   0.0816   0.9139     H
H       0.7294   0.4184   0.4139     H
O       0.7306     0.14   0.5718     O
O       0.7306     0.36   0.0718     O
C       0.7351   0.0706   0.6151     C
C       0.7351   0.4294   0.1151     C
C       0.7386   0.6042   0.5114     C
C       0.7386   0.8958   0.0114     C
H       0.7435   0.5842   0.7608     H
H       0.7435   0.9158   0.2608     H
C       0.7444   0.0425   0.9583     C
C       0.7444   0.4575   0.4583     C
C       0.7593   0.7116   0.3255     C
C       0.7593   0.7884   0.8255     C
O       0.7743   0.0034   0.6134     O
O       0.7743   0.4966   0.1134     O
Zn     0.78288  0.14504  0.49068    Zn
Zn     0.78288  0.35496  0.99068    Zn
O       0.7829   0.1258   0.3302     O
O       0.7829   0.3742   0.8302     O
C       0.7864   0.7069   0.8063     C
C       0.7864   0.7931   0.3063     C
C       0.7907    0.574   0.5893     C
C       0.7907    0.926   0.0893     C
O       0.7927    0.221   0.9841     O
O       0.7927    0.279   0.4841     O
C       0.7963   0.0735    0.035     C
C       0.7963   0.4265    0.535     C
H       0.8008   0.6664   0.3468     H
H       0.8008   0.8336   0.8468     H
H       0.8058   0.6129   0.6338     H
H       0.8058   0.8871   0.1338     H
C       0.8201   0.0144   0.1005     C
C       0.8201   0.4856   0.6005     C
C       0.8268   0.1701   0.0464     C
C       0.8268   0.3299   0.5464     C
H       0.8486   0.2334   0.2479     H
H       0.8486   0.2666   0.7479     H
H       0.8561   0.0342   0.1524     H
H       0.8561   0.4658   0.6524     H
H       0.8606   0.2031   0.8785     H
H       0.8606   0.2969   0.3785     H
C        0.879    0.689   0.8187     C
C        0.879    0.811   0.3187     C
O       0.8804   0.1925   0.1134     O
O       0.8804   0.3075   0.6134     O
C       0.8821   0.2169   0.7735     C
C       0.8821   0.2831   0.2735     C
C       0.8885   0.1823   0.8453     C
C       0.8885   0.3177   0.3453     C
O       0.9021   0.6157   0.8005     O
O       0.9021   0.8843   0.3005     O
O       0.9037   0.1109   0.5496     O
O       0.9037   0.3891   0.0496     O
N       0.9332   0.1672   0.7439     N
N       0.9332   0.3328   0.2439     N
O       0.9343   0.7476   0.3483     O
O       0.9343   0.7524   0.8483     O
N       0.9441   0.1105   0.8603     N
N       0.9441   0.3895   0.3603     N
H       0.9481   0.5646    0.371     H
H       0.9481   0.9354    0.871     H
Zn     0.95268  0.19465  0.64101    Zn
Zn     0.95268  0.30535  0.14101    Zn
C       0.9689   0.1046   0.7978     C
C       0.9689   0.3954   0.2978     C
C       0.9694   0.5388   0.4229     C
C       0.9694   0.9612   0.9229     C
C       0.9725   0.0535   0.9318     C
C       0.9725   0.4465   0.4318     C
H        0.993   0.5611    0.707     H
H        0.993   0.9389    0.207     H
H       0.9981   0.6552   0.4867     H
H       0.9981   0.8448   0.9867     H
C       0.9983   0.5929   0.4918     C
C       0.9983   0.9071   0.9918     C
