data_I
_chemical_name_common  '/home/zhangsd/repos/MofS-CGCNN/ML/data/SSD/clean_cifs/UMEHOL_clean'
_cell_length_a 17.33580
_cell_length_b 11.63480
_cell_length_c 18.31980
_cell_angle_alpha 90.00000
_cell_angle_beta  110.42600
_cell_angle_gamma 90.00000
_space_group_name_H-M_alt      'P 1'


loop_
_space_group_symop_operation_xyz
  'x, y, z' 

loop_
_atom_site_label
_atom_site_fract_x
_atom_site_fract_y
_atom_site_fract_z
_atom_site_type_symbol
Dy     0.00104  0.08325  0.40541    Dy
Dy     0.00104  0.91675  0.90541    Dy
O       0.0716   0.0894  0.62457     O
O       0.0716   0.9106  0.12457     O
O      0.07788   0.0905  0.22507     O
O      0.07788   0.9095  0.72507     O
O      0.07997   0.0535  0.99354     O
O      0.07997   0.9465  0.49354     O
O      0.08277   0.1782  0.51959     O
O      0.08277   0.8218  0.01959     O
O       0.1008   0.0663  0.35163     O
O       0.1008   0.9337  0.85163     O
C       0.1042   0.1593   0.5918     C
C       0.1042   0.8407   0.0918     C
C       0.1161   0.1112   0.2952     C
C       0.1161   0.8888   0.7952     C
O      0.11628   0.1821  0.08756     O
O      0.11628   0.8179  0.58756     O
C       0.1287    0.131    0.032     C
C       0.1287    0.869    0.532     C
H       0.1632   0.2137   0.7509     H
H       0.1632   0.7863   0.2509     H
C       0.1745   0.2268   0.6444     C
C       0.1745   0.7732   0.1444     C
H       0.1822   0.2684   0.2132     H
H       0.1822   0.7316   0.7132     H
C       0.1861   0.1925   0.3144     C
C       0.1861   0.8075   0.8144     C
C       0.1934   0.2443   0.7224     C
C       0.1934   0.7557   0.2224     C
H       0.2005   0.0516   0.9242     H
H       0.2005   0.9484   0.4242     H
C       0.2015    0.161   0.0119     C
C       0.2015    0.839   0.5119     C
C       0.2096   0.2637   0.2667     C
C       0.2096   0.7363   0.7667     C
C       0.2267   0.1131   0.9554     C
C       0.2267   0.8869   0.4554     C
S      0.24476  0.29257  0.61032     S
S      0.24476  0.70743  0.11032     S
S      0.25028  0.20519  0.41012     S
S      0.25028  0.79481  0.91012     S
C       0.2641   0.3141   0.7552     C
C       0.2641   0.6859   0.2552     C
S      0.26439   0.2734  0.05935     S
S      0.26439   0.7266  0.55935     S
C       0.2799   0.3294   0.3071     C
C       0.2799   0.6706   0.8071     C
H       0.2845   0.3358   0.8074     H
H       0.2845   0.6642   0.3074     H
C       0.2967    0.168   0.9503     C
C       0.2967    0.832   0.4503     C
C       0.2993   0.3461   0.7022     C
C       0.2993   0.6539   0.2022     C
H       0.3037   0.3823   0.2833     H
H       0.3037   0.6177   0.7833     H
C        0.309   0.3067   0.3852     C
C        0.309   0.6933   0.8852     C
H       0.3222   0.1461   0.9155     H
H       0.3222   0.8539   0.4155     H
C       0.3236   0.2573   0.0017     C
C       0.3236   0.7427   0.5017     C
C       0.3757   0.4129   0.7161     C
C       0.3757   0.5871   0.2161     C
C       0.3801   0.3548   0.4479     C
C       0.3801   0.6452   0.9479     C
C       0.3904   0.3399   0.0061     C
C       0.3904   0.6601   0.5061     C
O      0.39578   0.3154  0.51594     O
O      0.39578   0.6846  0.01594     O
O      0.40477   0.4627  0.78222     O
O      0.40477   0.5373  0.28222     O
O      0.40533    0.418  0.66394     O
O      0.40533    0.582  0.16394     O
O       0.4083   0.4136  0.05928     O
O       0.4083   0.5864  0.55928     O
O      0.42235   0.3284  0.95477     O
O      0.42235   0.6716  0.45477     O
O       0.4238   0.4323  0.43359     O
O       0.4238   0.5677  0.93359     O
Dy     0.49762  0.43039  0.60096    Dy
Dy     0.49762  0.56961  0.10096    Dy
Dy     0.50238  0.43039  0.89904    Dy
Dy     0.50238  0.56961  0.39904    Dy
O       0.5762   0.4323  0.06641     O
O       0.5762   0.5677  0.56641     O
O      0.57765   0.3284  0.54523     O
O      0.57765   0.6716  0.04523     O
O       0.5917   0.4136  0.44072     O
O       0.5917   0.5864  0.94072     O
O      0.59467    0.418  0.83606     O
O      0.59467    0.582  0.33606     O
O      0.59523   0.4627  0.71778     O
O      0.59523   0.5373  0.21778     O
O      0.60422   0.3154  0.98406     O
O      0.60422   0.6846  0.48406     O
C       0.6096   0.3399   0.4939     C
C       0.6096   0.6601   0.9939     C
C       0.6199   0.3548   0.0521     C
C       0.6199   0.6452   0.5521     C
C       0.6243   0.4129   0.7839     C
C       0.6243   0.5871   0.2839     C
C       0.6764   0.2573   0.4983     C
C       0.6764   0.7427   0.9983     C
H       0.6778   0.1461   0.5845     H
H       0.6778   0.8539   0.0845     H
C        0.691   0.3067   0.1148     C
C        0.691   0.6933   0.6148     C
H       0.6963   0.3823   0.2167     H
H       0.6963   0.6177   0.7167     H
C       0.7007   0.3461   0.7978     C
C       0.7007   0.6539   0.2978     C
C       0.7033    0.168   0.5497     C
C       0.7033    0.832   0.0497     C
H       0.7155   0.3358   0.6926     H
H       0.7155   0.6642   0.1926     H
C       0.7201   0.3294   0.1929     C
C       0.7201   0.6706   0.6929     C
S      0.73561   0.2734  0.44065     S
S      0.73561   0.7266  0.94065     S
C       0.7359   0.3141   0.7448     C
C       0.7359   0.6859   0.2448     C
S      0.74972  0.20519  0.08988     S
S      0.74972  0.79481  0.58988     S
S      0.75524  0.29257  0.88968     S
S      0.75524  0.70743  0.38968     S
C       0.7733   0.1131   0.5446     C
C       0.7733   0.8869   0.0446     C
C       0.7904   0.2637   0.2333     C
C       0.7904   0.7363   0.7333     C
C       0.7985    0.161   0.4881     C
C       0.7985    0.839   0.9881     C
H       0.7995   0.0516   0.5758     H
H       0.7995   0.9484   0.0758     H
C       0.8066   0.2443   0.7776     C
C       0.8066   0.7557   0.2776     C
C       0.8139   0.1925   0.1856     C
C       0.8139   0.8075   0.6856     C
H       0.8178   0.2684   0.2868     H
H       0.8178   0.7316   0.7868     H
C       0.8255   0.2268   0.8556     C
C       0.8255   0.7732   0.3556     C
H       0.8368   0.2137   0.7491     H
H       0.8368   0.7863   0.2491     H
C       0.8713    0.131    0.468     C
C       0.8713    0.869    0.968     C
O      0.88372   0.1821  0.41244     O
O      0.88372   0.8179  0.91244     O
C       0.8839   0.1112   0.2048     C
C       0.8839   0.8888   0.7048     C
C       0.8958   0.1593   0.9082     C
C       0.8958   0.8407   0.4082     C
O       0.8992   0.0663  0.14837     O
O       0.8992   0.9337  0.64837     O
O      0.91723   0.1782  0.98041     O
O      0.91723   0.8218  0.48041     O
O      0.92003   0.0535  0.50646     O
O      0.92003   0.9465  0.00646     O
O      0.92212   0.0905  0.27493     O
O      0.92212   0.9095  0.77493     O
O       0.9284   0.0894  0.87543     O
O       0.9284   0.9106  0.37543     O
Dy     0.99896  0.08325  0.09459    Dy
Dy     0.99896  0.91675  0.59459    Dy
