data_I
_chemical_name_common  '/home/zhangsd/repos/MofS-CGCNN/ML/data/SSD/clean_cifs/UMEKII_clean'
_cell_length_a 20.81800
_cell_length_b  9.88700
_cell_length_c 17.28100
_cell_angle_alpha 90.00000
_cell_angle_beta  90.00000
_cell_angle_gamma 90.00000
_space_group_name_H-M_alt      'P 1'


loop_
_space_group_symop_operation_xyz
  'x, y, z' 

loop_
_atom_site_label
_atom_site_fract_x
_atom_site_fract_y
_atom_site_fract_z
_atom_site_type_symbol
C       0.0016   0.8117   0.2447     C
C       0.0016   0.8117   0.7553     C
C       0.0207   0.0614   0.2691     C
C       0.0207   0.0614   0.7309     C
H       0.0223   0.3875   0.2401     H
H       0.0223   0.3875   0.7599     H
C       0.0374   0.3033   0.2559     C
C       0.0374   0.3033   0.7441     C
C       0.0649   0.7933   0.2032     C
C       0.0649   0.7933   0.7968     C
O         0.08   0.8718   0.1499     O
O         0.08   0.8718   0.8501     O
C       0.0818   0.0536   0.3021     C
C       0.0818   0.0536   0.6979     C
H       0.0975   0.9699   0.3178     H
H       0.0975   0.9699   0.6822     H
C       0.0977   0.2925   0.2891     C
C       0.0977   0.2925   0.7109     C
O      0.09799   0.6909   0.2251     O
O      0.09799   0.6909   0.7749     O
C       0.1195    0.167   0.3124     C
C       0.1195    0.167   0.6876     C
H       0.1214   0.8716   0.0451     H
H       0.1214   0.8716   0.9549     H
H       0.1235   0.3687   0.2951     H
H       0.1235   0.3687   0.7049     H
N       0.1347   0.8356      0.0     N
H       0.1595    0.159    0.336     H
H       0.1595    0.159    0.664     H
C       0.1731   0.7247      0.0     C
Zn     0.18383  0.68973  0.17718    Zn
Zn     0.18383  0.68973  0.82282    Zn
N        0.193    0.662   0.0635     N
N        0.193    0.662   0.9365     N
H       0.2147   0.7806   0.3475     H
H       0.2147   0.7806   0.6525     H
N       0.2264   0.5548   0.3136     N
N       0.2264   0.5548   0.6864     N
N       0.2273   0.5374   0.2356     N
N       0.2273   0.5374   0.7644     N
N       0.2301   0.5604   0.0371     N
N       0.2301   0.5604   0.9629     N
N       0.2306    0.859   0.2081     N
N       0.2306    0.859   0.7919     N
N       0.2321   0.8594   0.3453     N
N       0.2321   0.8594   0.6547     N
H       0.2413   0.9019   0.3873     H
H       0.2413   0.9019   0.6127     H
C       0.2455   0.9149   0.2761     C
C       0.2455   0.9149   0.7239     C
N        0.249   0.9495   0.1528     N
N        0.249   0.9495   0.8472     N
N        0.251   0.4495   0.3472     N
N        0.251   0.4495   0.6528     N
C       0.2545   0.4149   0.2239     C
C       0.2545   0.4149   0.7761     C
H       0.2587   0.4019   0.1127     H
H       0.2587   0.4019   0.8873     H
N       0.2679   0.3594   0.1547     N
N       0.2679   0.3594   0.8453     N
N       0.2694    0.359   0.2919     N
N       0.2694    0.359   0.7081     N
N       0.2699   0.0604   0.4629     N
N       0.2699   0.0604   0.5371     N
N       0.2727   0.0374   0.2644     N
N       0.2727   0.0374   0.7356     N
N       0.2736   0.0548   0.1864     N
N       0.2736   0.0548   0.8136     N
H       0.2853   0.2806   0.1525     H
H       0.2853   0.2806   0.8475     H
N        0.307    0.162   0.4365     N
N        0.307    0.162   0.5635     N
Zn     0.31617  0.18973  0.32282    Zn
Zn     0.31617  0.18973  0.67718    Zn
C       0.3269   0.2247      0.5     C
H       0.3405    0.659    0.164     H
H       0.3405    0.659    0.836     H
N       0.3653   0.3356      0.5     N
H       0.3765   0.8687   0.2049     H
H       0.3765   0.8687   0.7951     H
H       0.3786   0.3716   0.4549     H
H       0.3786   0.3716   0.5451     H
C       0.3805    0.667   0.1876     C
C       0.3805    0.667   0.8124     C
O      0.40201   0.1909   0.2749     O
O      0.40201   0.1909   0.7251     O
C       0.4023   0.7925   0.2109     C
C       0.4023   0.7925   0.7891     C
H       0.4025   0.4699   0.1822     H
H       0.4025   0.4699   0.8178     H
C       0.4182   0.5536   0.1979     C
C       0.4182   0.5536   0.8021     C
O         0.42   0.3718   0.3501     O
O         0.42   0.3718   0.6499     O
C       0.4351   0.2933   0.2968     C
C       0.4351   0.2933   0.7032     C
C       0.4626   0.8033   0.2441     C
C       0.4626   0.8033   0.7559     C
H       0.4777   0.8875   0.2599     H
H       0.4777   0.8875   0.7401     H
C       0.4793   0.5614   0.2309     C
C       0.4793   0.5614   0.7691     C
C       0.4984   0.3117   0.2553     C
C       0.4984   0.3117   0.7447     C
C       0.5016   0.6883   0.2553     C
C       0.5016   0.6883   0.7447     C
C       0.5207   0.4386   0.2309     C
C       0.5207   0.4386   0.7691     C
H       0.5223   0.1125   0.2599     H
H       0.5223   0.1125   0.7401     H
C       0.5374   0.1967   0.2441     C
C       0.5374   0.1967   0.7559     C
C       0.5649   0.7067   0.2968     C
C       0.5649   0.7067   0.7032     C
O         0.58   0.6282   0.3501     O
O         0.58   0.6282   0.6499     O
C       0.5818   0.4464   0.1979     C
C       0.5818   0.4464   0.8021     C
H       0.5975   0.5301   0.1822     H
H       0.5975   0.5301   0.8178     H
C       0.5977   0.2075   0.2109     C
C       0.5977   0.2075   0.7891     C
O      0.59799   0.8091   0.2749     O
O      0.59799   0.8091   0.7251     O
C       0.6195    0.333   0.1876     C
C       0.6195    0.333   0.8124     C
H       0.6214   0.6284   0.4549     H
H       0.6214   0.6284   0.5451     H
H       0.6235   0.1313   0.2049     H
H       0.6235   0.1313   0.7951     H
N       0.6347   0.6644      0.5     N
H       0.6595    0.341    0.164     H
H       0.6595    0.341    0.836     H
C       0.6731   0.7753      0.5     C
Zn     0.68383  0.81027  0.32282    Zn
Zn     0.68383  0.81027  0.67718    Zn
N        0.693    0.838   0.4365     N
N        0.693    0.838   0.5635     N
H       0.7147   0.7194   0.1525     H
H       0.7147   0.7194   0.8475     H
N       0.7264   0.9452   0.1864     N
N       0.7264   0.9452   0.8136     N
N       0.7273   0.9626   0.2644     N
N       0.7273   0.9626   0.7356     N
N       0.7301   0.9396   0.4629     N
N       0.7301   0.9396   0.5371     N
N       0.7306    0.641   0.2919     N
N       0.7306    0.641   0.7081     N
N       0.7321   0.6406   0.1547     N
N       0.7321   0.6406   0.8453     N
H       0.7413   0.5981   0.1127     H
H       0.7413   0.5981   0.8873     H
C       0.7455   0.5851   0.2239     C
C       0.7455   0.5851   0.7761     C
N        0.749   0.5505   0.3472     N
N        0.749   0.5505   0.6528     N
N        0.751   0.0505   0.1528     N
N        0.751   0.0505   0.8472     N
C       0.7545   0.0851   0.2761     C
C       0.7545   0.0851   0.7239     C
H       0.7587   0.0981   0.3873     H
H       0.7587   0.0981   0.6127     H
N       0.7679   0.1406   0.3453     N
N       0.7679   0.1406   0.6547     N
N       0.7694    0.141   0.2081     N
N       0.7694    0.141   0.7919     N
N       0.7699   0.4396   0.0371     N
N       0.7699   0.4396   0.9629     N
N       0.7727   0.4626   0.2356     N
N       0.7727   0.4626   0.7644     N
N       0.7736   0.4452   0.3136     N
N       0.7736   0.4452   0.6864     N
H       0.7853   0.2194   0.3475     H
H       0.7853   0.2194   0.6525     H
N        0.807    0.338   0.0635     N
N        0.807    0.338   0.9365     N
Zn     0.81617  0.31027  0.17718    Zn
Zn     0.81617  0.31027  0.82282    Zn
C       0.8269   0.2753      0.0     C
H       0.8405    0.841    0.336     H
H       0.8405    0.841    0.664     H
N       0.8653   0.1644      0.0     N
H       0.8765   0.6313   0.2951     H
H       0.8765   0.6313   0.7049     H
H       0.8786   0.1284   0.0451     H
H       0.8786   0.1284   0.9549     H
C       0.8805    0.833   0.3124     C
C       0.8805    0.833   0.6876     C
O      0.90201   0.3091   0.2251     O
O      0.90201   0.3091   0.7749     O
C       0.9023   0.7075   0.2891     C
C       0.9023   0.7075   0.7109     C
H       0.9025   0.0301   0.3178     H
H       0.9025   0.0301   0.6822     H
C       0.9182   0.9464   0.3021     C
C       0.9182   0.9464   0.6979     C
O         0.92   0.1282   0.1499     O
O         0.92   0.1282   0.8501     O
C       0.9351   0.2067   0.2032     C
C       0.9351   0.2067   0.7968     C
C       0.9626   0.6967   0.2559     C
C       0.9626   0.6967   0.7441     C
H       0.9777   0.6125   0.2401     H
H       0.9777   0.6125   0.7599     H
C       0.9793   0.9386   0.2691     C
C       0.9793   0.9386   0.7309     C
C       0.9984   0.1883   0.2447     C
C       0.9984   0.1883   0.7553     C
