data_I
_chemical_name_common  '/home/zhangsd/repos/MofS-CGCNN/ML/data/SSD/clean_cifs/UMESIQ_clean'
_cell_length_a 17.20530
_cell_length_b 11.64620
_cell_length_c 18.26290
_cell_angle_alpha 90.00000
_cell_angle_beta  110.46200
_cell_angle_gamma 90.00000
_space_group_name_H-M_alt      'P 1'


loop_
_space_group_symop_operation_xyz
  'x, y, z' 

loop_
_atom_site_label
_atom_site_fract_x
_atom_site_fract_y
_atom_site_fract_z
_atom_site_type_symbol
Yb     0.00161  0.41658  0.90431    Yb
Yb     0.00161  0.58342  0.40431    Yb
O       0.0735   0.4181   0.1223     O
O       0.0735   0.5819   0.6223     O
O       0.0764   0.4112   0.7237     O
O       0.0764   0.5888   0.2237     O
O       0.0805   0.4489   0.4873     O
O       0.0805   0.5511   0.9873     O
O       0.0813   0.3257   0.0172     O
O       0.0813   0.6743   0.5172     O
O       0.1009   0.4306    0.852     O
O       0.1009   0.5694    0.352     O
C       0.1045   0.3465   0.0895     C
C       0.1045   0.6535   0.5895     C
O       0.1135   0.3262   0.5836     O
O       0.1135   0.6738   0.0836     O
C       0.1148   0.3885   0.7932     C
C       0.1148   0.6115   0.2932     C
C       0.1269    0.372   0.5272     C
C       0.1269    0.628   0.0272     C
H       0.1635   0.2905   0.2494     H
H       0.1635   0.7095   0.7494     H
C       0.1748   0.2773   0.1425     C
C       0.1748   0.7227   0.6425     C
H       0.1816   0.2396    0.708     H
H       0.1816   0.7604    0.208     H
C       0.1867   0.3076   0.8121     C
C       0.1867   0.6924   0.3121     C
C       0.1941   0.2596    0.221     C
C       0.1941   0.7404    0.721     C
C       0.2013   0.3376   0.5094     C
C       0.2013   0.6624   0.0094     C
H       0.2033   0.4463    0.423     H
H       0.2033   0.5537    0.923     H
C       0.2092   0.2413   0.7618     C
C       0.2092   0.7587   0.2618     C
C        0.228   0.3835   0.4538     C
C        0.228   0.6165   0.9538     C
S      0.24479   0.2108  0.10888     S
S      0.24479   0.7892  0.60888     S
S      0.25117  0.29118   0.9079     S
S      0.25117  0.70882   0.4079     S
S      0.26288  0.22461  0.55761     S
S      0.26288  0.77539  0.05761     S
C       0.2643   0.1904   0.2547     C
C       0.2643   0.8096   0.7547     C
C       0.2804   0.1752   0.8021     C
C       0.2804   0.8248   0.3021     C
H       0.2843   0.1681   0.3069     H
H       0.2843   0.8319   0.8069     H
C       0.2965   0.3253   0.4486     C
C       0.2965   0.6747   0.9486     C
C       0.2999   0.1595   0.2006     C
C       0.2999   0.8405   0.7006     C
H       0.3043   0.1236   0.7772     H
H       0.3043   0.8764   0.2772     H
C       0.3107   0.1943   0.8808     C
C       0.3107   0.8057   0.3808     C
H       0.3216   0.3453   0.4128     H
H       0.3216   0.6547   0.9128     H
C       0.3239   0.2368   0.5001     C
C       0.3239   0.7632   0.0001     C
C       0.3771   0.0926   0.2152     C
C       0.3771   0.9074   0.7152     C
C       0.3828   0.1417   0.9432     C
C       0.3828   0.8583   0.4432     C
C       0.3903   0.1517   0.5046     C
C       0.3903   0.8483   0.0046     C
O       0.3974    0.175   0.0115     O
O       0.3974    0.825   0.5115     O
O       0.4056   0.0846   0.1617     O
O       0.4056   0.9154   0.6617     O
O       0.4063   0.0788   0.5569     O
O       0.4063   0.9212   0.0569     O
O        0.408   0.0444   0.2815     O
O        0.408   0.9556   0.7815     O
O       0.4222   0.1655   0.4532     O
O       0.4222   0.8345   0.9532     O
O       0.4254   0.0679   0.9235     O
O       0.4254   0.9321   0.4235     O
Yb     0.49724  0.07133  0.10204    Yb
Yb     0.49724  0.92867  0.60204    Yb
Yb     0.50276  0.07133  0.39796    Yb
Yb     0.50276  0.92867  0.89796    Yb
O       0.5746   0.0679   0.5765     O
O       0.5746   0.9321   0.0765     O
O       0.5778   0.1655   0.0468     O
O       0.5778   0.8345   0.5468     O
O        0.592   0.0444   0.2185     O
O        0.592   0.9556   0.7185     O
O       0.5937   0.0788   0.9431     O
O       0.5937   0.9212   0.4431     O
O       0.5944   0.0846   0.3383     O
O       0.5944   0.9154   0.8383     O
O       0.6026    0.175   0.4885     O
O       0.6026    0.825   0.9885     O
C       0.6097   0.1517   0.9954     C
C       0.6097   0.8483   0.4954     C
C       0.6172   0.1417   0.5568     C
C       0.6172   0.8583   0.0568     C
C       0.6229   0.0926   0.2848     C
C       0.6229   0.9074   0.7848     C
C       0.6761   0.2368   0.9999     C
C       0.6761   0.7632   0.4999     C
H       0.6784   0.3453   0.0872     H
H       0.6784   0.6547   0.5872     H
C       0.6893   0.1943   0.6192     C
C       0.6893   0.8057   0.1192     C
H       0.6957   0.1236   0.7228     H
H       0.6957   0.8764   0.2228     H
C       0.7001   0.1595   0.2994     C
C       0.7001   0.8405   0.7994     C
C       0.7035   0.3253   0.0514     C
C       0.7035   0.6747   0.5514     C
H       0.7157   0.1681   0.1931     H
H       0.7157   0.8319   0.6931     H
C       0.7196   0.1752   0.6979     C
C       0.7196   0.8248   0.1979     C
C       0.7357   0.1904   0.2453     C
C       0.7357   0.8096   0.7453     C
S      0.73712  0.22461  0.94239     S
S      0.73712  0.77539  0.44239     S
S      0.74883  0.29118   0.5921     S
S      0.74883  0.70882   0.0921     S
S      0.75521   0.2108  0.39112     S
S      0.75521   0.7892  0.89112     S
C        0.772   0.3835   0.0462     C
C        0.772   0.6165   0.5462     C
C       0.7908   0.2413   0.7382     C
C       0.7908   0.7587   0.2382     C
H       0.7967   0.4463    0.077     H
H       0.7967   0.5537    0.577     H
C       0.7987   0.3376   0.9906     C
C       0.7987   0.6624   0.4906     C
C       0.8059   0.2596    0.279     C
C       0.8059   0.7404    0.779     C
C       0.8133   0.3076   0.6879     C
C       0.8133   0.6924   0.1879     C
H       0.8184   0.2396    0.792     H
H       0.8184   0.7604    0.292     H
C       0.8252   0.2773   0.3575     C
C       0.8252   0.7227   0.8575     C
H       0.8365   0.2905   0.2506     H
H       0.8365   0.7095   0.7506     H
C       0.8731    0.372   0.9728     C
C       0.8731    0.628   0.4728     C
C       0.8852   0.3885   0.7068     C
C       0.8852   0.6115   0.2068     C
O       0.8865   0.3262   0.9164     O
O       0.8865   0.6738   0.4164     O
C       0.8955   0.3465   0.4105     C
C       0.8955   0.6535   0.9105     C
O       0.8991   0.4306    0.648     O
O       0.8991   0.5694    0.148     O
O       0.9187   0.3257   0.4828     O
O       0.9187   0.6743   0.9828     O
O       0.9195   0.4489   0.0127     O
O       0.9195   0.5511   0.5127     O
O       0.9236   0.4112   0.7763     O
O       0.9236   0.5888   0.2763     O
O       0.9265   0.4181   0.3777     O
O       0.9265   0.5819   0.8777     O
Yb     0.99839  0.41658  0.59569    Yb
Yb     0.99839  0.58342  0.09569    Yb
