data_I
_chemical_name_common  '/home/zhangsd/repos/MofS-CGCNN/ML/data/SSD/clean_cifs/USIRUL_clean'
_cell_length_a 22.00230
_cell_length_b 19.24110
_cell_length_c  8.73110
_cell_angle_alpha 90.00000
_cell_angle_beta  90.00000
_cell_angle_gamma 90.00000
_space_group_name_H-M_alt      'P 1'


loop_
_space_group_symop_operation_xyz
  'x, y, z' 

loop_
_atom_site_label
_atom_site_fract_x
_atom_site_fract_y
_atom_site_fract_z
_atom_site_type_symbol
Cu         0.0  0.26854     0.25    Cu
Cu         0.0  0.39502     0.75    Cu
Cu         0.0  0.60498     0.25    Cu
Cu         0.0  0.73146     0.75    Cu
C      0.00124  0.34728   0.9433     C
N      0.00124  0.65272   0.4433     N
C      0.00143  0.31676   0.4431     C
C      0.00143  0.68324   0.9431     C
H       0.0354   0.4571   0.1287     H
H       0.0354   0.5429   0.6287     H
H       0.0491   0.1325    0.389     H
H       0.0491   0.8675    0.889     H
C      0.06902  0.46854   0.1923     C
C      0.06902  0.53146   0.6923     C
N      0.06905  0.19413   0.2153     N
N      0.06905  0.80587   0.7153     N
N      0.07297  0.46716  0.75144     N
N      0.07297  0.53284  0.25144     N
C      0.07327  0.13602   0.2991     C
C      0.07327  0.86398   0.7991     C
H       0.0932   0.2637   0.7029     H
H       0.0932   0.7363   0.2029     H
H       0.1012   0.2385   0.0279     H
H       0.1012   0.7615   0.5279     H
C      0.10385  0.19793   0.0895     C
C      0.10385  0.80207   0.5895     C
H       0.1074   0.3731   0.1819     H
H       0.1074   0.6269   0.6819     H
C      0.11101  0.08067   0.2618     C
C      0.11101  0.91933   0.7618     C
H        0.112   0.0403   0.3243     H
H        0.112   0.9597   0.8243     H
C      0.11289  0.41856   0.2218     C
C      0.11289  0.58144   0.7218     C
C       0.1232  0.45282    0.833     C
C       0.1232  0.54718    0.333     C
H       0.1283   0.4076   0.8748     H
H       0.1283   0.5924   0.3748     H
C      0.12936  0.25069   0.6508     C
C      0.12936  0.74931   0.1508     C
H       0.1407   0.0539    0.675     H
H       0.1407   0.9461    0.175     H
C      0.14333  0.14585   0.0448     C
C      0.14333  0.85415   0.5448     C
N      0.14546  0.18341   0.6467     N
N      0.14546  0.81659   0.1467     N
C      0.14736  0.08505   0.1318     C
C      0.14736  0.91495   0.6318     C
H       0.1505   0.3484    0.585     H
H       0.1505   0.6516    0.085     H
N      0.16248  0.43208   0.3042     N
N      0.16248  0.56792   0.8042     N
C      0.16401  0.30156   0.5813     C
C      0.16401  0.69844   0.0813     C
H       0.1675   0.1514   0.9555     H
H       0.1675   0.8486   0.4555     H
C      0.16799   0.4973   0.3578     C
C      0.16799   0.5027   0.8578     C
C      0.17503  0.04179   0.6147     C
C      0.17503  0.95821   0.1147     C
C      0.18815  0.02783   0.0837     C
C      0.18815  0.97217   0.5837     C
C      0.19675  0.16796   0.5719     C
C      0.19675  0.83204   0.0719     C
C      0.21321  0.09354   0.5558     C
C      0.21321  0.90646   0.0558     C
N      0.21585  0.28698   0.5092     N
N      0.21585  0.71302   0.0092     N
C      0.22379  0.48751    0.948     C
C      0.22379  0.51249    0.448     C
H       0.2315   0.2926   0.9544     H
H       0.2315   0.7074   0.4544     H
C      0.23185  0.21995   0.5049     C
C      0.23185  0.78005   0.0049     C
N       0.2367  0.42042   0.9743     N
N       0.2367  0.57958   0.4743     N
C      0.24036  0.04247   0.9991     C
C      0.24036  0.95753   0.4991     C
H       0.2487   0.4109   0.4766     H
H       0.2487   0.5891   0.9766     H
H       0.2513   0.0891   0.9766     H
H       0.2513   0.9109   0.4766     H
C      0.25964  0.45753   0.4991     C
C      0.25964  0.54247   0.9991     C
N       0.2633  0.07958   0.4743     N
N       0.2633  0.92042   0.9743     N
C      0.26815  0.28005   0.0049     C
C      0.26815  0.71995   0.5049     C
H       0.2685   0.2074   0.4544     H
H       0.2685   0.7926   0.9544     H
C      0.27621  0.01249    0.448     C
C      0.27621  0.98751    0.948     C
N      0.28415  0.21302   0.0092     N
N      0.28415  0.78698   0.5092     N
C      0.28679  0.40646   0.0558     C
C      0.28679  0.59354   0.5558     C
C      0.30325  0.33204   0.0719     C
C      0.30325  0.66796   0.5719     C
C      0.31185  0.47217   0.5837     C
C      0.31185  0.52783   0.0837     C
C      0.32497  0.45821   0.1147     C
C      0.32497  0.54179   0.6147     C
C      0.33201   0.0027   0.8578     C
C      0.33201   0.9973   0.3578     C
H       0.3325   0.3486   0.4555     H
H       0.3325   0.6514   0.9555     H
C      0.33599  0.19844   0.0813     C
C      0.33599  0.80156   0.5813     C
N      0.33752  0.06792   0.8042     N
N      0.33752  0.93208   0.3042     N
H       0.3495   0.1516    0.085     H
H       0.3495   0.8484    0.585     H
C      0.35264  0.41495   0.6318     C
C      0.35264  0.58505   0.1318     C
N      0.35454  0.31659   0.1467     N
N      0.35454  0.68341   0.6467     N
C      0.35667  0.35415   0.5448     C
C      0.35667  0.64585   0.0448     C
H       0.3593   0.4461    0.175     H
H       0.3593   0.5539    0.675     H
C      0.37064  0.24931   0.1508     C
C      0.37064  0.75069   0.6508     C
H       0.3717   0.0924   0.3748     H
H       0.3717   0.9076   0.8748     H
C       0.3768  0.04718    0.333     C
C       0.3768  0.95282    0.833     C
C      0.38711  0.08144   0.7218     C
C      0.38711  0.91856   0.2218     C
H        0.388   0.4597   0.8243     H
H        0.388   0.5403   0.3243     H
C      0.38899  0.41933   0.7618     C
C      0.38899  0.58067   0.2618     C
H       0.3926   0.1269   0.6819     H
H       0.3926   0.8731   0.1819     H
C      0.39615  0.30207   0.5895     C
C      0.39615  0.69793   0.0895     C
H       0.3988   0.2615   0.5279     H
H       0.3988   0.7385   0.0279     H
H       0.4068   0.2363   0.2029     H
H       0.4068   0.7637   0.7029     H
C      0.42673  0.36398   0.7991     C
C      0.42673  0.63602   0.2991     C
N      0.42703  0.03284  0.25144     N
N      0.42703  0.96716  0.75144     N
N      0.43095  0.30587   0.7153     N
N      0.43095  0.69413   0.2153     N
C      0.43098  0.03146   0.6923     C
C      0.43098  0.96854   0.1923     C
H       0.4509   0.3675    0.889     H
H       0.4509   0.6325    0.389     H
H       0.4646   0.0429   0.6287     H
H       0.4646   0.9571   0.1287     H
C      0.49857  0.18324   0.9431     C
C      0.49857  0.81676   0.4431     C
C      0.49876  0.15272   0.4433     C
N      0.49876  0.84728   0.9433     N
Cu         0.5  0.10498     0.25    Cu
Cu         0.5  0.23146     0.75    Cu
Cu         0.5  0.76854     0.25    Cu
Cu         0.5  0.89502     0.75    Cu
N      0.50124  0.15272   0.0567     N
C      0.50124  0.84728   0.5567     C
C      0.50143  0.18324   0.5569     C
C      0.50143  0.81676   0.0569     C
H       0.5354   0.0429   0.8713     H
H       0.5354   0.9571   0.3713     H
H       0.5491   0.3675    0.611     H
H       0.5491   0.6325    0.111     H
C      0.56902  0.03146   0.8077     C
C      0.56902  0.96854   0.3077     C
N      0.56905  0.30587   0.7847     N
N      0.56905  0.69413   0.2847     N
N      0.57297  0.03284  0.24856     N
N      0.57297  0.96716  0.74856     N
C      0.57327  0.36398   0.7009     C
C      0.57327  0.63602   0.2009     C
H       0.5932   0.2363   0.2971     H
H       0.5932   0.7637   0.7971     H
H       0.6012   0.2615   0.9721     H
H       0.6012   0.7385   0.4721     H
C      0.60385  0.30207   0.9105     C
C      0.60385  0.69793   0.4105     C
H       0.6074   0.1269   0.8181     H
H       0.6074   0.8731   0.3181     H
C      0.61101  0.41933   0.7382     C
C      0.61101  0.58067   0.2382     C
H        0.612   0.4597   0.6757     H
H        0.612   0.5403   0.1757     H
C      0.61289  0.08144   0.7782     C
C      0.61289  0.91856   0.2782     C
C       0.6232  0.04718    0.167     C
C       0.6232  0.95282    0.667     C
H       0.6283   0.0924   0.1252     H
H       0.6283   0.9076   0.6252     H
C      0.62936  0.24931   0.3492     C
C      0.62936  0.75069   0.8492     C
H       0.6407   0.4461    0.325     H
H       0.6407   0.5539    0.825     H
C      0.64333  0.35415   0.9552     C
C      0.64333  0.64585   0.4552     C
N      0.64546  0.31659   0.3533     N
N      0.64546  0.68341   0.8533     N
C      0.64736  0.41495   0.8682     C
C      0.64736  0.58505   0.3682     C
H       0.6505   0.1516    0.415     H
H       0.6505   0.8484    0.915     H
N      0.66248  0.06792   0.6958     N
N      0.66248  0.93208   0.1958     N
C      0.66401  0.19844   0.4187     C
C      0.66401  0.80156   0.9187     C
H       0.6675   0.3486   0.0445     H
H       0.6675   0.6514   0.5445     H
C      0.66799   0.0027   0.6422     C
C      0.66799   0.9973   0.1422     C
C      0.67503  0.45821   0.3853     C
C      0.67503  0.54179   0.8853     C
C      0.68815  0.47217   0.9163     C
C      0.68815  0.52783   0.4163     C
C      0.69675  0.33204   0.4281     C
C      0.69675  0.66796   0.9281     C
C      0.71321  0.40646   0.4442     C
C      0.71321  0.59354   0.9442     C
N      0.71585  0.21302   0.4908     N
N      0.71585  0.78698   0.9908     N
C      0.72379  0.01249    0.052     C
C      0.72379  0.98751    0.552     C
H       0.7315   0.2074   0.0456     H
H       0.7315   0.7926   0.5456     H
C      0.73185  0.28005   0.4951     C
C      0.73185  0.71995   0.9951     C
N       0.7367  0.07958   0.0257     N
N       0.7367  0.92042   0.5257     N
C      0.74036  0.45753   0.0009     C
C      0.74036  0.54247   0.5009     C
H       0.7487   0.0891   0.5234     H
H       0.7487   0.9109   0.0234     H
H       0.7513   0.4109   0.0234     H
H       0.7513   0.5891   0.5234     H
C      0.75964  0.04247   0.5009     C
C      0.75964  0.95753   0.0009     C
N       0.7633  0.42042   0.5257     N
N       0.7633  0.57958   0.0257     N
C      0.76815  0.21995   0.9951     C
C      0.76815  0.78005   0.4951     C
H       0.7685   0.2926   0.5456     H
H       0.7685   0.7074   0.0456     H
C      0.77621  0.48751    0.552     C
C      0.77621  0.51249    0.052     C
N      0.78415  0.28698   0.9908     N
N      0.78415  0.71302   0.4908     N
C      0.78679  0.09354   0.9442     C
C      0.78679  0.90646   0.4442     C
C      0.80325  0.16796   0.9281     C
C      0.80325  0.83204   0.4281     C
C      0.81185  0.02783   0.4163     C
C      0.81185  0.97217   0.9163     C
C      0.82497  0.04179   0.8853     C
C      0.82497  0.95821   0.3853     C
C      0.83201   0.4973   0.1422     C
C      0.83201   0.5027   0.6422     C
H       0.8325   0.1514   0.5445     H
H       0.8325   0.8486   0.0445     H
C      0.83599  0.30156   0.9187     C
C      0.83599  0.69844   0.4187     C
N      0.83752  0.43208   0.1958     N
N      0.83752  0.56792   0.6958     N
H       0.8495   0.3484    0.915     H
H       0.8495   0.6516    0.415     H
C      0.85264  0.08505   0.3682     C
C      0.85264  0.91495   0.8682     C
N      0.85454  0.18341   0.8533     N
N      0.85454  0.81659   0.3533     N
C      0.85667  0.14585   0.4552     C
C      0.85667  0.85415   0.9552     C
H       0.8593   0.0539    0.825     H
H       0.8593   0.9461    0.325     H
C      0.87064  0.25069   0.8492     C
C      0.87064  0.74931   0.3492     C
H       0.8717   0.4076   0.6252     H
H       0.8717   0.5924   0.1252     H
C       0.8768  0.45282    0.667     C
C       0.8768  0.54718    0.167     C
C      0.88711  0.41856   0.2782     C
C      0.88711  0.58144   0.7782     C
H        0.888   0.0403   0.1757     H
H        0.888   0.9597   0.6757     H
C      0.88899  0.08067   0.2382     C
C      0.88899  0.91933   0.7382     C
H       0.8926   0.3731   0.3181     H
H       0.8926   0.6269   0.8181     H
C      0.89615  0.19793   0.4105     C
C      0.89615  0.80207   0.9105     C
H       0.8988   0.2385   0.4721     H
H       0.8988   0.7615   0.9721     H
H       0.9068   0.2637   0.7971     H
H       0.9068   0.7363   0.2971     H
C      0.92673  0.13602   0.2009     C
C      0.92673  0.86398   0.7009     C
N      0.92703  0.46716  0.74856     N
N      0.92703  0.53284  0.24856     N
N      0.93095  0.19413   0.2847     N
N      0.93095  0.80587   0.7847     N
C      0.93098  0.46854   0.3077     C
C      0.93098  0.53146   0.8077     C
H       0.9509   0.1325    0.111     H
H       0.9509   0.8675    0.611     H
H       0.9646   0.4571   0.3713     H
H       0.9646   0.5429   0.8713     H
C      0.99857  0.31676   0.0569     C
C      0.99857  0.68324   0.5569     C
N      0.99876  0.34728   0.5567     N
C      0.99876  0.65272   0.0567     C
