data_I
_chemical_name_common  '/home/zhangsd/repos/MofS-CGCNN/ML/data/SSD/clean_cifs/USISEW_clean'
_cell_length_a 21.94150
_cell_length_b 19.27030
_cell_length_c  8.90500
_cell_angle_alpha 90.00000
_cell_angle_beta  90.00000
_cell_angle_gamma 90.00000
_space_group_name_H-M_alt      'P 1'


loop_
_space_group_symop_operation_xyz
  'x, y, z' 

loop_
_atom_site_label
_atom_site_fract_x
_atom_site_fract_y
_atom_site_fract_z
_atom_site_type_symbol
Cu         0.0  0.27368     0.25    Cu
Cu         0.0  0.39082     0.75    Cu
Cu         0.0  0.60918     0.25    Cu
Cu         0.0  0.72632     0.75    Cu
C      0.00077  0.34701   0.9438     C
N      0.00077  0.65299   0.4438     N
C      0.00117  0.31918   0.4414     C
C      0.00117  0.68082   0.9414     C
H        0.038   0.4599   0.1356     H
H        0.038   0.5401   0.6356     H
H       0.0546   0.1384   0.3916     H
H       0.0546   0.8616   0.8916     H
N      0.06983  0.19663   0.2202     N
N      0.06983  0.80337   0.7202     N
C      0.07042  0.47045    0.199     C
C      0.07042  0.52955    0.699     C
N       0.0747  0.46613   0.7562     N
N       0.0747  0.53387   0.2562     N
C      0.07684    0.141   0.3029     C
C      0.07684    0.859   0.8029     C
H       0.0944    0.259   0.7131     H
H       0.0944    0.741   0.2131     H
H       0.0988   0.2359    0.031     H
H       0.0988   0.7641    0.531     H
C       0.1027   0.1976   0.0938     C
C       0.1027   0.8024   0.5938     C
H       0.1074   0.3754   0.1927     H
H       0.1074   0.6246   0.6927     H
C       0.1131   0.4197   0.2314     C
C       0.1131   0.5803   0.7314     C
C       0.1143   0.0868   0.2691     C
C       0.1143   0.9132   0.7691     C
H       0.1168    0.049   0.3337     H
H       0.1168    0.951   0.8337     H
C      0.12388  0.45385   0.8397     C
C      0.12388  0.54615   0.3397     C
H       0.1289   0.4098   0.8805     H
H       0.1289   0.5902   0.3805     H
C         0.13   0.2467   0.6627     C
C         0.13   0.7533   0.1627     C
C       0.1415   0.1462   0.0512     C
C       0.1415   0.8538   0.5512     C
H       0.1434   0.0502   0.6847     H
H       0.1434   0.9498   0.1847     H
N      0.14614  0.17971   0.6569     N
N      0.14614  0.82029   0.1569     N
C       0.1481  0.08803   0.1398     C
C       0.1481  0.91197   0.6398     C
H       0.1501    0.342   0.6021     H
H       0.1501    0.658   0.1021     H
N      0.16197  0.43186   0.3157     N
N      0.16197  0.56814   0.8157     N
H       0.1635   0.1503   0.9624     H
H       0.1635   0.8497   0.4624     H
C       0.1637   0.2964   0.5977     C
C       0.1637   0.7036   0.0977     C
C      0.16766  0.49665   0.3685     C
C      0.16766  0.50335   0.8685     C
C      0.17687  0.03881   0.6256     C
C      0.17687  0.96119   0.1256     C
C      0.18955  0.03045   0.0932     C
C      0.18955  0.96955   0.5932     C
C      0.19816  0.16507   0.5883     C
C      0.19816  0.83493   0.0883     C
C      0.21436  0.09071   0.5692     C
C      0.21436  0.90929   0.0692     C
N       0.2154   0.2829   0.5278     N
N       0.2154   0.7171   0.0278     N
C      0.22323  0.48972   0.9607     C
C      0.22323  0.51028   0.4607     C
C       0.2316   0.2168    0.525     C
C       0.2316   0.7832    0.025     C
H       0.2321    0.295   0.9771     H
H       0.2321    0.705   0.4771     H
N      0.23563  0.42282   0.9879     N
N      0.23563  0.57718   0.4879     N
C      0.24135  0.04347   0.0091     C
C      0.24135  0.95653   0.5091     C
H        0.248   0.4111   0.4855     H
H        0.248   0.5889   0.9855     H
H        0.252   0.0889   0.9855     H
H        0.252   0.9111   0.4855     H
C      0.25865  0.45653   0.5091     C
C      0.25865  0.54347   0.0091     C
N      0.26437  0.07718   0.4879     N
N      0.26437  0.92282   0.9879     N
H       0.2679    0.205   0.4771     H
H       0.2679    0.795   0.9771     H
C       0.2684   0.2832    0.025     C
C       0.2684   0.7168    0.525     C
C      0.27677  0.01028   0.4607     C
C      0.27677  0.98972   0.9607     C
N       0.2846   0.2171   0.0278     N
N       0.2846   0.7829   0.5278     N
C      0.28564  0.40929   0.0692     C
C      0.28564  0.59071   0.5692     C
C      0.30184  0.33493   0.0883     C
C      0.30184  0.66507   0.5883     C
C      0.31045  0.46955   0.5932     C
C      0.31045  0.53045   0.0932     C
C      0.32313  0.46119   0.1256     C
C      0.32313  0.53881   0.6256     C
C      0.33234  0.00335   0.8685     C
C      0.33234  0.99665   0.3685     C
C       0.3363   0.2036   0.0977     C
C       0.3363   0.7964   0.5977     C
H       0.3365   0.3497   0.4624     H
H       0.3365   0.6503   0.9624     H
N      0.33803  0.06814   0.8157     N
N      0.33803  0.93186   0.3157     N
H       0.3499    0.158   0.1021     H
H       0.3499    0.842   0.6021     H
C       0.3519  0.41197   0.6398     C
C       0.3519  0.58803   0.1398     C
N      0.35386  0.32029   0.1569     N
N      0.35386  0.67971   0.6569     N
H       0.3566   0.4498   0.1847     H
H       0.3566   0.5502   0.6847     H
C       0.3585   0.3538   0.5512     C
C       0.3585   0.6462   0.0512     C
C         0.37   0.2533   0.1627     C
C         0.37   0.7467   0.6627     C
H       0.3711   0.0902   0.3805     H
H       0.3711   0.9098   0.8805     H
C      0.37612  0.04615   0.3397     C
C      0.37612  0.95385   0.8397     C
H       0.3832    0.451   0.8337     H
H       0.3832    0.549   0.3337     H
C       0.3857   0.4132   0.7691     C
C       0.3857   0.5868   0.2691     C
C       0.3869   0.0803   0.7314     C
C       0.3869   0.9197   0.2314     C
H       0.3926   0.1246   0.6927     H
H       0.3926   0.8754   0.1927     H
C       0.3973   0.3024   0.5938     C
C       0.3973   0.6976   0.0938     C
H       0.4012   0.2641    0.531     H
H       0.4012   0.7359    0.031     H
H       0.4056    0.241   0.2131     H
H       0.4056    0.759   0.7131     H
C      0.42316    0.359   0.8029     C
C      0.42316    0.641   0.3029     C
N       0.4253  0.03387   0.2562     N
N       0.4253  0.96613   0.7562     N
C      0.42958  0.02955    0.699     C
C      0.42958  0.97045    0.199     C
N      0.43017  0.30337   0.7202     N
N      0.43017  0.69663   0.2202     N
H       0.4454   0.3616   0.8916     H
H       0.4454   0.6384   0.3916     H
H        0.462   0.0401   0.6356     H
H        0.462   0.9599   0.1356     H
C      0.49883  0.18082   0.9414     C
C      0.49883  0.81918   0.4414     C
C      0.49923  0.15299   0.4438     C
N      0.49923  0.84701   0.9438     N
Cu         0.5  0.10918     0.25    Cu
Cu         0.5  0.22632     0.75    Cu
Cu         0.5  0.77368     0.25    Cu
Cu         0.5  0.89082     0.75    Cu
N      0.50077  0.15299   0.0562     N
C      0.50077  0.84701   0.5562     C
C      0.50117  0.18082   0.5586     C
C      0.50117  0.81918   0.0586     C
H        0.538   0.0401   0.8644     H
H        0.538   0.9599   0.3644     H
H       0.5546   0.3616   0.6084     H
H       0.5546   0.6384   0.1084     H
N      0.56983  0.30337   0.7798     N
N      0.56983  0.69663   0.2798     N
C      0.57042  0.02955    0.801     C
C      0.57042  0.97045    0.301     C
N       0.5747  0.03387   0.2438     N
N       0.5747  0.96613   0.7438     N
C      0.57684    0.359   0.6971     C
C      0.57684    0.641   0.1971     C
H       0.5944    0.241   0.2869     H
H       0.5944    0.759   0.7869     H
H       0.5988   0.2641    0.969     H
H       0.5988   0.7359    0.469     H
C       0.6027   0.3024   0.9062     C
C       0.6027   0.6976   0.4062     C
H       0.6074   0.1246   0.8073     H
H       0.6074   0.8754   0.3073     H
C       0.6131   0.0803   0.7686     C
C       0.6131   0.9197   0.2686     C
C       0.6143   0.4132   0.7309     C
C       0.6143   0.5868   0.2309     C
H       0.6168    0.451   0.6663     H
H       0.6168    0.549   0.1663     H
C      0.62388  0.04615   0.1603     C
C      0.62388  0.95385   0.6603     C
H       0.6289   0.0902   0.1195     H
H       0.6289   0.9098   0.6195     H
C         0.63   0.2533   0.3373     C
C         0.63   0.7467   0.8373     C
C       0.6415   0.3538   0.9488     C
C       0.6415   0.6462   0.4488     C
H       0.6434   0.4498   0.3153     H
H       0.6434   0.5502   0.8153     H
N      0.64614  0.32029   0.3431     N
N      0.64614  0.67971   0.8431     N
C       0.6481  0.41197   0.8602     C
C       0.6481  0.58803   0.3602     C
H       0.6501    0.158   0.3979     H
H       0.6501    0.842   0.8979     H
N      0.66197  0.06814   0.6843     N
N      0.66197  0.93186   0.1843     N
H       0.6635   0.3497   0.0376     H
H       0.6635   0.6503   0.5376     H
C       0.6637   0.2036   0.4023     C
C       0.6637   0.7964   0.9023     C
C      0.66766  0.00335   0.6315     C
C      0.66766  0.99665   0.1315     C
C      0.67687  0.46119   0.3744     C
C      0.67687  0.53881   0.8744     C
C      0.68955  0.46955   0.9068     C
C      0.68955  0.53045   0.4068     C
C      0.69816  0.33493   0.4117     C
C      0.69816  0.66507   0.9117     C
C      0.71436  0.40929   0.4308     C
C      0.71436  0.59071   0.9308     C
N       0.7154   0.2171   0.4722     N
N       0.7154   0.7829   0.9722     N
C      0.72323  0.01028   0.0393     C
C      0.72323  0.98972   0.5393     C
C       0.7316   0.2832    0.475     C
C       0.7316   0.7168    0.975     C
H       0.7321    0.205   0.0229     H
H       0.7321    0.795   0.5229     H
N      0.73563  0.07718   0.0121     N
N      0.73563  0.92282   0.5121     N
C      0.74135  0.45653   0.9909     C
C      0.74135  0.54347   0.4909     C
H        0.748   0.0889   0.5145     H
H        0.748   0.9111   0.0145     H
H        0.752   0.4111   0.0145     H
H        0.752   0.5889   0.5145     H
C      0.75865  0.04347   0.4909     C
C      0.75865  0.95653   0.9909     C
N      0.76437  0.42282   0.5121     N
N      0.76437  0.57718   0.0121     N
H       0.7679    0.295   0.5229     H
H       0.7679    0.705   0.0229     H
C       0.7684   0.2168    0.975     C
C       0.7684   0.7832    0.475     C
C      0.77677  0.48972   0.5393     C
C      0.77677  0.51028   0.0393     C
N       0.7846   0.2829   0.9722     N
N       0.7846   0.7171   0.4722     N
C      0.78564  0.09071   0.9308     C
C      0.78564  0.90929   0.4308     C
C      0.80184  0.16507   0.9117     C
C      0.80184  0.83493   0.4117     C
C      0.81045  0.03045   0.4068     C
C      0.81045  0.96955   0.9068     C
C      0.82313  0.03881   0.8744     C
C      0.82313  0.96119   0.3744     C
C      0.83234  0.49665   0.1315     C
C      0.83234  0.50335   0.6315     C
C       0.8363   0.2964   0.9023     C
C       0.8363   0.7036   0.4023     C
H       0.8365   0.1503   0.5376     H
H       0.8365   0.8497   0.0376     H
N      0.83803  0.43186   0.1843     N
N      0.83803  0.56814   0.6843     N
H       0.8499    0.342   0.8979     H
H       0.8499    0.658   0.3979     H
C       0.8519  0.08803   0.3602     C
C       0.8519  0.91197   0.8602     C
N      0.85386  0.17971   0.8431     N
N      0.85386  0.82029   0.3431     N
H       0.8566   0.0502   0.8153     H
H       0.8566   0.9498   0.3153     H
C       0.8585   0.1462   0.4488     C
C       0.8585   0.8538   0.9488     C
C         0.87   0.2467   0.8373     C
C         0.87   0.7533   0.3373     C
H       0.8711   0.4098   0.6195     H
H       0.8711   0.5902   0.1195     H
C      0.87612  0.45385   0.6603     C
C      0.87612  0.54615   0.1603     C
H       0.8832    0.049   0.1663     H
H       0.8832    0.951   0.6663     H
C       0.8857   0.0868   0.2309     C
C       0.8857   0.9132   0.7309     C
C       0.8869   0.4197   0.2686     C
C       0.8869   0.5803   0.7686     C
H       0.8926   0.3754   0.3073     H
H       0.8926   0.6246   0.8073     H
C       0.8973   0.1976   0.4062     C
C       0.8973   0.8024   0.9062     C
H       0.9012   0.2359    0.469     H
H       0.9012   0.7641    0.969     H
H       0.9056    0.259   0.7869     H
H       0.9056    0.741   0.2869     H
C      0.92316    0.141   0.1971     C
C      0.92316    0.859   0.6971     C
N       0.9253  0.46613   0.7438     N
N       0.9253  0.53387   0.2438     N
C      0.92958  0.47045    0.301     C
C      0.92958  0.52955    0.801     C
N      0.93017  0.19663   0.2798     N
N      0.93017  0.80337   0.7798     N
H       0.9454   0.1384   0.1084     H
H       0.9454   0.8616   0.6084     H
H        0.962   0.4599   0.3644     H
H        0.962   0.5401   0.8644     H
C      0.99883  0.31918   0.0586     C
C      0.99883  0.68082   0.5586     C
N      0.99923  0.34701   0.5562     N
C      0.99923  0.65299   0.0562     C
