data_I
_chemical_name_common  '/home/zhangsd/repos/MofS-CGCNN/ML/data/SSD/clean_cifs/UTACOJ_clean'
_cell_length_a 17.70030
_cell_length_b 17.70030
_cell_length_c 13.92080
_cell_angle_alpha 90.00000
_cell_angle_beta  90.00000
_cell_angle_gamma 120.00000
_space_group_name_H-M_alt      'P 1'


loop_
_space_group_symop_operation_xyz
  'x, y, z' 

loop_
_atom_site_label
_atom_site_fract_x
_atom_site_fract_y
_atom_site_fract_z
_atom_site_type_symbol
O       0.0098   0.5636    0.868     O
O       0.0115   0.5605   0.1594     O
C       0.0237   0.4814   0.2903     C
C       0.0244   0.4817    0.735     C
H       0.0598    0.335    0.317     H
H       0.0883   0.3469   0.2065     H
N       0.0965   0.5005   0.7765     N
N       0.0979   0.5003   0.2518     N
C       0.1091   0.3634   0.2725     C
Cu     0.12542  0.56647  0.13546    Cu
Cu     0.12643  0.57072   0.8902    Cu
H       0.1346   0.4176   0.7212     H
H       0.1516   0.3449   0.2872     H
C       0.1556   0.4695   0.2842     C
O       0.1565   0.6251   0.0115     O
H       0.1603   0.5201   0.5898     H
H        0.161    0.674    0.011     H
C       0.1615   0.4812   0.7361     C
H       0.1755   0.4882   0.3517     H
H       0.1933   0.8484   0.2872     H
O       0.1995   0.7039   0.2285     O
O       0.2029   0.7056   0.7971     O
C       0.2044   0.5394   0.6407     C
H       0.2256   0.6009   0.6554     H
O       0.2262   0.5495   0.8865     O
O       0.2284    0.548   0.1405     O
C       0.2323   0.5084   0.8111     C
C       0.2337   0.5093   0.2128     C
H       0.2532   0.5323   0.6192     H
C       0.2543   0.8909   0.2725     C
H       0.2586   0.9117   0.2065     H
H       0.2752   0.9402    0.317     H
C       0.2756   0.7663   0.2128     C
C       0.2761   0.7677   0.8111     C
H       0.2791   0.7468   0.6192     H
H        0.283   0.8654   0.7212     H
O       0.2944   0.4973   0.7971     O
O       0.2961   0.4956   0.2285     O
H       0.3127   0.8245   0.3517     H
C       0.3139   0.8444   0.2842     C
O       0.3196   0.7716   0.1405     O
C       0.3197   0.8385   0.7361     C
O       0.3233   0.7738   0.8865     O
H        0.326    0.487    0.011     H
Ba     0.33333  0.66667  0.01377    Ba
H        0.335   0.2752    0.817     H
C        0.335   0.7956   0.6407     C
H       0.3449   0.1933   0.7872     H
H       0.3469   0.2586   0.7065     H
H       0.3598   0.8397   0.5898     H
C       0.3634   0.2543   0.7725     C
O       0.3749   0.5314   0.0115     O
H       0.3753   0.7744   0.6554     H
H       0.3991   0.6247   0.6554     H
N       0.4024   0.9021   0.2518     N
N        0.404   0.9035   0.7765     N
H       0.4176    0.283   0.2212     H
Cu     0.42928  0.55571   0.8902    Cu
Cu     0.43353  0.55895  0.13546    Cu
O       0.4364   0.4462    0.868     O
O       0.4395    0.451   0.1594     O
Cu     0.44105  0.87458  0.13546    Cu
Cu     0.44429  0.87357   0.8902    Cu
O       0.4462   0.0098    0.368     O
O       0.4505   0.6767   0.8865     O
O        0.451   0.0115   0.6594     O
O        0.452   0.6804   0.1405     O
C       0.4573   0.9756    0.735     C
C       0.4577   0.9763   0.2903     C
C       0.4606    0.665   0.6407     C
H       0.4677   0.7209   0.6192     H
O       0.4686   0.8435   0.0115     O
C       0.4695   0.3139   0.7842     C
H       0.4799   0.6402   0.5898     H
C       0.4812   0.3197   0.2361     C
C       0.4814   0.4577   0.7903     C
C       0.4817   0.4573    0.235     C
H        0.487    0.161    0.511     H
H       0.4882   0.3127   0.8517     H
C       0.4907   0.7244   0.2128     C
C       0.4916   0.7239   0.8111     C
O       0.4956   0.1995   0.7285     O
O       0.4973   0.2029   0.2971     O
N       0.4995    0.596   0.7765     N
N       0.4997   0.5976   0.2518     N
N       0.5003   0.4024   0.7518     N
N       0.5005    0.404   0.2765     N
O       0.5027   0.7971   0.7971     O
O       0.5044   0.8005   0.2285     O
C       0.5084   0.2761   0.3111     C
C       0.5093   0.2756   0.7128     C
H       0.5118   0.6873   0.3517     H
H        0.513    0.839    0.011     H
C       0.5183   0.5427    0.735     C
C       0.5186   0.5423   0.2903     C
C       0.5188   0.6803   0.7361     C
H       0.5201   0.3598   0.0898     H
C       0.5305   0.6861   0.2842     C
O       0.5314   0.1565   0.5115     O
H       0.5323   0.2791   0.1192     H
C       0.5394    0.335   0.1407     C
C       0.5423   0.0237   0.7903     C
C       0.5427   0.0244    0.235     C
O        0.548   0.3196   0.6405     O
O        0.549   0.9885   0.1594     O
O       0.5495   0.3233   0.3865     O
O       0.5538   0.9902    0.868     O
Cu     0.55571  0.12643   0.3902    Cu
Cu     0.55895  0.12542  0.63546    Cu
O       0.5605    0.549   0.6594     O
O       0.5636   0.5538    0.368     O
Cu     0.56647  0.44105  0.63546    Cu
Cu     0.57072  0.44429   0.3902    Cu
H       0.5824    0.717   0.7212     H
N        0.596   0.0965   0.2765     N
N       0.5976   0.0979   0.7518     N
H       0.6009   0.3753   0.1554     H
H       0.6247   0.2256   0.1554     H
O       0.6251   0.4686   0.5115     O
C       0.6366   0.7457   0.2725     C
H       0.6402   0.1603   0.0898     H
H       0.6531   0.7414   0.2065     H
H       0.6551   0.8067   0.2872     H
C        0.665   0.2044   0.1407     C
H        0.665   0.7248    0.317     H
Ba     0.66667  0.33333  0.51377    Ba
H        0.674    0.513    0.511     H
O       0.6767   0.2262   0.3865     O
C       0.6803   0.1615   0.2361     C
O       0.6804   0.2284   0.6405     O
C       0.6861   0.1556   0.7842     C
H       0.6873   0.1755   0.8517     H
O       0.7039   0.5044   0.7285     O
O       0.7056   0.5027   0.2971     O
H        0.717   0.1346   0.2212     H
H       0.7209   0.2532   0.1192     H
C       0.7239   0.2323   0.3111     C
C       0.7244   0.2337   0.7128     C
H       0.7248   0.0598    0.817     H
H       0.7414   0.0883   0.7065     H
C       0.7457   0.1091   0.7725     C
H       0.7468   0.4677   0.1192     H
C       0.7663   0.4907   0.7128     C
C       0.7677   0.4916   0.3111     C
O       0.7716    0.452   0.6405     O
O       0.7738   0.4505   0.3865     O
H       0.7744   0.3991   0.1554     H
C       0.7956   0.4606   0.1407     C
O       0.7971   0.2944   0.2971     O
O       0.8005   0.2961   0.7285     O
H       0.8067   0.1516   0.7872     H
H       0.8245   0.5118   0.8517     H
C       0.8385   0.5188   0.2361     C
H        0.839    0.326    0.511     H
H       0.8397   0.4799   0.0898     H
O       0.8435   0.3749   0.5115     O
C       0.8444   0.5305   0.7842     C
H       0.8484   0.6551   0.7872     H
H       0.8654   0.5824   0.2212     H
Cu     0.87357  0.42928   0.3902    Cu
Cu     0.87458  0.43353  0.63546    Cu
C       0.8909   0.6366   0.7725     C
N       0.9021   0.4997   0.7518     N
N       0.9035   0.4995   0.2765     N
H       0.9117   0.6531   0.7065     H
H       0.9402    0.665    0.817     H
C       0.9756   0.5183    0.235     C
C       0.9763   0.5186   0.7903     C
O       0.9885   0.4395   0.6594     O
O       0.9902   0.4364    0.368     O
