data_I
_chemical_name_common  '/home/zhangsd/repos/MofS-CGCNN/ML/data/SSD/clean_cifs/UVASAM01_clean'
_cell_length_a  8.39850
_cell_length_b 13.48360
_cell_length_c 14.18630
_cell_angle_alpha 61.62550
_cell_angle_beta  85.79400
_cell_angle_gamma 81.12200
_space_group_name_H-M_alt      'P 1'


loop_
_space_group_symop_operation_xyz
  'x, y, z' 

loop_
_atom_site_label
_atom_site_fract_x
_atom_site_fract_y
_atom_site_fract_z
_atom_site_type_symbol
C       0.0093   0.3344   0.8862     C
H       0.0444   0.6003    0.125     H
C       0.0465      0.7   0.4736     C
C       0.0478   0.7028   0.3744     C
C       0.0503   0.5448   0.1984     C
C       0.0528   0.4143   0.0292     C
C        0.061   0.4385     0.85     C
C       0.0682   0.3871   0.4064     C
H       0.0699   0.4407   0.0784     H
H       0.0703   0.3311   0.4796     H
C       0.0817   0.4793   0.9204     C
H       0.0826   0.4827   0.7758     H
O       0.1212   0.9869   0.6178     O
C       0.1333   0.5935   0.8776     C
O       0.1528  0.63531  0.94038     O
O       0.1572  0.65175   0.7791     O
H       0.1884    0.685   0.2596     H
C         0.19   0.6817    0.328     C
C       0.1926   0.6727   0.5262     C
H       0.1943   0.6701   0.5942     H
H        0.196   0.0263   0.7672     H
Zn     0.19643  0.79126  0.81766    Zn
C        0.199   0.4831   0.2392     C
C       0.2085   0.4026   0.3464     C
C       0.2394   0.9919   0.8374     C
N       0.2533   0.8786    0.895     N
H       0.2723   0.1414   0.8288     H
C       0.2843   0.0614   0.8736     C
H       0.2921   0.4955    0.195     H
H       0.2958    0.218    0.527     H
C       0.3097    0.833   0.9952     C
H       0.3179   0.7528   0.0386     H
H       0.3299   0.8454   0.5984     H
C        0.334   0.6495   0.4816     C
C       0.3367   0.6554   0.3808     C
C       0.3484   0.0136    0.978     C
C       0.3567   0.8973    0.039     C
C       0.3681   0.3354    0.391     C
C       0.3885   0.2424   0.4842     C
H        0.391   0.2285    0.891     H
H       0.3944   0.8609   0.1108     H
C       0.4038   0.0827   0.0194     C
N       0.4161   0.7866   0.7448     N
C       0.4202   0.1915   0.9646     C
C       0.4249   0.8128   0.6408     C
H       0.4308   0.0456   0.0934     H
H        0.432   0.6291     0.52     H
H       0.4489   0.0575    0.662     H
H       0.4614   0.3613   0.3496     H
H       0.4733   0.4042    0.861     H
C       0.4785   0.2622   0.0044     C
O       0.4854   0.6426   0.2382     O
C       0.4918   0.6312   0.3316     C
H       0.4942   0.1447   0.1632     H
C       0.4977   0.3737   0.9348     C
C       0.5093   0.2206   0.1138     C
H       0.5444   0.7253    0.875     H
C       0.5465   0.1736   0.5264     C
C       0.5478   0.0772   0.6256     C
C       0.5503   0.7432   0.8016     C
C       0.5528   0.4435   0.9708     C
C        0.561   0.2885     0.15     C
C       0.5682   0.7935   0.5936     C
H       0.5699   0.5191   0.9216     H
H       0.5703   0.8107   0.5204     H
C       0.5817   0.3997   0.0796     C
H       0.5826   0.2585   0.2242     H
O       0.6212   0.6047   0.3822     O
C       0.6333   0.4711   0.1224     C
O       0.6528  0.57569  0.05962     O
O       0.6572  0.43085   0.2209     O
H       0.6884   0.9446   0.7404     H
C         0.69   0.0097    0.672     C
C       0.6926   0.1989   0.4738     C
H       0.6943   0.2643   0.4058     H
H        0.696   0.7935   0.2328     H
Zn     0.69643  0.60892  0.18234    Zn
C        0.699   0.7223   0.7608     C
C       0.7085    0.749   0.6536     C
C       0.7394   0.8293   0.1626     C
N       0.7533   0.7736    0.105     N
H       0.7723   0.9702   0.1712     H
C       0.7843    0.935   0.1264     C
H       0.7921   0.6905    0.805     H
H       0.7958    0.745    0.473     H
C       0.8097   0.8282   0.0048     C
H       0.8179   0.7914   0.9614     H
H       0.8299   0.4438   0.4016     H
C        0.834   0.1311   0.5184     C
C       0.8367   0.0362   0.6192     C
C       0.8484   0.9916    0.022     C
C       0.8567   0.9363    0.961     C
C       0.8681   0.7264    0.609     C
C       0.8885   0.7266   0.5158     C
H        0.891   0.1195    0.109     H
H       0.8944   0.9717   0.8892     H
C       0.9038   0.1021   0.9806     C
N       0.9161   0.5314   0.2552     N
C       0.9202   0.1561   0.0354     C
C       0.9249   0.4536   0.3592     C
H       0.9308    0.139   0.9066     H
H        0.932   0.1491     0.48     H
H       0.9489   0.7195    0.338     H
H       0.9614   0.7109   0.6504     H
H       0.9733   0.2652    0.139     H
C       0.9785   0.2666   0.9956     C
O       0.9854   0.8808   0.7618     O
C       0.9918   0.9628   0.6684     C
H       0.9942   0.3079   0.8368     H
C       0.9977   0.3085   0.0652     C
