data_I
_chemical_name_common  '/home/zhangsd/repos/MofS-CGCNN/ML/data/SSD/clean_cifs/UWOWAF_clean'
_cell_length_a 12.01780
_cell_length_b 12.01780
_cell_length_c 19.42500
_cell_angle_alpha 77.41860
_cell_angle_beta  77.41860
_cell_angle_gamma 77.68940
_space_group_name_H-M_alt      'P 1'


loop_
_space_group_symop_operation_xyz
  'x, y, z' 

loop_
_atom_site_label
_atom_site_fract_x
_atom_site_fract_y
_atom_site_fract_z
_atom_site_type_symbol
Mn         0.0      0.5      0.0    Mn
Mn     0.01804   0.6757  0.82219    Mn
C       0.0446   0.4514    0.496     C
O       0.0604   0.4608   0.1826     O
O       0.0806   0.5562   0.0713     O
S       0.0826  0.35114  0.57004     S
C       0.0958   0.5378   0.1342     C
H       0.1069   0.4643   0.3908     H
C       0.1131   0.4209   0.4362     C
O        0.114    0.338   0.0061     O
O       0.1228   0.5772   0.9082     O
O       0.1325   0.2389   0.1157     O
O        0.151   0.7532    0.858     O
C       0.1588   0.6146   0.1551     C
S      0.16105  0.61207  0.24251     S
C       0.1621   0.2607   0.0505     C
C        0.179   0.6594   0.8957     C
C       0.1883   0.2705   0.5188     C
C       0.1961   0.3169    0.447     C
H        0.204   0.6726    0.373     H
H       0.2105   0.6577   0.5945     H
C       0.2244   0.6882   0.1122     C
H       0.2337   0.7015   0.0625     H
O       0.2389   0.1325   0.6157     O
O       0.2468    0.849    0.642     O
H       0.2483   0.2851   0.4105     H
C       0.2497   0.7135   0.2216     C
C       0.2561   0.7221   0.3504     C
C       0.2607   0.1621   0.5505     C
C       0.2705   0.1883   0.0188     C
C       0.2779   0.7439   0.1496     C
H       0.2851   0.2483   0.9105     H
C       0.2865   0.7503   0.2784     C
C       0.2881   0.6333   0.9267     C
C        0.289   0.6418   0.5752     C
H       0.2985   0.7663   0.4375     H
H       0.3021   0.4857   0.5425     H
C       0.3118   0.7756   0.3878     C
C       0.3169   0.1961    0.947     C
Mn      0.3243  0.98196  0.67781    Mn
H       0.3274    0.796    0.127     H
O        0.338    0.114   0.5061     O
S      0.33953  0.49809  0.96582     S
C       0.3406    0.821   0.6043     C
C       0.3416    0.543   0.5448     C
H       0.3423   0.7895   0.9055     H
S      0.35114   0.0826  0.07004     S
C       0.3582    0.711   0.9248     C
C       0.3667   0.7119   0.5733     C
C       0.3854   0.8412   0.3449     C
S      0.38793  0.83895  0.25749     S
C       0.4209   0.1131   0.9362     C
O       0.4228   0.8772   0.5918     O
O       0.4438   0.9194   0.4287     O
C       0.4514   0.0446    0.996     C
C        0.457   0.6584   0.9552     C
C       0.4592   0.5406   0.9815     C
C       0.4594   0.5408   0.5185     C
O       0.4608   0.0604   0.6826     O
C       0.4622   0.9042   0.3658     C
H       0.4643   0.1069   0.8908     H
H       0.4857   0.3021   0.0425     H
S      0.49809  0.33953  0.46582     S
Mn         0.5      0.0      0.5    Mn
S      0.50191  0.66047  0.53418     S
H       0.5143   0.6979   0.9575     H
H       0.5357   0.8931   0.1092     H
C       0.5378   0.0958   0.6342     C
O       0.5392   0.9396   0.3174     O
C       0.5406   0.4592   0.4815     C
C       0.5408   0.4594   0.0185     C
C        0.543   0.3416   0.0448     C
C       0.5486   0.9554    0.004     C
O       0.5562   0.0806   0.5713     O
O       0.5772   0.1228   0.4082     O
C       0.5791   0.8869   0.0638     C
S      0.61207  0.16105  0.74251     S
C       0.6146   0.1588   0.6551     C
C       0.6333   0.2881   0.4267     C
C       0.6418    0.289   0.0752     C
S      0.64886   0.9174  0.92996     S
H       0.6577   0.2105   0.0945     H
C       0.6584    0.457   0.4552     C
C       0.6594    0.179   0.3957     C
S      0.66047  0.50191  0.03418     S
O        0.662    0.886   0.4939     O
H       0.6726    0.204    0.873     H
Mn      0.6757  0.01804  0.32219    Mn
C       0.6831   0.8039    0.053     C
C       0.6882   0.2244   0.6122     C
H       0.6979   0.5143   0.4575     H
H       0.7015   0.2337   0.5625     H
C        0.711   0.3582   0.4248     C
C       0.7119   0.3667   0.0733     C
C       0.7135   0.2497   0.7216     C
H       0.7149   0.7517   0.0895     H
C       0.7221   0.2561   0.8504     C
C       0.7295   0.8117   0.9812     C
C       0.7393   0.8379   0.4495     C
C       0.7439   0.2779   0.6496     C
C       0.7503   0.2865   0.7784     C
H       0.7517   0.7149   0.5895     H
O       0.7532    0.151    0.358     O
O       0.7611   0.8675   0.3843     O
H       0.7663   0.2985   0.9375     H
C       0.7756   0.3118   0.8878     C
H       0.7895   0.3423   0.4055     H
H        0.796   0.3274    0.627     H
C       0.8039   0.6831    0.553     C
C       0.8117   0.7295   0.4812     C
C        0.821   0.3406   0.1043     C
C       0.8379   0.7393   0.9495     C
S      0.83895  0.38793  0.75749     S
C       0.8412   0.3854   0.8449     C
O        0.849   0.2468    0.142     O
O       0.8675   0.7611   0.8843     O
O       0.8772   0.4228   0.0918     O
O        0.886    0.662   0.9939     O
C       0.8869   0.5791   0.5638     C
H       0.8931   0.5357   0.6092     H
C       0.9042   0.4622   0.8658     C
S       0.9174  0.64886  0.42996     S
O       0.9194   0.4438   0.9287     O
O       0.9396   0.5392   0.8174     O
C       0.9554   0.5486    0.504     C
Mn     0.98196   0.3243  0.17781    Mn
