data_I
_chemical_name_common  '/home/zhangsd/repos/MofS-CGCNN/ML/data/SSD/clean_cifs/VAGTAA01_clean'
_cell_length_a 16.25200
_cell_length_b 11.87380
_cell_length_c  9.55850
_cell_angle_alpha 90.00000
_cell_angle_beta  114.58800
_cell_angle_gamma 90.00000
_space_group_name_H-M_alt      'P 1'


loop_
_space_group_symop_operation_xyz
  'x, y, z' 

loop_
_atom_site_label
_atom_site_fract_x
_atom_site_fract_y
_atom_site_fract_z
_atom_site_type_symbol
Mg         0.0      0.0      0.0    Mg
Mg         0.0      0.0      0.5    Mg
O      0.09109  0.07179  0.19814     O
O      0.09109  0.92821  0.69814     O
O      0.10144  0.00387  0.42249     O
O      0.10144  0.99613  0.92249     O
H       0.1182   0.2185   0.1481     H
H       0.1182   0.7815   0.6481     H
C      0.12138  0.07364  0.34322     C
C      0.12138  0.92636  0.84322     C
O      0.14988  0.27558  0.18772     O
O      0.14988  0.72442  0.68772     O
C      0.18763   0.1655  0.42329     C
C      0.18763   0.8345  0.92329     C
H       0.1971   0.0344   0.6395     H
H       0.1971   0.9656   0.1395     H
C      0.19853  0.25792  0.34099     C
C      0.19853  0.74208  0.84099     C
O       0.2348    0.085   0.6854     O
O       0.2348    0.915   0.1854     O
C       0.2391  0.15897  0.58193     C
C       0.2391  0.84103  0.08193     C
C       0.2609  0.34103  0.41807     C
C       0.2609  0.65897  0.91807     C
O       0.2652    0.415   0.3146     O
O       0.2652    0.585   0.8146     O
C      0.30147  0.24208  0.65901     C
C      0.30147  0.75792  0.15901     C
H       0.3029   0.4656   0.3605     H
H       0.3029   0.5344   0.8605     H
C      0.31237   0.3345  0.57671     C
C      0.31237   0.6655  0.07671     C
O      0.35012  0.22442  0.81228     O
O      0.35012  0.77558  0.31228     O
C      0.37862  0.42636  0.65678     C
C      0.37862  0.57364  0.15678     C
H       0.3818   0.2815   0.8519     H
H       0.3818   0.7185   0.3519     H
O      0.39856  0.49613  0.57751     O
O      0.39856  0.50387  0.07751     O
O      0.40891  0.42821  0.80186     O
O      0.40891  0.57179  0.30186     O
Mg         0.5      0.5      0.0    Mg
Mg         0.5      0.5      0.5    Mg
O      0.59109  0.42821  0.69814     O
O      0.59109  0.57179  0.19814     O
O      0.60144  0.49613  0.92249     O
O      0.60144  0.50387  0.42249     O
H       0.6182   0.2815   0.6481     H
H       0.6182   0.7185   0.1481     H
C      0.62138  0.42636  0.84322     C
C      0.62138  0.57364  0.34322     C
O      0.64988  0.22442  0.68772     O
O      0.64988  0.77558  0.18772     O
C      0.68763   0.3345  0.92329     C
C      0.68763   0.6655  0.42329     C
H       0.6971   0.4656   0.1395     H
H       0.6971   0.5344   0.6395     H
C      0.69853  0.24208  0.84099     C
C      0.69853  0.75792  0.34099     C
O       0.7348    0.415   0.1854     O
O       0.7348    0.585   0.6854     O
C       0.7391  0.34103  0.08193     C
C       0.7391  0.65897  0.58193     C
C       0.7609  0.15897  0.91807     C
C       0.7609  0.84103  0.41807     C
O       0.7652    0.085   0.8146     O
O       0.7652    0.915   0.3146     O
C      0.80147  0.25792  0.15901     C
C      0.80147  0.74208  0.65901     C
H       0.8029   0.0344   0.8605     H
H       0.8029   0.9656   0.3605     H
C      0.81237   0.1655  0.07671     C
C      0.81237   0.8345  0.57671     C
O      0.85012  0.27558  0.31228     O
O      0.85012  0.72442  0.81228     O
C      0.87862  0.07364  0.15678     C
C      0.87862  0.92636  0.65678     C
H       0.8818   0.2185   0.3519     H
H       0.8818   0.7815   0.8519     H
O      0.89856  0.00387  0.07751     O
O      0.89856  0.99613  0.57751     O
O      0.90891  0.07179  0.30186     O
O      0.90891  0.92821  0.80186     O
