data_I
_chemical_name_common  '/home/zhangsd/repos/MofS-CGCNN/ML/data/SSD/clean_cifs/VAGTAA_clean'
_cell_length_a  9.58560
_cell_length_b 10.02630
_cell_length_c 10.02630
_cell_angle_alpha 107.14400
_cell_angle_beta  109.33300
_cell_angle_gamma 70.66710
_space_group_name_H-M_alt      'P 1'


loop_
_space_group_symop_operation_xyz
  'x, y, z' 

loop_
_atom_site_label
_atom_site_fract_x
_atom_site_fract_y
_atom_site_fract_z
_atom_site_type_symbol
Mg         0.0      0.0      0.0    Mg
C       0.0775   0.3533   0.9777     C
O       0.0802    0.105   0.9026     O
C       0.0807   0.6017   0.0803     C
H       0.1348   0.6704   0.1334     H
H       0.1526   0.1084   0.3388     H
C       0.1572   0.1958   0.9516     C
C       0.1572    0.458   0.0606     C
O        0.189   0.1259   0.4265     O
O       0.1968     0.98   0.1642     O
O       0.3032   0.1642     0.98     O
O        0.311   0.4265   0.1259     O
C       0.3428   0.0606    0.458     C
C       0.3428   0.9516   0.1958     C
H       0.3474   0.3388   0.1084     H
H       0.3652   0.1334   0.6704     H
C       0.4193   0.0803   0.6017     C
O       0.4198   0.9026    0.105     O
C       0.4225   0.9777   0.3533     C
Mg         0.5     -0.0     -0.0    Mg
C       0.5775   0.0223   0.6467     C
O       0.5802   0.0974    0.895     O
C       0.5807   0.9197   0.3983     C
H       0.6348   0.8666   0.3296     H
H       0.6526   0.6612   0.8916     H
C       0.6572   0.0484   0.8042     C
C       0.6572   0.9394    0.542     C
O        0.689   0.5735   0.8741     O
O       0.6968   0.8358     0.02     O
O       0.8032     0.02   0.8358     O
O        0.811   0.8741   0.5735     O
C       0.8428    0.542   0.9394     C
C       0.8428   0.8042   0.0484     C
H       0.8474   0.8916   0.6612     H
H       0.8652   0.3296   0.8666     H
C       0.9193   0.3983   0.9197     C
O       0.9198    0.895   0.0974     O
C       0.9225   0.6467   0.0223     C
