data_I
_chemical_name_common  '/home/zhangsd/repos/MofS-CGCNN/ML/data/SSD/clean_cifs/VAGTUU_clean'
_cell_length_a 17.22370
_cell_length_b 17.23440
_cell_length_c 17.29230
_cell_angle_alpha 90.54800
_cell_angle_beta  90.00000
_cell_angle_gamma 90.00000
_space_group_name_H-M_alt      'P 1'


loop_
_space_group_symop_operation_xyz
  'x, y, z' 

loop_
_atom_site_label
_atom_site_fract_x
_atom_site_fract_y
_atom_site_fract_z
_atom_site_type_symbol
Zn     0.01799  0.73953  0.86597    Zn
C       0.0188   0.7532   0.2416     C
C       0.0205   0.6715   0.4368     C
C        0.021   0.9818   0.5961     C
O       0.0246   0.8235   0.1255     O
C       0.0277   0.9084   0.6403     C
C       0.0297   0.1927   0.7923     C
C       0.0354   0.7045   0.3661     C
C       0.0378   0.1328   0.8451     C
O        0.044   0.2629   0.4616     O
C       0.0495   0.9944   0.9628     C
O       0.0522    0.348   0.5615     O
H       0.0546   0.0495    0.513     H
H       0.0591   0.2852   0.7363     H
H       0.0618   0.6717   0.4715     H
O       0.0653   0.9469   0.0157     O
C       0.0664   0.0012   0.5335     C
H       0.0694   0.8037   0.6552     H
C       0.0764   0.8467   0.6237     C
C       0.0774   0.3176   0.4999     C
C        0.078   0.2513   0.7734     C
Zn     0.08555  0.82705   0.0162    Zn
C       0.0943   0.7677    0.266     C
C       0.0982   0.1194   0.8957     C
C       0.1044   0.0565   0.9486     C
C       0.1061   0.7395   0.3408     C
C       0.1264    0.963   0.4946     C
O       0.1293   0.7326    0.846     O
H       0.1319   0.7926   0.2368     H
C       0.1329   0.8381   0.5691     C
H       0.1445   0.2234    0.381     H
C       0.1495   0.3543   0.4636     C
H       0.1495   0.9896   0.4541     H
C       0.1539    0.269    0.802     C
C       0.1559   0.8886   0.5101     C
O       0.1574    0.837   0.9207     O
H       0.1587   0.4544   0.5248     H
H       0.1604   0.7918   0.5712     H
C       0.1704   0.7921   0.8652     C
C       0.1705   0.1646   0.9044     C
C       0.1754   0.0619   0.9866     C
C       0.1778   0.4242   0.4842     C
H       0.1793   0.3106   0.7793     H
C       0.1812   0.7409   0.3793     C
C        0.184   0.2545   0.3616     C
O       0.1912   0.7072   0.4418     O
C       0.1922   0.3264   0.3994     C
H       0.1934   0.0271   0.0233     H
C       0.1945   0.2297   0.8613     C
H       0.1951   0.8708   0.4776     H
H       0.2083   0.1729   0.2853     H
H        0.212   0.7334   0.7219     H
C       0.2161   0.1284   0.9613     C
C       0.2242   0.2221   0.3009     C
O       0.2364   0.7754   0.3413     O
C       0.2385   0.8071   0.8142     C
C         0.24   0.4458   0.4366     C
H       0.2434   0.2494   0.8734     H
C       0.2461   0.7704   0.7419     C
C       0.2503   0.3876    0.382     C
O        0.259    0.563   0.4983     O
H        0.278   0.9009   0.9266     H
C       0.2819    0.519   0.4434     C
C       0.2857   0.2536   0.2598     C
H        0.287   0.6819   0.8926     H
Zn     0.28913  0.67155  0.49342    Zn
O       0.2893   0.7177   0.5968     O
C       0.2933   0.1514   0.9916     C
C       0.3004   0.8587   0.8234     C
H       0.3028   0.7503   0.9955     H
H       0.3054   0.2225   0.2201     H
H       0.3065   0.3559    0.656     H
C       0.3066   0.3841   0.3245     C
C       0.3112   0.6573   0.9337     C
C       0.3121   0.7972   0.7044     C
C       0.3141    0.905   0.8868     C
O       0.3182   0.2186   0.9807     O
C       0.3186   0.6989   0.9999     C
C       0.3223   0.3256   0.2696     C
O       0.3296   0.0988   0.0277     O
H       0.3323    0.562   0.8698     H
C       0.3324   0.7699   0.6263     C
O       0.3345   0.5368   0.3959     O
C       0.3365   0.5801   0.9205     C
H       0.3388   0.4272   0.3219     H
H       0.3411   0.7195   0.1101     H
H       0.3447   0.3979   0.5461     H
C       0.3447   0.6805   0.0727     C
C       0.3479   0.8527   0.7529     C
Zn     0.34817  0.75707  0.34434    Zn
C       0.3582   0.3462   0.6439     C
O        0.362   0.7024   0.2442     O
H       0.3624   0.3361   0.2352     H
C       0.3671    0.527   0.9742     C
H       0.3736   0.2966   0.7449     H
H       0.3759   0.4774   0.9546     H
C       0.3759   0.9585   0.9005     C
C       0.3763   0.6094    0.097     C
H       0.3766   0.9821    0.949     H
O       0.3797   0.7016    0.435     O
C       0.3819   0.3707   0.5738     C
C       0.3861   0.5372   0.0514     C
O       0.3911   0.7992   0.5936     O
O       0.3918   0.8622   0.3383     O
H       0.3993   0.9983   0.2706     H
C       0.4009   0.3084   0.7002     C
C       0.4054   0.5923   0.1745     C
C       0.4059    0.642   0.2435     C
O       0.4072   0.1209   0.1869     O
C       0.4137    0.896   0.7347     C
O       0.4139   0.3692   0.0208     O
C       0.4177   0.4813   0.1011     C
Zn     0.42421  0.26246  0.97898    Zn
C       0.4307   0.5161   0.1734     C
Zn     0.43191   0.1101   0.0755    Zn
C       0.4331   0.9792   0.8524     C
H       0.4358   0.8859   0.6865     H
C        0.436    0.399   0.0839     C
Zn      0.4366  0.60113   0.4132    Zn
C       0.4375   0.0158   0.3046     C
C       0.4391   0.8953   0.3844     C
O       0.4414   0.2766   0.8683     O
Zn      0.4446  0.76699  0.49806    Zn
O       0.4502   0.6228   0.2963     O
C       0.4505   0.9525   0.7794     C
C       0.4521    0.362   0.5367     C
H       0.4535   0.4912   0.2151     H
H       0.4541   0.3814   0.4868     H
C       0.4569   0.1421   0.2355     C
O       0.4641   0.8653   0.4468     O
C       0.4658    0.973   0.3649     C
H       0.4661   0.0176   0.8714     H
C        0.472   0.0872   0.3001     C
O       0.4731    0.364   0.1363     O
C         0.48    0.285   0.6998     C
H       0.4829   0.8077   0.2346     H
O       0.4886   0.1998    0.045     O
O       0.4892   0.0126   0.0808     O
H       0.4934   0.9756   0.7564     H
C       0.4939     0.23   0.8389     C
O       0.4954   0.2045   0.2307     O
H       0.4972   0.9028   0.1536     H
Zn     0.51799  0.26047  0.13403    Zn
C       0.5188   0.2468   0.7584     C
C       0.5205   0.3285   0.5632     C
C        0.521   0.0182   0.4039     C
O       0.5246   0.1765   0.8745     O
C       0.5277   0.0916   0.3597     C
C       0.5297   0.8073   0.2077     C
C       0.5354   0.2955   0.6339     C
C       0.5378   0.8672   0.1549     C
O        0.544   0.7371   0.5384     O
C       0.5495   0.0056   0.0372     C
O       0.5522    0.652   0.4385     O
H       0.5546   0.9505    0.487     H
H       0.5591   0.7148   0.2637     H
H       0.5618   0.3283   0.5285     H
O       0.5653   0.0531   0.9843     O
C       0.5664   0.9988   0.4665     C
H       0.5694   0.1963   0.3448     H
C       0.5764   0.1533   0.3763     C
C       0.5774   0.6824   0.5001     C
C        0.578   0.7487   0.2266     C
Zn     0.58555  0.17295   0.9838    Zn
C       0.5943   0.2323    0.734     C
C       0.5982   0.8806   0.1043     C
C       0.6044   0.9435   0.0514     C
C       0.6061   0.2605   0.6592     C
C       0.6264    0.037   0.5054     C
O       0.6293   0.2674    0.154     O
H       0.6319   0.2074   0.7632     H
C       0.6329   0.1619   0.4309     C
H       0.6445   0.7766    0.619     H
H       0.6495   0.0104   0.5459     H
C       0.6495   0.6457   0.5364     C
C       0.6539    0.731    0.198     C
C       0.6559   0.1114   0.4899     C
O       0.6574    0.163   0.0793     O
H       0.6587   0.5456   0.4752     H
H       0.6604   0.2082   0.4288     H
C       0.6704   0.2079   0.1348     C
C       0.6705   0.8354   0.0956     C
C       0.6754   0.9381   0.0134     C
C       0.6778   0.5758   0.5158     C
H       0.6793   0.6894   0.2207     H
C       0.6812   0.2591   0.6207     C
C        0.684   0.7455   0.6384     C
O       0.6912   0.2928   0.5582     O
C       0.6922   0.6736   0.6006     C
H       0.6934   0.9729   0.9767     H
C       0.6945   0.7703   0.1387     C
H       0.6951   0.1292   0.5224     H
H       0.7083   0.8271   0.7147     H
H        0.712   0.2666   0.2781     H
C       0.7161   0.8716   0.0387     C
C       0.7242   0.7779   0.6991     C
O       0.7364   0.2246   0.6587     O
C       0.7385   0.1929   0.1858     C
C         0.74   0.5542   0.5634     C
H       0.7434   0.7506   0.1266     H
C       0.7461   0.2296   0.2581     C
C       0.7503   0.6124    0.618     C
O        0.759    0.437   0.5017     O
H        0.778   0.0991   0.0734     H
C       0.7819    0.481   0.5566     C
C       0.7857   0.7464   0.7402     C
H        0.787   0.3181   0.1074     H
Zn     0.78913  0.32845  0.50658    Zn
O       0.7893   0.2823   0.4032     O
C       0.7933   0.8486   0.0084     C
C       0.8004   0.1413   0.1766     C
H       0.8028   0.2497   0.0045     H
H       0.8054   0.7775   0.7799     H
H       0.8065   0.6441    0.344     H
C       0.8066   0.6159   0.6755     C
C       0.8112   0.3427   0.0663     C
C       0.8121   0.2028   0.2956     C
C       0.8141    0.095   0.1132     C
O       0.8182   0.7814   0.0193     O
C       0.8186   0.3011   0.0001     C
C       0.8223   0.6744   0.7304     C
O       0.8296   0.9012   0.9723     O
H       0.8323    0.438   0.1302     H
C       0.8324   0.2301   0.3737     C
O       0.8345   0.4632   0.6041     O
C       0.8365   0.4199   0.0795     C
H       0.8388   0.5728   0.6781     H
H       0.8411   0.2805   0.8899     H
C       0.8447   0.3195   0.9273     C
H       0.8447   0.6021   0.4539     H
C       0.8479   0.1473   0.2471     C
Zn     0.84817  0.24293  0.65566    Zn
C       0.8582   0.6538   0.3561     C
O        0.862   0.2976   0.7558     O
H       0.8624   0.6639   0.7648     H
C       0.8671    0.473   0.0258     C
H       0.8736   0.7034   0.2551     H
C       0.8759   0.0415   0.0995     C
H       0.8759   0.5226   0.0454     H
C       0.8763   0.3906    0.903     C
H       0.8766   0.0179    0.051     H
O       0.8797   0.2984    0.565     O
C       0.8819   0.6293   0.4262     C
C       0.8861   0.4628   0.9486     C
O       0.8911   0.2008   0.4064     O
O       0.8918   0.1378   0.6617     O
H       0.8993   0.0017   0.7294     H
C       0.9009   0.6916   0.2998     C
C       0.9054   0.4077   0.8255     C
C       0.9059    0.358   0.7565     C
O       0.9072   0.8791   0.8131     O
C       0.9137    0.104   0.2653     C
O       0.9139   0.6308   0.9792     O
C       0.9177   0.5187   0.8989     C
Zn     0.92421  0.73754  0.02102    Zn
C       0.9307   0.4839   0.8266     C
Zn     0.93191   0.8899   0.9245    Zn
C       0.9331   0.0208   0.1476     C
H       0.9358   0.1141   0.3135     H
C        0.936    0.601   0.9161     C
Zn      0.9366  0.39887   0.5868    Zn
C       0.9375   0.9842   0.6954     C
C       0.9391   0.1047   0.6156     C
O       0.9414   0.7234   0.1317     O
Zn      0.9446  0.23301  0.50194    Zn
O       0.9502   0.3772   0.7037     O
C       0.9505   0.0475   0.2206     C
C       0.9521    0.638   0.4633     C
H       0.9535   0.5088   0.7849     H
H       0.9541   0.6186   0.5132     H
C       0.9569   0.8579   0.7645     C
O       0.9641   0.1347   0.5532     O
C       0.9658    0.027   0.6351     C
H       0.9661   0.9824   0.1286     H
C        0.972   0.9128   0.6999     C
O       0.9731    0.636   0.8637     O
C         0.98    0.715   0.3002     C
H       0.9829   0.1923   0.7654     H
O       0.9886   0.8002    0.955     O
O       0.9892   0.9874   0.9192     O
H       0.9934   0.0244   0.2436     H
C       0.9939     0.77   0.1611     C
O       0.9954   0.7955   0.7693     O
H       0.9972   0.0972   0.8464     H
