data_I
_chemical_name_common  '/home/zhangsd/repos/MofS-CGCNN/ML/data/SSD/clean_cifs/VALVIQ_clean'
_cell_length_a 22.14900
_cell_length_b  9.77900
_cell_length_c 19.37600
_cell_angle_alpha 90.00000
_cell_angle_beta  119.16100
_cell_angle_gamma 90.00000
_space_group_name_H-M_alt      'P 1'


loop_
_space_group_symop_operation_xyz
  'x, y, z' 

loop_
_atom_site_label
_atom_site_fract_x
_atom_site_fract_y
_atom_site_fract_z
_atom_site_type_symbol
Gd     0.01106  0.30853   0.4557    Gd
Gd     0.01106  0.69147   0.9557    Gd
C       0.0281   0.0144   0.5454     C
C       0.0281   0.9856   0.0454     C
O       0.0392   0.2094   0.3573     O
O       0.0392   0.7906   0.8573     O
O       0.0469    0.088   0.0909     O
O       0.0469    0.912   0.5909     O
O       0.0492   0.1349   0.5626     O
O       0.0492   0.8651   0.0626     O
O       0.0564   0.4648   0.5668     O
O       0.0564   0.5352   0.0668     O
O       0.0576   0.4782   0.3989     O
O       0.0576   0.5218   0.8989     O
C       0.0811   0.2729   0.3435     C
C       0.0811   0.7271   0.8435     C
C       0.0898   0.4326   0.3625     C
C       0.0898   0.5674   0.8625     C
O       0.0981   0.3915   0.1694     O
O       0.0981   0.6085   0.6694     O
C       0.1049      0.5   0.1359     C
C       0.1049      0.5   0.6359     C
H        0.106    0.334    0.517     H
H        0.106    0.666    0.017     H
O       0.1183   0.2251   0.3159     O
O       0.1183   0.7749   0.8159     O
O       0.1274   0.4984   0.3417     O
O       0.1274   0.5016   0.8417     O
O       0.1346   0.2748   0.5185     O
O       0.1346   0.7252   0.0185     O
C       0.1707   0.4212   0.6794     C
C       0.1707   0.5788   0.1794     C
Co     0.18025  0.37106  0.29498    Co
Co     0.18025  0.62894  0.79498    Co
C       0.1854   0.2411   0.5833     C
C       0.1854   0.7589   0.0833     C
H       0.1931   0.1265   0.1659     H
H       0.1931   0.8735   0.6659     H
C       0.2026   0.3151   0.6589     C
C       0.2026   0.6849   0.1589     C
N       0.2142   0.4573   0.7581     N
N       0.2142   0.5427   0.2581     N
O       0.2279   0.1439     0.59     O
O       0.2279   0.8561     0.09     O
C       0.2303   0.1281   0.2169     C
C       0.2303   0.8719   0.7169     C
N       0.2344   0.2163   0.2739     N
N       0.2344   0.7837   0.7739     N
N       0.2656   0.2837   0.7261     N
N       0.2656   0.7163   0.2261     N
C       0.2697   0.3719   0.7831     C
C       0.2697   0.6281   0.2831     C
O       0.2721   0.3561     0.41     O
O       0.2721   0.6439     0.91     O
N       0.2858   0.0427   0.2419     N
N       0.2858   0.9573   0.7419     N
C       0.2974   0.1849   0.3411     C
C       0.2974   0.8151   0.8411     C
H       0.3069   0.3735   0.8341     H
H       0.3069   0.6265   0.3341     H
C       0.3146   0.2589   0.4167     C
C       0.3146   0.7411   0.9167     C
Co     0.31975  0.12894  0.70502    Co
Co     0.31975  0.87106  0.20502    Co
C       0.3293   0.0788   0.3206     C
C       0.3293   0.9212   0.8206     C
O       0.3654   0.2252   0.4815     O
O       0.3654   0.7748   0.9815     O
O       0.3726   0.0016   0.6583     O
O       0.3726   0.9984   0.1583     O
O       0.3817   0.2749   0.6841     O
O       0.3817   0.7251   0.1841     O
H        0.394    0.166    0.483     H
H        0.394    0.834    0.983     H
C       0.3951      0.0   0.3641     C
C       0.3951      0.0   0.8641     C
O       0.4019   0.1085   0.8306     O
O       0.4019   0.8915   0.3306     O
C       0.4102   0.0674   0.6375     C
C       0.4102   0.9326   0.1375     C
C       0.4189   0.2271   0.6565     C
C       0.4189   0.7729   0.1565     C
O       0.4424   0.0218   0.6011     O
O       0.4424   0.9782   0.1011     O
O       0.4436   0.0352   0.4332     O
O       0.4436   0.9648   0.9332     O
O       0.4508   0.3651   0.4374     O
O       0.4508   0.6349   0.9374     O
O       0.4531    0.412   0.9091     O
O       0.4531    0.588   0.4091     O
O       0.4608   0.2906   0.6427     O
O       0.4608   0.7094   0.1427     O
C       0.4719   0.4856   0.4546     C
C       0.4719   0.5144   0.9546     C
Gd     0.48894  0.19147   0.5443    Gd
Gd     0.48894  0.80853   0.0443    Gd
Gd     0.51106  0.19147   0.9557    Gd
Gd     0.51106  0.80853   0.4557    Gd
C       0.5281   0.4856   0.0454     C
C       0.5281   0.5144   0.5454     C
O       0.5392   0.2906   0.8573     O
O       0.5392   0.7094   0.3573     O
O       0.5469    0.412   0.5909     O
O       0.5469    0.588   0.0909     O
O       0.5492   0.3651   0.0626     O
O       0.5492   0.6349   0.5626     O
O       0.5564   0.0352   0.0668     O
O       0.5564   0.9648   0.5668     O
O       0.5576   0.0218   0.8989     O
O       0.5576   0.9782   0.3989     O
C       0.5811   0.2271   0.8435     C
C       0.5811   0.7729   0.3435     C
C       0.5898   0.0674   0.8625     C
C       0.5898   0.9326   0.3625     C
O       0.5981   0.1085   0.6694     O
O       0.5981   0.8915   0.1694     O
C       0.6049      0.0   0.1359     C
C       0.6049      0.0   0.6359     C
H        0.606    0.166    0.017     H
H        0.606    0.834    0.517     H
O       0.6183   0.2749   0.8159     O
O       0.6183   0.7251   0.3159     O
O       0.6274   0.0016   0.8417     O
O       0.6274   0.9984   0.3417     O
O       0.6346   0.2252   0.0185     O
O       0.6346   0.7748   0.5185     O
C       0.6707   0.0788   0.1794     C
C       0.6707   0.9212   0.6794     C
Co     0.68025  0.12894  0.79498    Co
Co     0.68025  0.87106  0.29498    Co
C       0.6854   0.2589   0.0833     C
C       0.6854   0.7411   0.5833     C
H       0.6931   0.3735   0.6659     H
H       0.6931   0.6265   0.1659     H
C       0.7026   0.1849   0.1589     C
C       0.7026   0.8151   0.6589     C
N       0.7142   0.0427   0.2581     N
N       0.7142   0.9573   0.7581     N
O       0.7279   0.3561     0.09     O
O       0.7279   0.6439     0.59     O
C       0.7303   0.3719   0.7169     C
C       0.7303   0.6281   0.2169     C
N       0.7344   0.2837   0.7739     N
N       0.7344   0.7163   0.2739     N
N       0.7656   0.2163   0.2261     N
N       0.7656   0.7837   0.7261     N
C       0.7697   0.1281   0.2831     C
C       0.7697   0.8719   0.7831     C
O       0.7721   0.1439     0.91     O
O       0.7721   0.8561     0.41     O
N       0.7858   0.4573   0.7419     N
N       0.7858   0.5427   0.2419     N
C       0.7974   0.3151   0.8411     C
C       0.7974   0.6849   0.3411     C
H       0.8069   0.1265   0.3341     H
H       0.8069   0.8735   0.8341     H
C       0.8146   0.2411   0.9167     C
C       0.8146   0.7589   0.4167     C
Co     0.81975  0.37106  0.20502    Co
Co     0.81975  0.62894  0.70502    Co
C       0.8293   0.4212   0.8206     C
C       0.8293   0.5788   0.3206     C
O       0.8654   0.2748   0.9815     O
O       0.8654   0.7252   0.4815     O
O       0.8726   0.4984   0.1583     O
O       0.8726   0.5016   0.6583     O
O       0.8817   0.2251   0.1841     O
O       0.8817   0.7749   0.6841     O
H        0.894    0.334    0.983     H
H        0.894    0.666    0.483     H
C       0.8951      0.5   0.3641     C
C       0.8951      0.5   0.8641     C
O       0.9019   0.3915   0.3306     O
O       0.9019   0.6085   0.8306     O
C       0.9102   0.4326   0.1375     C
C       0.9102   0.5674   0.6375     C
C       0.9189   0.2729   0.1565     C
C       0.9189   0.7271   0.6565     C
O       0.9424   0.4782   0.1011     O
O       0.9424   0.5218   0.6011     O
O       0.9436   0.4648   0.9332     O
O       0.9436   0.5352   0.4332     O
O       0.9508   0.1349   0.9374     O
O       0.9508   0.8651   0.4374     O
O       0.9531    0.088   0.4091     O
O       0.9531    0.912   0.9091     O
O       0.9608   0.2094   0.1427     O
O       0.9608   0.7906   0.6427     O
C       0.9719   0.0144   0.9546     C
C       0.9719   0.9856   0.4546     C
Gd     0.98894  0.30853   0.0443    Gd
Gd     0.98894  0.69147   0.5443    Gd
