data_I
_chemical_name_common  '/home/zhangsd/repos/MofS-CGCNN/ML/data/SSD/clean_cifs/VALVAI_clean'
_cell_length_a 18.29500
_cell_length_b 10.84820
_cell_length_c 17.39840
_cell_angle_alpha 90.00000
_cell_angle_beta  101.39500
_cell_angle_gamma 90.00000
_space_group_name_H-M_alt      'P 1'


loop_
_space_group_symop_operation_xyz
  'x, y, z' 

loop_
_atom_site_label
_atom_site_fract_x
_atom_site_fract_y
_atom_site_fract_z
_atom_site_type_symbol
Yb     0.01102  0.09841  0.89796    Yb
Yb     0.01102  0.90159  0.39796    Yb
O       0.0632   0.1571   0.5212     O
O       0.0632   0.8429   0.0212     O
O       0.0741   0.1062   0.8028     O
O       0.0741   0.8938   0.3028     O
O       0.0757   0.0494   0.1251     O
O       0.0757   0.9506   0.6251     O
O       0.0834    0.077   0.4087     O
O       0.0834    0.923   0.9087     O
O        0.085   0.1915   0.6896     O
O        0.085   0.8085   0.1896     O
O       0.0966   0.1197   0.0099     O
O       0.0966   0.8803   0.5099     O
C       0.1033     0.14   0.4704     C
C       0.1033     0.86   0.9704     C
C       0.1081   0.1727   0.7615     C
C       0.1081   0.8273   0.2615     C
C       0.1134   0.1078    0.083     C
C       0.1134   0.8922    0.583     C
C       0.1794   0.1973   0.4853     C
C       0.1794   0.8027   0.9853     C
C       0.1802   0.2301    0.801     C
C       0.1802   0.7699    0.301     C
H        0.182   0.2364   0.5999     H
H        0.182   0.7636   0.0999     H
C       0.1849   0.1661    0.124     C
C       0.1849   0.8339    0.624     C
H       0.1891   0.3542   0.7147     H
H       0.1891   0.6458   0.2147     H
H       0.1933   0.2894   0.0374     H
H       0.1933   0.7106   0.5374     H
H       0.1948   0.1221   0.8991     H
H       0.1948   0.8779   0.3991     H
H       0.1979   0.0597    0.223     H
H       0.1979   0.9403    0.723     H
H       0.1996   0.1742   0.3745     H
H       0.1996   0.8258   0.8745     H
C       0.2097   0.2421   0.5593     C
C       0.2097   0.7579   0.0593     C
C        0.213   0.3249   0.7649     C
C        0.213   0.6751   0.2649     C
C       0.2163   0.1874   0.8747     C
C       0.2163   0.8126   0.3747     C
C       0.2171   0.2607   0.0877     C
C       0.2171   0.7393   0.5877     C
C         0.22   0.1237   0.1981     C
C         0.22    0.205   0.4254     C
C         0.22    0.795   0.9254     C
C         0.22   0.8763   0.6981     C
C         0.28    0.295   0.5746     C
C         0.28   0.3763   0.8019     C
C         0.28   0.6237   0.3019     C
C         0.28    0.705   0.0746     C
C       0.2829   0.2393   0.9123     C
C       0.2829   0.7607   0.4123     C
C       0.2837   0.3126   0.1253     C
C       0.2837   0.6874   0.6253     C
C        0.287   0.1751   0.2351     C
C        0.287   0.8249   0.7351     C
C       0.2903   0.2579   0.4407     C
C       0.2903   0.7421   0.9407     C
H       0.3004   0.3258   0.6255     H
H       0.3004   0.6742   0.1255     H
H       0.3021   0.4403    0.777     H
H       0.3021   0.5597    0.277     H
H       0.3052   0.3779   0.1009     H
H       0.3052   0.6221   0.6009     H
H       0.3067   0.2106   0.9626     H
H       0.3067   0.7894   0.4626     H
H       0.3109   0.1458   0.2853     H
H       0.3109   0.8542   0.7853     H
C       0.3151   0.3339    0.876     C
C       0.3151   0.6661    0.376     C
H        0.318   0.2636   0.4001     H
H        0.318   0.7364   0.9001     H
C       0.3198   0.2699    0.199     C
C       0.3198   0.7301    0.699     C
C       0.3206   0.3027   0.5147     C
C       0.3206   0.6973   0.0147     C
C       0.3866   0.3922    0.917     C
C       0.3866   0.6078    0.417     C
C       0.3919   0.3273   0.2385     C
C       0.3919   0.6727   0.7385     C
C       0.3967     0.36   0.5296     C
C       0.3967     0.64   0.0296     C
O       0.4034   0.3803   0.9901     O
O       0.4034   0.6197   0.4901     O
O        0.415   0.3085   0.3104     O
O        0.415   0.6915   0.8104     O
O       0.4166    0.423   0.5913     O
O       0.4166    0.577   0.0913     O
O       0.4243   0.4506   0.8749     O
O       0.4243   0.5494   0.3749     O
O       0.4259   0.3938   0.1972     O
O       0.4259   0.6062   0.6972     O
O       0.4368   0.3429   0.4788     O
O       0.4368   0.6571   0.9788     O
Yb     0.48898  0.40159  0.10204    Yb
Yb     0.48898  0.59841  0.60204    Yb
Yb     0.51102  0.40159  0.39796    Yb
Yb     0.51102  0.59841  0.89796    Yb
O       0.5632   0.3429   0.0212     O
O       0.5632   0.6571   0.5212     O
O       0.5741   0.3938   0.3028     O
O       0.5741   0.6062   0.8028     O
O       0.5757   0.4506   0.6251     O
O       0.5757   0.5494   0.1251     O
O       0.5834    0.423   0.9087     O
O       0.5834    0.577   0.4087     O
O        0.585   0.3085   0.1896     O
O        0.585   0.6915   0.6896     O
O       0.5966   0.3803   0.5099     O
O       0.5966   0.6197   0.0099     O
C       0.6033     0.36   0.9704     C
C       0.6033     0.64   0.4704     C
C       0.6081   0.3273   0.2615     C
C       0.6081   0.6727   0.7615     C
C       0.6134   0.3922    0.583     C
C       0.6134   0.6078    0.083     C
C       0.6794   0.3027   0.9853     C
C       0.6794   0.6973   0.4853     C
C       0.6802   0.2699    0.301     C
C       0.6802   0.7301    0.801     C
H        0.682   0.2636   0.0999     H
H        0.682   0.7364   0.5999     H
C       0.6849   0.3339    0.624     C
C       0.6849   0.6661    0.124     C
H       0.6891   0.1458   0.2147     H
H       0.6891   0.8542   0.7147     H
H       0.6933   0.2106   0.5374     H
H       0.6933   0.7894   0.0374     H
H       0.6948   0.3779   0.3991     H
H       0.6948   0.6221   0.8991     H
H       0.6979   0.4403    0.723     H
H       0.6979   0.5597    0.223     H
H       0.6996   0.3258   0.8745     H
H       0.6996   0.6742   0.3745     H
C       0.7097   0.2579   0.0593     C
C       0.7097   0.7421   0.5593     C
C        0.713   0.1751   0.2649     C
C        0.713   0.8249   0.7649     C
C       0.7163   0.3126   0.3747     C
C       0.7163   0.6874   0.8747     C
C       0.7171   0.2393   0.5877     C
C       0.7171   0.7607   0.0877     C
C         0.72    0.295   0.9254     C
C         0.72   0.3763   0.6981     C
C         0.72   0.6237   0.1981     C
C         0.72    0.705   0.4254     C
C         0.78   0.1237   0.3019     C
C         0.78    0.205   0.0746     C
C         0.78    0.795   0.5746     C
C         0.78   0.8763   0.8019     C
C       0.7829   0.2607   0.4123     C
C       0.7829   0.7393   0.9123     C
C       0.7837   0.1874   0.6253     C
C       0.7837   0.8126   0.1253     C
C        0.787   0.3249   0.7351     C
C        0.787   0.6751   0.2351     C
C       0.7903   0.2421   0.9407     C
C       0.7903   0.7579   0.4407     C
H       0.8004   0.1742   0.1255     H
H       0.8004   0.8258   0.6255     H
H       0.8021   0.0597    0.277     H
H       0.8021   0.9403    0.777     H
H       0.8052   0.1221   0.6009     H
H       0.8052   0.8779   0.1009     H
H       0.8067   0.2894   0.4626     H
H       0.8067   0.7106   0.9626     H
H       0.8109   0.3542   0.7853     H
H       0.8109   0.6458   0.2853     H
C       0.8151   0.1661    0.376     C
C       0.8151   0.8339    0.876     C
H        0.818   0.2364   0.9001     H
H        0.818   0.7636   0.4001     H
C       0.8198   0.2301    0.699     C
C       0.8198   0.7699    0.199     C
C       0.8206   0.1973   0.0147     C
C       0.8206   0.8027   0.5147     C
C       0.8866   0.1078    0.417     C
C       0.8866   0.8922    0.917     C
C       0.8919   0.1727   0.7385     C
C       0.8919   0.8273   0.2385     C
C       0.8967     0.14   0.0296     C
C       0.8967     0.86   0.5296     C
O       0.9034   0.1197   0.4901     O
O       0.9034   0.8803   0.9901     O
O        0.915   0.1915   0.8104     O
O        0.915   0.8085   0.3104     O
O       0.9166    0.077   0.0913     O
O       0.9166    0.923   0.5913     O
O       0.9243   0.0494   0.3749     O
O       0.9243   0.9506   0.8749     O
O       0.9259   0.1062   0.6972     O
O       0.9259   0.8938   0.1972     O
O       0.9368   0.1571   0.9788     O
O       0.9368   0.8429   0.4788     O
Yb     0.98898  0.09841  0.60204    Yb
Yb     0.98898  0.90159  0.10204    Yb
