data_I
_chemical_name_common  '/home/zhangsd/repos/MofS-CGCNN/ML/data/SSD/clean_cifs/VARJEF_clean'
_cell_length_a 17.29260
_cell_length_b 17.29260
_cell_length_c 22.89620
_cell_angle_alpha 90.00000
_cell_angle_beta  90.00000
_cell_angle_gamma 90.00000
_space_group_name_H-M_alt      'P 1'


loop_
_space_group_symop_operation_xyz
  'x, y, z' 

loop_
_atom_site_label
_atom_site_fract_x
_atom_site_fract_y
_atom_site_fract_z
_atom_site_type_symbol
Fe         0.0      0.0      0.0    Fe
N          0.0      0.0  0.09527     N
C          0.0      0.0  0.21762     C
C          0.0      0.0  0.28213     C
N          0.0      0.0    0.404     N
Fe         0.0      0.0      0.5    Fe
N          0.0      0.0    0.596     N
C          0.0      0.0  0.71787     C
C          0.0      0.0  0.78238     C
N          0.0      0.0  0.90473     N
N          0.0      0.5  0.04405     N
C          0.0      0.5  0.16692     C
C          0.0      0.5  0.23099     C
N          0.0      0.5  0.35368     N
Fe         0.0      0.5  0.44844    Fe
N          0.0      0.5  0.54405     N
C          0.0      0.5  0.66692     C
C          0.0      0.5  0.73099     C
N          0.0      0.5  0.85368     N
Fe         0.0      0.5  0.94844    Fe
N      0.01431  0.12315  0.49929     N
N      0.01536  0.87685  0.99877     N
N      0.02148  0.37833   0.4493     N
N      0.02357  0.62214  0.95011     N
C      0.02891  0.05929  0.12536     C
C      0.03107  0.06107  0.18604     C
C       0.0323   0.5579  0.32302     C
C      0.03299  0.56003  0.26293     C
C      0.03462  0.55568  0.57461     C
C      0.03626   0.5586  0.63498     C
C      0.03899  0.94667  0.62616     C
C      0.04022  0.94396  0.68544     C
C      0.04233  0.18313  0.48916     C
C      0.04317  0.81715  0.99105     C
C       0.0468  0.31838  0.46251     C
C      0.04827  0.68097  0.96483     C
H        0.049   0.1021   0.1042     H
C      0.05333  0.03899  0.37384     C
H       0.0537   0.1039   0.2056     H
H       0.0552   0.5993   0.3441     H
C      0.05568  0.53462  0.07461     C
C      0.05604  0.04022  0.31456     C
H       0.0565   0.6024   0.2434     H
C       0.0579   0.5323  0.82302     C
C       0.0586  0.53626  0.13498     C
C      0.05929  0.97109  0.87464     C
H       0.0596   0.5959   0.5536     H
C      0.06003  0.53299  0.76293     C
C      0.06107  0.96893  0.81396     C
H       0.0618   0.5999   0.6545     H
H       0.0675   0.9087   0.6053     H
H       0.0682   0.9044    0.705     H
C      0.08375  0.24932  0.47789     C
C      0.08525  0.74865  0.98309     C
H       0.0913   0.0675   0.3947     H
H       0.0956   0.0682    0.295     H
H       0.0959   0.5596   0.0536     H
H       0.0993   0.5552   0.8441     H
H       0.0999   0.5618   0.1545     H
H       0.1021    0.951   0.8958     H
H       0.1024   0.5565   0.7434     H
H       0.1039   0.9463   0.7944     H
N      0.12167  0.47852   0.9493     N
N      0.12214  0.52357  0.45011     N
N      0.12315  0.01536  0.00123     N
N      0.12315  0.98569  0.50071     N
H       0.1369   0.6915    0.468     H
H       0.1394   0.8236   0.4818     H
H       0.1401   0.1784   0.9782     H
H       0.1402   0.3109   0.9614     H
C      0.16801   0.7492   0.9933     C
C      0.17015  0.24946  0.48717     C
H       0.1764   0.1394   0.5182     H
H       0.1784   0.8599   0.0218     H
C      0.18097  0.54827  0.46483     C
C      0.18162   0.4532  0.96251     C
C      0.18285  0.04317  0.00895     C
C      0.18293  0.71521  0.48195     C
C      0.18313  0.95767  0.51084     C
C      0.18385  0.79374  0.49096     C
C      0.18561  0.28645  0.97578     C
C      0.18588  0.20705  0.98585     C
H       0.1891   0.3598   0.4614     H
H       0.1915   0.6369    0.968     H
C      0.20626  0.18385  0.50904     C
C      0.20705  0.81412  0.01415     C
C      0.21355  0.31439  0.47578     C
C      0.21521  0.68293  0.98195     C
C      0.24865  0.58525  0.48309     C
C       0.2492  0.66801   0.4933     C
C      0.24932  0.91625  0.52211     C
C      0.24946  0.82985  0.51283     C
C      0.25054  0.32985  0.98717     C
C      0.25068  0.41625  0.97789     C
C       0.2508  0.16801   0.0067     C
C      0.25135  0.08525  0.01691     C
C      0.28479  0.18293  0.51805     C
C      0.28645  0.81439  0.02422     C
C      0.29295  0.31412  0.48585     C
C      0.29374  0.68385  0.99096     C
H       0.3085   0.1369    0.532     H
H       0.3109   0.8598   0.0386     H
C      0.31412  0.70705  0.51415     C
C      0.31439  0.78645  0.52422     C
C      0.31615  0.29374  0.00904     C
C      0.31687  0.45767  0.98916     C
C      0.31707  0.21521  0.01805     C
C      0.31715  0.54317  0.49105     C
C      0.31838   0.9532  0.53749     C
C      0.31903  0.04827  0.03517     C
H       0.3216   0.3599   0.4782     H
H       0.3236   0.6394   0.9818     H
C      0.32985  0.74946  0.01283     C
C      0.33199   0.2492   0.5067     C
H       0.3598   0.8109   0.5386     H
H       0.3599   0.6784   0.5218     H
H       0.3606   0.3236   0.0182     H
H       0.3631   0.1915    0.032     H
N      0.37685  0.48569  0.99929     N
N      0.37685  0.51536  0.49877     N
N      0.37786  0.02357  0.04989     N
N      0.37833  0.97852   0.5507     N
H       0.3961   0.4463   0.7056     H
H       0.3976   0.0565   0.7566     H
H       0.3979    0.451   0.6042     H
H       0.4001   0.0618   0.3455     H
H       0.4007   0.0552   0.6559     H
H       0.4041   0.0596   0.4464     H
H       0.4044   0.5682    0.205     H
H       0.4087   0.5675   0.1053     H
C      0.41475  0.24865  0.51691     C
C      0.41625  0.74932  0.02211     C
H       0.4318   0.4044    0.795     H
H       0.4325   0.4087   0.8947     H
H       0.4382   0.0999   0.8455     H
C      0.43893  0.46893  0.68604     C
C      0.43997  0.03299  0.73707     C
H       0.4404   0.0959   0.9464     H
C      0.44071  0.47109  0.62536     C
C       0.4414  0.03626  0.36502     C
C       0.4421   0.0323  0.67698     C
H       0.4435   0.1024   0.2566     H
C      0.44396  0.54022  0.18544     C
C      0.44432  0.03462  0.42539     C
H       0.4448   0.0993   0.1559     H
H       0.4463   0.6039   0.2944     H
C      0.44667  0.53899  0.12616     C
H        0.451   0.6021   0.3958     H
C      0.45173  0.18097  0.53517     C
C       0.4532  0.81838  0.03749     C
C      0.45683  0.31715  0.50895     C
C      0.45767  0.68313  0.01084     C
C      0.45978  0.44396  0.81456     C
C      0.46101  0.44667  0.87384     C
C      0.46374   0.0586  0.86502     C
C      0.46538  0.05568  0.92539     C
C      0.46701  0.06003  0.23707     C
C       0.4677   0.0579  0.17698     C
C      0.46893  0.56107  0.31396     C
C      0.47109  0.55929  0.37464     C
N      0.47643  0.12214  0.54989     N
N      0.47852  0.87833   0.0507     N
N      0.48464  0.37685  0.50123     N
N      0.48569  0.62315  0.00071     N
Fe         0.5      0.0  0.05156    Fe
N          0.5      0.0  0.14632     N
C          0.5      0.0  0.26901     C
C          0.5      0.0  0.33308     C
N          0.5      0.0  0.45595     N
Fe         0.5      0.0  0.55156    Fe
N          0.5      0.0  0.64632     N
C          0.5      0.0  0.76901     C
C          0.5      0.0  0.83308     C
N          0.5      0.0  0.95595     N
Fe         0.5      0.5      0.0    Fe
N          0.5      0.5    0.096     N
C          0.5      0.5  0.21787     C
C          0.5      0.5  0.28238     C
N          0.5      0.5  0.40473     N
Fe         0.5      0.5      0.5    Fe
N          0.5      0.5  0.59527     N
C          0.5      0.5  0.71762     C
C          0.5      0.5  0.78213     C
N          0.5      0.5    0.904     N
N      0.51431  0.37685  0.00071     N
N      0.51536  0.62315  0.50123     N
N      0.52148  0.12167   0.0507     N
N      0.52357  0.87786  0.54989     N
C      0.52891  0.44071  0.37464     C
C      0.53107  0.43893  0.31396     C
C       0.5323   0.9421  0.17698     C
C      0.53299  0.93997  0.23707     C
C      0.53462  0.94432  0.92539     C
C      0.53626   0.9414  0.86502     C
C      0.53899  0.55333  0.87384     C
C      0.54022  0.55604  0.81456     C
C      0.54233  0.31687  0.01084     C
C      0.54317  0.68285  0.50895     C
C       0.5468  0.18162  0.03749     C
C      0.54827  0.81903  0.53517     C
H        0.549   0.3979   0.3958     H
C      0.55333  0.46101  0.12616     C
H       0.5537   0.3961   0.2944     H
H       0.5552   0.9007   0.1559     H
C      0.55568  0.96538  0.42539     C
C      0.55604  0.45978  0.18544     C
H       0.5565   0.8976   0.2566     H
C       0.5579   0.9677  0.67698     C
C       0.5586  0.96374  0.36502     C
C      0.55929  0.52891  0.62536     C
H       0.5596   0.9041   0.9464     H
C      0.56003  0.96701  0.73707     C
C      0.56107  0.53107  0.68604     C
H       0.5618   0.9001   0.8455     H
H       0.5675   0.5913   0.8947     H
H       0.5682   0.5956    0.795     H
C      0.58375  0.25068  0.02211     C
C      0.58525  0.75135  0.51691     C
H       0.5913   0.4325   0.1053     H
H       0.5956   0.4318    0.205     H
H       0.5959   0.9404   0.4464     H
H       0.5993   0.9448   0.6559     H
H       0.5999   0.9382   0.3455     H
H       0.6021    0.549   0.6042     H
H       0.6024   0.9435   0.7566     H
H       0.6039   0.5537   0.7056     H
N      0.62167  0.02148   0.5507     N
N      0.62214  0.97643  0.04989     N
N      0.62315  0.48464  0.49877     N
N      0.62315  0.51431  0.99929     N
H       0.6369   0.8085    0.032     H
H       0.6394   0.6764   0.0182     H
H       0.6401   0.3216   0.5218     H
H       0.6402   0.1891   0.5386     H
C      0.66801   0.7508   0.5067     C
C      0.67015  0.25054  0.01283     C
H       0.6764   0.3606   0.9818     H
H       0.6784   0.6401   0.4782     H
C      0.68097  0.95173  0.03517     C
C      0.68162   0.0468  0.53749     C
C      0.68285  0.45683  0.49105     C
C      0.68293  0.78479  0.01805     C
C      0.68313  0.54233  0.98916     C
C      0.68385  0.70626  0.00904     C
C      0.68561  0.21355  0.52422     C
C      0.68588  0.29295  0.51415     C
H       0.6891   0.1402   0.0386     H
H       0.6915   0.8631    0.532     H
C      0.70626  0.31615  0.99096     C
C      0.70705  0.68588  0.48585     C
C      0.71355  0.18561  0.02422     C
C      0.71521  0.81707  0.51805     C
C      0.74865  0.91475  0.01691     C
C       0.7492  0.83199   0.0067     C
C      0.74932  0.58375  0.97789     C
C      0.74946  0.67015  0.98717     C
C      0.75054  0.17015  0.51283     C
C      0.75068  0.08375  0.52211     C
C       0.7508  0.33199   0.4933     C
C      0.75135  0.41475  0.48309     C
C      0.78479  0.31707  0.98195     C
C      0.78645  0.68561  0.47578     C
C      0.79295  0.18588  0.01415     C
C      0.79374  0.81615  0.50904     C
H       0.8085   0.3631    0.968     H
H       0.8109   0.6402   0.4614     H
C      0.81412  0.79295  0.98585     C
C      0.81439  0.71355  0.97578     C
C      0.81615  0.20626  0.49096     C
C      0.81687  0.04233  0.51084     C
C      0.81707  0.28479  0.48195     C
C      0.81715  0.95683  0.00895     C
C      0.81838   0.5468  0.96251     C
C      0.81903  0.45173  0.46483     C
H       0.8216   0.1401   0.0218     H
H       0.8236   0.8606   0.5182     H
C      0.82985  0.75054  0.48717     C
C      0.83199   0.2508   0.9933     C
H       0.8598   0.6891   0.9614     H
H       0.8599   0.8216   0.9782     H
H       0.8606   0.1764   0.4818     H
H       0.8631   0.3085    0.468     H
N      0.87685  0.01431  0.50071     N
N      0.87685  0.98464  0.00123     N
N      0.87786  0.47643  0.45011     N
N      0.87833  0.52148   0.9493     N
H       0.8961   0.0537   0.7944     H
H       0.8976   0.4435   0.7434     H
H       0.8979    0.049   0.8958     H
H       0.9001   0.4382   0.1545     H
H       0.9007   0.4448   0.8441     H
H       0.9041   0.4404   0.0536     H
H       0.9044   0.9318    0.295     H
H       0.9087   0.9325   0.3947     H
C      0.91475  0.25135  0.98309     C
C      0.91625  0.75068  0.47789     C
H       0.9318   0.0956    0.705     H
H       0.9325   0.0913   0.6053     H
H       0.9382   0.4001   0.6545     H
C      0.93893  0.03107  0.81396     C
C      0.93997  0.46701  0.76293     C
H       0.9404   0.4041   0.5536     H
C      0.94071  0.02891  0.87464     C
C       0.9414  0.46374  0.13498     C
C       0.9421   0.4677  0.82302     C
H       0.9435   0.3976   0.2434     H
C      0.94396  0.95978  0.31456     C
C      0.94432  0.46538  0.07461     C
H       0.9448   0.4007   0.3441     H
H       0.9463   0.8961   0.2056     H
C      0.94667  0.96101  0.37384     C
H        0.951   0.8979   0.1042     H
C      0.95173  0.31903  0.96483     C
C       0.9532  0.68162  0.46251     C
C      0.95683  0.18285  0.99105     C
C      0.95767  0.81687  0.48916     C
C      0.95978  0.05604  0.68544     C
C      0.96101  0.05333  0.62616     C
C      0.96374   0.4414  0.63498     C
C      0.96538  0.44432  0.57461     C
C      0.96701  0.43997  0.26293     C
C       0.9677   0.4421  0.32302     C
C      0.96893  0.93893  0.18604     C
C      0.97109  0.94071  0.12536     C
N      0.97643  0.37786  0.95011     N
N      0.97852  0.62167   0.4493     N
N      0.98464  0.12315  0.99877     N
N      0.98569  0.87685  0.49929     N
