data_I
_chemical_name_common  '/home/zhangsd/repos/MofS-CGCNN/ML/data/SSD/clean_cifs/VAZLEP_clean'
_cell_length_a  7.35190
_cell_length_b  9.72950
_cell_length_c 14.76610
_cell_angle_alpha 90.00000
_cell_angle_beta  99.62760
_cell_angle_gamma 90.00000
_space_group_name_H-M_alt      'P 1'


loop_
_space_group_symop_operation_xyz
  'x, y, z' 

loop_
_atom_site_label
_atom_site_fract_x
_atom_site_fract_y
_atom_site_fract_z
_atom_site_type_symbol
C       0.0426   0.5349   0.4619     C
O       0.0582   0.4531   0.6152     O
O       0.0624   0.8118   0.0708     O
O       0.0866   0.8402   0.9229     O
C       0.1071    0.773   0.9964     C
Eu     0.13539  0.05509  0.85726    Eu
O       0.1645   0.7473   0.6428     O
O       0.1773   0.9395   0.7244     O
H        0.178   0.8354   0.4548     H
C       0.1864   0.8757   0.6523     C
C        0.187   0.6351    0.996     C
O       0.2071    0.575   0.4818     O
C       0.2146   0.9193   0.4821     C
O       0.2168   0.5858   0.9132     O
H       0.2244   0.5469   0.1243     H
C       0.2256   0.9521    0.572     C
C         0.23   0.5376   0.0621     C
C         0.27   0.0376   0.4379     C
C       0.2744   0.4521    0.928     C
H       0.2756   0.0469   0.3757     H
O       0.2832   0.0858   0.5868     O
C       0.2854   0.4193   0.0179     C
O       0.2929    0.075   0.0182     O
C        0.313   0.1351    0.504     C
C       0.3136   0.3757   0.8477     C
H        0.322   0.3354   0.0452     H
O       0.3227   0.4395   0.7756     O
O       0.3355   0.2473   0.8572     O
Eu     0.36461  0.55509  0.64274    Eu
C       0.3929    0.273   0.5036     C
O       0.4134   0.3402   0.5771     O
O       0.4376   0.3118   0.4292     O
O       0.4418   0.9531   0.8848     O
C       0.4574   0.0349   0.0381     C
C       0.5426   0.9651   0.9619     C
O       0.5582   0.0469   0.1152     O
O       0.5624   0.6882   0.5708     O
O       0.5866   0.6598   0.4229     O
C       0.6071    0.727   0.4964     C
Eu     0.63539  0.44491  0.35726    Eu
O       0.6645   0.7527   0.1428     O
O       0.6773   0.5605   0.2244     O
H        0.678   0.6646   0.9548     H
C       0.6864   0.6243   0.1523     C
C        0.687   0.8649    0.496     C
O       0.7071    0.925   0.9818     O
C       0.7146   0.5807   0.9821     C
O       0.7168   0.9142   0.4132     O
H       0.7244   0.9531   0.6243     H
C       0.7256   0.5479    0.072     C
C         0.73   0.9624   0.5621     C
C         0.77   0.4624   0.9379     C
C       0.7744   0.0479    0.428     C
H       0.7756   0.4531   0.8757     H
O       0.7832   0.4142   0.0868     O
C       0.7854   0.0807   0.5179     C
O       0.7929    0.425   0.5182     O
C        0.813   0.3649    0.004     C
C       0.8136   0.1243   0.3477     C
H        0.822   0.1646   0.5452     H
O       0.8227   0.0605   0.2756     O
O       0.8355   0.2527   0.3572     O
Eu     0.86461  0.94491  0.14274    Eu
C       0.8929    0.227   0.0036     C
O       0.9134   0.1598   0.0771     O
O       0.9376   0.1882   0.9292     O
O       0.9418   0.5469   0.3848     O
C       0.9574   0.4651   0.5381     C
