data_I
_chemical_name_common  '/home/zhangsd/repos/MofS-CGCNN/ML/data/SSD/clean_cifs/VAZLOZ_clean'
_cell_length_a  7.31080
_cell_length_b  9.72200
_cell_length_c 14.68250
_cell_angle_alpha 90.00000
_cell_angle_beta  99.38170
_cell_angle_gamma 90.00000
_space_group_name_H-M_alt      'P 1'


loop_
_space_group_symop_operation_xyz
  'x, y, z' 

loop_
_atom_site_label
_atom_site_fract_x
_atom_site_fract_y
_atom_site_fract_z
_atom_site_type_symbol
C       0.0433   0.5351   0.4616     C
O       0.0566    0.454    0.616     O
O      0.05943   0.8121  0.07073     O
O      0.08866   0.8418  0.92326     O
C       0.1067   0.7741   0.9968     C
Tb     0.13728  0.05489  0.85767    Tb
O      0.16465   0.7462  0.64355     O
H        0.177   0.8352   0.4546     H
O       0.1798    0.939    0.726     O
C       0.1872   0.6356   0.9963     C
C       0.1874   0.8753   0.6531     C
O       0.2075   0.5755   0.4822     O
C       0.2142    0.919    0.482     C
O      0.21652   0.5862  0.91312     O
H       0.2229   0.5467   0.1249     H
C       0.2257   0.9522   0.5723     C
C       0.2296   0.5376   0.0625     C
C       0.2704   0.0376   0.4375     C
C       0.2743   0.4522   0.9277     C
H       0.2771   0.0467   0.3751     H
O      0.28348   0.0862  0.58688     O
C       0.2858    0.419    0.018     C
O       0.2925   0.0755   0.0178     O
C       0.3126   0.3753   0.8469     C
C       0.3128   0.1356   0.5037     C
O       0.3202    0.439    0.774     O
H        0.323   0.3352   0.0454     H
O      0.33535   0.2462  0.85645     O
Tb     0.36272  0.55489  0.64233    Tb
C       0.3933   0.2741   0.5032     C
O      0.41134   0.3418  0.57674     O
O      0.44057   0.3121  0.42927     O
O       0.4434    0.954    0.884     O
C       0.4567   0.0351   0.0384     C
C       0.5433   0.9649   0.9616     C
O       0.5566    0.046    0.116     O
O      0.55943   0.6879  0.57073     O
O      0.58866   0.6582  0.42326     O
C       0.6067   0.7259   0.4968     C
Tb     0.63728  0.44511  0.35767    Tb
O      0.66465   0.7538  0.14355     O
H        0.677   0.6648   0.9546     H
O       0.6798    0.561    0.226     O
C       0.6872   0.8644   0.4963     C
C       0.6874   0.6247   0.1531     C
O       0.7075   0.9245   0.9822     O
C       0.7142    0.581    0.982     C
O      0.71652   0.9138  0.41312     O
H       0.7229   0.9533   0.6249     H
C       0.7257   0.5478   0.0723     C
C       0.7296   0.9624   0.5625     C
C       0.7704   0.4624   0.9375     C
C       0.7743   0.0478   0.4277     C
H       0.7771   0.4533   0.8751     H
O      0.78348   0.4138  0.08688     O
C       0.7858    0.081    0.518     C
O       0.7925   0.4245   0.5178     O
C       0.8126   0.1247   0.3469     C
C       0.8128   0.3644   0.0037     C
O       0.8202    0.061    0.274     O
H        0.823   0.1648   0.5454     H
O      0.83535   0.2538  0.35645     O
Tb     0.86272  0.94511  0.14233    Tb
C       0.8933   0.2259   0.0032     C
O      0.91134   0.1582  0.07674     O
O      0.94057   0.1879  0.92927     O
O       0.9434    0.546    0.384     O
C       0.9567   0.4649   0.5384     C
