data_I
_chemical_name_common  '/home/zhangsd/repos/MofS-CGCNN/ML/data/SSD/clean_cifs/VAZMEQ_clean'
_cell_length_a  9.88460
_cell_length_b  9.88460
_cell_length_c 13.35260
_cell_angle_alpha 85.32460
_cell_angle_beta  70.17810
_cell_angle_gamma 115.58300
_space_group_name_H-M_alt      'P 1'


loop_
_space_group_symop_operation_xyz
  'x, y, z' 

loop_
_atom_site_label
_atom_site_fract_x
_atom_site_fract_y
_atom_site_fract_z
_atom_site_type_symbol
H       0.0097   0.9472   0.8527     H
O       0.0117   0.3347   0.0386     O
O       0.0267   0.6243   0.6358     O
Dy     0.04146  0.26796  0.49738    Dy
C       0.0659   0.4102   0.2647     C
O       0.0766   0.4991   0.1873     O
C       0.0996   0.9983   0.8697     C
C       0.1188    0.769   0.9612     C
O       0.1267   0.9497   0.5386     O
O       0.1592   0.6805   0.4015     O
C       0.1659   0.9319    0.917     C
C       0.1749   0.3306   0.2353     C
H       0.1797    0.238   0.8197     H
O       0.1864   0.2639   0.3127     O
C       0.1945    0.161   0.8515     C
O       0.2128   0.7455   0.9957     O
C       0.2302     0.08   0.5388     C
O       0.2399   0.3375   0.1358     O
O       0.2412   0.2085   0.5043     O
Dy     0.26534  0.53884  0.00262    Dy
O       0.2713   0.5294   0.4121     O
C       0.2756   0.6586   0.4018     C
O       0.2989    0.044   0.9281     O
H       0.2999   0.8624   0.6473     H
C        0.312   0.1827   0.8899     C
C       0.3489   0.0829    0.583     C
C        0.368   0.9693   0.6303     C
O        0.418   0.4393   0.9015     O
C       0.4274   0.7981   0.3899     C
C       0.4396   0.3226   0.9018     C
O       0.4415   0.6834   0.0879     O
H       0.4423   0.0006   0.3197     H
O       0.4721    0.227   0.5719     O
C       0.4875    0.954   0.3515     C
C       0.5125    0.046   0.6485     C
O       0.5279    0.773   0.4281     O
H       0.5577   0.9994   0.6803     H
O       0.5585   0.3166   0.9121     O
C       0.5604   0.6774   0.0982     C
C       0.5726   0.2019   0.6101     C
O        0.582   0.5607   0.0985     O
C        0.632   0.0307   0.3697     C
C       0.6511   0.9171    0.417     C
C        0.688   0.8173   0.1101     C
H       0.7001   0.1376   0.3527     H
O       0.7011    0.956   0.0719     O
C       0.7244   0.3414   0.5982     C
O       0.7287   0.4706   0.5879     O
Dy     0.73466  0.46116  0.99738    Dy
O       0.7588   0.7915   0.4957     O
O       0.7601   0.6625   0.8642     O
C       0.7698     0.92   0.4612     C
O       0.7872   0.2545   0.0043     O
C       0.8055    0.839   0.1485     C
O       0.8136   0.7361   0.6873     O
H       0.8203    0.762   0.1803     H
C       0.8251   0.6694   0.7647     C
C       0.8341   0.0681    0.083     C
O       0.8408   0.3195   0.5985     O
O       0.8733   0.0503   0.4614     O
C       0.8812    0.231   0.0388     C
C       0.9004   0.0017   0.1303     C
O       0.9234   0.5009   0.8127     O
C       0.9341   0.5898   0.7353     C
Dy     0.95854  0.73204  0.50262    Dy
O       0.9733   0.3757   0.3642     O
O       0.9883   0.6653   0.9614     O
H       0.9903   0.0528   0.1473     H
