data_I
_chemical_name_common  '/home/zhangsd/repos/MofS-CGCNN/ML/data/SSD/clean_cifs/VEDFUH_clean'
_cell_length_a 11.37900
_cell_length_b 13.38600
_cell_length_c 25.90400
_cell_angle_alpha 90.00000
_cell_angle_beta  90.00000
_cell_angle_gamma 90.00000
_space_group_name_H-M_alt      'P 1'


loop_
_space_group_symop_operation_xyz
  'x, y, z' 

loop_
_atom_site_label
_atom_site_fract_x
_atom_site_fract_y
_atom_site_fract_z
_atom_site_type_symbol
H       0.0042   0.3717    0.003     H
H        0.005    0.615   0.8535     H
C        0.007   0.7396    0.304     C
C       0.0108   0.3074   0.2355     C
H       0.0149   0.8157    0.664     H
O       0.0158   0.9363  0.02691     O
C       0.0195   0.8654  0.17317     C
H       0.0254   0.2536    0.163     H
C       0.0269   0.9663  0.65525     C
O       0.0285   0.2305  0.06333     O
C       0.0291   0.3757   0.8394     C
C       0.0338   0.7898   0.2165     C
C       0.0413   0.5517  0.84897     C
O       0.0492   0.4363  0.31623     O
H       0.0543   0.3667   0.2291     H
H       0.0662   0.3529   0.5563     H
N       0.0683   0.6544  0.29749     N
O       0.0744   0.8495  0.13257     O
C       0.0789   0.8773   0.4949     C
C       0.0795   0.7322   0.4344     C
O       0.0837    0.073  0.11502     O
C       0.0865   0.4151  0.45779     C
H       0.0888   0.1304    0.091     H
H       0.0935   0.9976   0.5416     H
H       0.0977   0.0987   0.9935     H
C       0.0981   0.7021   0.2087     C
Co     0.09813  0.55392  0.36133    Co
C       0.1124   0.6355   0.2504     C
C       0.1248   0.3155   0.5387     C
H       0.1315   0.6876   0.1759     H
H       0.1317    0.089   0.1458     H
C       0.1382   0.9504   0.5224     C
O       0.1407   0.4535  0.42034     O
C       0.1424   0.8134   0.4647     C
O        0.146   0.6738  0.40746     O
C       0.1505   0.3354   0.4883     C
C       0.1528   0.3738   0.8391     C
H       0.1547   0.5752    0.245     H
H       0.1553    0.843    0.974     H
Co     0.15568  0.94353  0.07801    Co
C       0.1586   0.9698  0.64851     C
C         0.16   0.5444   0.8466     C
H       0.1693    0.228   0.5996     H
C       0.1809   0.1045   0.9941     C
C       0.1857   0.2393   0.5641     C
H       0.1887   0.2227   0.9437     H
H       0.1917   0.3113   0.8362     H
O       0.1985    0.049  0.62648     O
H       0.2051   0.6041   0.8478     H
C       0.2114   0.8018   0.9909     C
N       0.2174   0.4564  0.84269     N
O       0.2196   0.8967  0.66367     O
C       0.2322   0.2749   0.4621     C
N       0.2343    0.818  0.04101     N
C       0.2347   0.1786   0.9641     C
N       0.2425   0.0421  0.02323     N
H       0.2489   0.2848   0.4266     H
H       0.2511   0.7152   0.9266     H
N       0.2575   0.9579  0.52323     N
C       0.2653   0.8214   0.4641     C
N       0.2657    0.182  0.54101     N
C       0.2678   0.7251   0.9621     C
O       0.2804   0.1033  0.16367     O
N       0.2826   0.5436  0.34269     N
C       0.2886   0.1982   0.4909     C
H       0.2949   0.3959   0.3478     H
O       0.3015    0.951  0.12648     O
H       0.3083   0.6887   0.3362     H
H       0.3113   0.7773   0.4437     H
C       0.3143   0.7607   0.0641     C
C       0.3191   0.8955   0.4941     C
H       0.3307    0.772   0.0996     H
C         0.34   0.4556   0.3466     C
C       0.3414   0.0302  0.14851     C
Co     0.34432  0.05647  0.57801    Co
H       0.3447    0.157    0.474     H
H       0.3453   0.4248    0.745     H
C       0.3472   0.6262   0.3391     C
C       0.3495   0.6646   0.9883     C
O        0.354   0.3262  0.90746     O
C       0.3576   0.1866   0.9647     C
O       0.3593   0.5465  0.92034     O
C       0.3618   0.0496   0.0224     C
H       0.3683    0.911   0.6458     H
H       0.3685   0.3124   0.6759     H
C       0.3752   0.6845   0.0387     C
C       0.3876   0.3645   0.7504     C
Co     0.40187  0.44608  0.86133    Co
C       0.4019   0.2979   0.7087     C
H       0.4023   0.9013   0.4935     H
H       0.4065   0.0024   0.0416     H
H       0.4112   0.8696    0.591     H
C       0.4135   0.5849  0.95779     C
O       0.4163    0.927  0.61502     O
C       0.4205   0.2678   0.9344     C
C       0.4211   0.1227   0.9949     C
O       0.4256   0.1505  0.63257     O
N       0.4317   0.3456  0.79749     N
H       0.4338   0.6471   0.0563     H
H       0.4457   0.6333   0.7291     H
O       0.4508   0.5637  0.81623     O
C       0.4587   0.4483  0.34897     C
C       0.4662   0.2102   0.7165     C
C       0.4709   0.6243   0.3394     C
O       0.4715   0.7695  0.56333     O
C       0.4731   0.0337  0.15525     C
H       0.4746   0.7464    0.663     H
C       0.4805   0.1346  0.67317     C
O       0.4842   0.0637  0.52691     O
H       0.4851   0.1843    0.164     H
C       0.4892   0.6926   0.7355     C
C        0.493   0.2604    0.804     C
H        0.495    0.385   0.3535     H
H       0.4958   0.6283    0.503     H
H       0.5042   0.1283    0.997     H
H        0.505    0.885   0.1465     H
C        0.507   0.7604    0.696     C
C       0.5108   0.1926   0.7645     C
H       0.5149   0.6843    0.336     H
O       0.5158   0.5637  0.97309     O
C       0.5195   0.6346  0.82683     C
H       0.5254   0.2464    0.837     H
C       0.5269   0.5337  0.34475     C
O       0.5285   0.2695  0.93667     O
C       0.5291   0.1243   0.1606     C
C       0.5338   0.7102   0.7835     C
C       0.5413   0.9483  0.15103     C
O       0.5492   0.0637  0.68377     O
H       0.5543   0.1333   0.7709     H
H       0.5662   0.1471   0.4437     H
N       0.5683   0.8456  0.70251     N
O       0.5744   0.6505  0.86743     O
C       0.5789   0.6227   0.5051     C
C       0.5795   0.7678   0.5656     C
O       0.5837    0.427  0.88498     O
C       0.5865   0.0849  0.54221     C
H       0.5888   0.3696    0.909     H
H       0.5935   0.5024   0.4584     H
H       0.5977   0.4013   0.0065     H
C       0.5981   0.7979   0.7913     C
Co     0.59813  0.94608  0.63867    Co
C       0.6124   0.8645   0.7496     C
C       0.6248   0.1845   0.4613     C
H       0.6315   0.8124   0.8241     H
H       0.6317    0.411   0.8542     H
C       0.6382   0.5496   0.4776     C
O       0.6407   0.0465  0.57966     O
C       0.6424   0.6866   0.5353     C
O        0.646   0.8262  0.59254     O
C       0.6505   0.1646   0.5117     C
C       0.6528   0.1262   0.1609     C
H       0.6547   0.9248    0.755     H
H       0.6553    0.657    0.026     H
Co     0.65568  0.55647  0.92199    Co
C       0.6586   0.5302  0.35149     C
C         0.66   0.9556   0.1534     C
H       0.6693    0.272   0.4004     H
C       0.6809   0.3955   0.0059     C
C       0.6857   0.2607   0.4359     C
H       0.6887   0.2773   0.0563     H
H       0.6917   0.1887   0.1638     H
O       0.6985    0.451  0.37352     O
H       0.7051   0.8959   0.1522     H
C       0.7114   0.6982   0.0091     C
N       0.7174   0.0436  0.15731     N
O       0.7196   0.6033  0.33633     O
C       0.7322   0.2251   0.5379     C
N       0.7343    0.682  0.95899     N
C       0.7347   0.3214   0.0359     C
N       0.7425   0.4579  0.97677     N
H       0.7489   0.2152   0.5734     H
H       0.7511   0.7848   0.0734     H
N       0.7575   0.5421  0.47677     N
C       0.7653   0.6786   0.5359     C
N       0.7657    0.318  0.45899     N
C       0.7678   0.7749   0.0379     C
O       0.7804   0.3967  0.83633     O
N       0.7826   0.9564  0.65731     N
C       0.7886   0.3018   0.5091     C
H       0.7949   0.1041   0.6522     H
O       0.8015    0.549  0.87352     O
H       0.8083   0.8113   0.6638     H
H       0.8113   0.7227   0.5563     H
C       0.8143   0.7393   0.9359     C
C       0.8191   0.6045   0.5059     C
H       0.8307    0.728   0.9004     H
C         0.84   0.0444   0.6534     C
C       0.8414   0.4698  0.85149     C
Co     0.84432  0.44353  0.42199    Co
H       0.8447    0.343    0.526     H
H       0.8453   0.0752    0.255     H
C       0.8472   0.8738   0.6609     C
C       0.8495   0.8354   0.0117     C
O        0.854   0.1738  0.09254     O
C       0.8576   0.3134   0.0353     C
O       0.8593   0.9535  0.07966     O
C       0.8618   0.4504   0.9776     C
H       0.8683    0.589   0.3542     H
H       0.8685   0.1876   0.3241     H
C       0.8752   0.8155   0.9613     C
C       0.8876   0.1355   0.2496     C
Co     0.90187  0.05392  0.13867    Co
C       0.9019   0.2021   0.2913     C
H       0.9023   0.5987   0.5065     H
H       0.9065   0.4976   0.9584     H
H       0.9112   0.6304    0.409     H
C       0.9135   0.9151  0.04221     C
O       0.9163    0.573  0.38498     O
C       0.9205   0.2322   0.0656     C
C       0.9211   0.3773   0.0051     C
O       0.9256   0.3495  0.36743     O
N       0.9317   0.1544  0.20251     N
H       0.9338   0.8529   0.9437     H
H       0.9457   0.8667   0.2709     H
O       0.9508   0.9363  0.18377     O
C       0.9587   0.0517  0.65103     C
C       0.9662   0.2898   0.2835     C
C       0.9709   0.8757   0.6606     C
O       0.9715   0.7305  0.43667     O
C       0.9731   0.4663  0.84475     C
H       0.9746   0.7536    0.337     H
C       0.9805   0.3654  0.32683     C
O       0.9842   0.4363  0.47309     O
H       0.9851   0.3157    0.836     H
C       0.9892   0.8074   0.2645     C
C        0.993   0.2396    0.196     C
H        0.995    0.115   0.6465     H
H       0.9958   0.8717    0.497     H
