data_I
_chemical_name_common  '/home/zhangsd/repos/MofS-CGCNN/ML/data/SSD/clean_cifs/VEDGIW_clean'
_cell_length_a 11.46590
_cell_length_b 13.27320
_cell_length_c 26.12010
_cell_angle_alpha 90.00000
_cell_angle_beta  90.00000
_cell_angle_gamma 90.00000
_space_group_name_H-M_alt      'P 1'


loop_
_space_group_symop_operation_xyz
  'x, y, z' 

loop_
_atom_site_label
_atom_site_fract_x
_atom_site_fract_y
_atom_site_fract_z
_atom_site_type_symbol
H       0.0053   0.3855   0.1459     H
C       0.0073   0.7665   0.8028     C
O       0.0098   0.2795   0.5613     O
O       0.0115   0.5658   0.5294     O
H       0.0127   0.6392    0.997     H
C       0.0132   0.1987   0.7364     C
H       0.0149   0.6848   0.1703     H
C       0.0197   0.6388   0.6736     C
H       0.0258   0.2538   0.6645     H
C       0.0266   0.1238   0.3353     C
C        0.033   0.5351   0.1561     C
C        0.033   0.9481   0.3489     C
C       0.0356   0.7147   0.7164     C
O       0.0522   0.0685   0.8164     O
H        0.061   0.1413   0.7307     H
N       0.0726   0.8498   0.7963     N
O        0.076   0.6513   0.6336     O
O       0.0762    0.428  0.61521     O
H       0.0789     0.37   0.5914     H
H       0.0815   0.1412   0.0559     H
C       0.0906   0.0884   0.9552     C
H       0.0911   0.4048   0.4897     H
C        0.095   0.6319   0.9948     C
C        0.097   0.7741   0.9331     C
C       0.1043   0.8002   0.7096     C
Co     0.10516  0.95032  0.85991    Co
H       0.1058    0.515   0.0446     H
C       0.1182   0.8658   0.7502     C
H       0.1242   0.4106   0.6455     H
C       0.1339    0.184   0.0379     C
H       0.1408   0.8132   0.6776     H
O       0.1445   0.0523  0.91832     O
C       0.1466   0.1234   0.3349     C
C       0.1512   0.5582   0.0236     C
Co     0.15121  0.55571  0.57833    Co
C       0.1514   0.1714   0.9861     C
C       0.1535    0.951   0.3464     C
C       0.1577   0.6936   0.9633     C
O       0.1584   0.8289    0.905     O
H       0.1626   0.9253   0.7449     H
C       0.1643   0.5325   0.1484     C
H       0.1724   0.6416   0.4714     H
C       0.1731   0.3955   0.4915     C
H       0.1751    0.281   0.4393     H
H       0.1794   0.2646   0.0988     H
H       0.1864   0.1856   0.3306     H
C       0.1918   0.2578    0.063     C
H       0.1966     0.89    0.349     H
O       0.2043   0.4562   0.1271     O
N       0.2106   0.0387   0.3405     N
C       0.2209   0.6881   0.4891     C
O       0.2221   0.6086   0.1618     O
C       0.2224   0.3211   0.4612     C
C       0.2248    0.237   0.9619     C
N       0.2323   0.4539   0.5226     N
N       0.2345   0.6785   0.5402     N
H       0.2383   0.2308   0.9262     H
H       0.2617   0.7692   0.4262     H
N       0.2655   0.3215   0.0402     N
N       0.2677   0.5461   0.0226     N
C       0.2752    0.763   0.4619     C
C       0.2776   0.6789   0.9612     C
O       0.2779   0.3914   0.6618     O
C       0.2791   0.3119   0.9891     C
N       0.2894   0.9613   0.8405     N
O       0.2957   0.5438   0.6271     O
H       0.3034     0.11    0.849     H
C       0.3082   0.7422    0.563     C
H       0.3136   0.8144   0.8306     H
H       0.3206   0.7354   0.5988     H
H       0.3249    0.719   0.9393     H
C       0.3269   0.6045   0.9915     C
H       0.3276   0.3584   0.9714     H
C       0.3357   0.4675   0.6484     C
H       0.3374   0.0747   0.2449     H
O       0.3416   0.1711    0.405     O
C       0.3423   0.3064   0.4633     C
C       0.3465    0.049   0.8464     C
C       0.3486   0.8286   0.4861     C
Co     0.34879  0.44429  0.07833    Co
C       0.3488   0.4418   0.5236     C
C       0.3534   0.8766   0.8349     C
O       0.3555   0.9477  0.41832     O
H       0.3592   0.1868   0.1776     H
C       0.3661    0.816   0.5379     C
H       0.3758   0.5894   0.1455     H
C       0.3818   0.1342   0.2502     C
H       0.3942    0.485   0.5446     H
Co     0.39484  0.04968  0.35991    Co
C       0.3957   0.1998   0.2096     C
C        0.403   0.2259   0.4331     C
C        0.405   0.3681   0.4948     C
H       0.4089   0.5952   0.9897     H
C       0.4094   0.9116   0.4552     C
H       0.4185   0.8588   0.5559     H
H       0.4211     0.63   0.0914     H
O       0.4238    0.572  0.11521     O
O        0.424   0.3487   0.1336     O
N       0.4274   0.1502   0.2963     N
H        0.439   0.8587   0.2307     H
O       0.4478   0.9315   0.3164     O
C       0.4644   0.2853   0.2164     C
C        0.467   0.0519   0.8489     C
C        0.467   0.4649   0.6561     C
C       0.4734   0.8762   0.8353     C
H       0.4742   0.7462   0.1645     H
C       0.4803   0.3612   0.1736     C
H       0.4851   0.3152   0.6703     H
C       0.4868   0.8013   0.2364     C
H       0.4873   0.3608    0.497     H
O       0.4885   0.4342   0.0294     O
O       0.4902   0.7205   0.0613     O
C       0.4927   0.2335   0.3028     C
H       0.4947   0.6145   0.6459     H
H       0.5053   0.1145   0.8541     H
C       0.5073   0.7335   0.1972     C
O       0.5098   0.2205   0.4387     O
O       0.5115   0.9342   0.4706     O
H       0.5127   0.8608    0.003     H
C       0.5132   0.3013   0.2636     C
H       0.5149   0.8152   0.8297     H
C       0.5197   0.8612   0.3264     C
H       0.5258   0.2462   0.3355     H
C       0.5266   0.3762   0.6647     C
C        0.533   0.5519   0.6511     C
C        0.533   0.9649   0.8439     C
C       0.5356   0.7853   0.2836     C
O       0.5522   0.4315   0.1836     O
H        0.561   0.3587   0.2693     H
N       0.5726   0.6502   0.2037     N
O        0.576   0.8487   0.3664     O
O       0.5762    0.072  0.38479     O
H       0.5789     0.13   0.4086     H
H       0.5815   0.3588   0.9441     H
C       0.5906   0.4116   0.0448     C
H       0.5911   0.0952   0.5103     H
C        0.595   0.8681   0.0052     C
C        0.597   0.7259   0.0669     C
C       0.6043   0.6998   0.2904     C
Co     0.60516  0.54968  0.14009    Co
H       0.6058    0.985   0.9554     H
C       0.6182   0.6342   0.2498     C
H       0.6242   0.0894   0.3545     H
C       0.6339    0.316   0.9621     C
H       0.6408   0.6868   0.3224     H
O       0.6445   0.4477  0.08168     O
C       0.6466   0.3766   0.6651     C
C       0.6512   0.9418   0.9764     C
Co     0.65121  0.94429  0.42167    Co
C       0.6514   0.3286   0.0139     C
C       0.6535    0.549   0.6536     C
C       0.6577   0.8064   0.0367     C
O       0.6584   0.6711    0.095     O
H       0.6626   0.5747   0.2551     H
C       0.6643   0.9675   0.8516     C
H       0.6724   0.8584   0.5286     H
C       0.6731   0.1045   0.5085     C
H       0.6751    0.219   0.5607     H
H       0.6794   0.2354   0.9012     H
H       0.6864   0.3144   0.6694     H
C       0.6918   0.2422    0.937     C
H       0.6966     0.61    0.651     H
O       0.7043   0.0438   0.8729     O
N       0.7106   0.4613   0.6595     N
C       0.7209   0.8119   0.5109     C
O       0.7221   0.8914   0.8382     O
C       0.7224   0.1789   0.5388     C
C       0.7248    0.263   0.0381     C
N       0.7323   0.0461   0.4774     N
N       0.7345   0.8215   0.4598     N
H       0.7383   0.2692   0.0738     H
H       0.7617   0.7308   0.5738     H
N       0.7655   0.1785   0.9598     N
N       0.7677   0.9539   0.9774     N
C       0.7752    0.737   0.5381     C
C       0.7776   0.8211   0.0388     C
O       0.7779   0.1086   0.3382     O
C       0.7791   0.1881   0.0109     C
N       0.7894   0.5387   0.1595     N
O       0.7957   0.9562   0.3729     O
H       0.8034     0.39    0.151     H
C       0.8082   0.7578    0.437     C
H       0.8136   0.6856   0.1694     H
H       0.8206   0.7646   0.4012     H
H       0.8249    0.781   0.0607     H
C       0.8269   0.8955   0.0085     C
H       0.8276   0.1416   0.0286     H
C       0.8357   0.0325   0.3516     C
H       0.8374   0.4253   0.7551     H
O       0.8416   0.3289    0.595     O
C       0.8423   0.1936   0.5367     C
C       0.8465    0.451   0.1536     C
C       0.8486   0.6714   0.5139     C
Co     0.84879  0.05571  0.92167    Co
C       0.8488   0.0582   0.4764     C
C       0.8534   0.6234   0.1651     C
O       0.8555   0.5523  0.58168     O
H       0.8592   0.3132   0.8224     H
C       0.8661    0.684   0.4621     C
H       0.8758   0.9106   0.8545     H
C       0.8818   0.3658   0.7498     C
H       0.8942    0.015   0.4554     H
Co     0.89484  0.45032  0.64009    Co
C       0.8957   0.3002   0.7904     C
C        0.903   0.2741   0.5669     C
C        0.905   0.1319   0.5052     C
H       0.9089   0.9048   0.0103     H
C       0.9094   0.5884   0.5448     C
H       0.9185   0.6412   0.4441     H
H       0.9211     0.87   0.9086     H
O       0.9238    0.928  0.88479     O
O        0.924   0.1513   0.8664     O
N       0.9274   0.3498   0.7037     N
H        0.939   0.6413   0.7693     H
O       0.9478   0.5685   0.6836     O
C       0.9644   0.2147   0.7836     C
C        0.967   0.0351   0.3439     C
C        0.967   0.4481   0.1511     C
C       0.9734   0.6238   0.1647     C
H       0.9742   0.7538   0.8355     H
C       0.9803   0.1388   0.8264     C
H       0.9851   0.1848   0.3297     H
C       0.9868   0.6987   0.7636     C
H       0.9873   0.1392    0.503     H
O       0.9885   0.0658   0.9706     O
O       0.9902   0.7795   0.9387     O
C       0.9927   0.2665   0.6972     C
H       0.9947   0.8855   0.3541     H
