data_I
_chemical_name_common  '/home/zhangsd/repos/MofS-CGCNN/ML/data/SSD/clean_cifs/VEHLEA01_clean'
_cell_length_a 15.78300
_cell_length_b  8.37800
_cell_length_c 15.95500
_cell_angle_alpha 90.00000
_cell_angle_beta  111.50000
_cell_angle_gamma 90.00000
_space_group_name_H-M_alt      'P 1'


loop_
_space_group_symop_operation_xyz
  'x, y, z' 

loop_
_atom_site_label
_atom_site_fract_x
_atom_site_fract_y
_atom_site_fract_z
_atom_site_type_symbol
Zn         0.0  0.13092     0.75    Zn
Zn         0.0  0.86908     0.25    Zn
P      0.02115  0.12698  0.40041     P
P      0.02115  0.87302  0.90041     P
O      0.02493   0.0146  0.65771     O
O      0.02493   0.9854  0.15771     O
O      0.04239    0.218    0.066     O
O      0.04239    0.782    0.566     O
H       0.0481    0.225   0.3526     H
H       0.0481    0.775   0.8526     H
O      0.10937   0.0783  0.47654     O
O      0.10937   0.9217  0.97654     O
H       0.1104    0.498   0.3416     H
H       0.1104    0.502   0.8416     H
O      0.11171   0.2528  0.78635     O
O      0.11171   0.7472  0.28635     O
Zn     0.13672  0.13895  0.02548    Zn
Zn     0.13672  0.86105  0.52548    Zn
O       0.1439   0.3141  0.95038     O
O       0.1439   0.6859  0.45038     O
P      0.15472  0.36638  0.86453     P
P      0.15472  0.63362  0.36453     P
O      0.24892   0.0957   0.1266     O
O      0.24892   0.9043   0.6266     O
O      0.25108   0.4043   0.8734     O
O      0.25108   0.5957   0.3734     O
P      0.34528  0.13362  0.13547     P
P      0.34528  0.86638  0.63547     P
O       0.3561   0.1859  0.04962     O
O       0.3561   0.8141  0.54962     O
Zn     0.36328  0.36105  0.97452    Zn
Zn     0.36328  0.63895  0.47452    Zn
O      0.38829   0.2472  0.21365     O
O      0.38829   0.7528  0.71365     O
H       0.3896    0.002   0.6584     H
H       0.3896    0.998   0.1584     H
O      0.39063   0.4217  0.52346     O
O      0.39063   0.5783  0.02346     O
H       0.4519    0.275   0.6474     H
H       0.4519    0.725   0.1474     H
O      0.45761    0.282    0.934     O
O      0.45761    0.718    0.434     O
O      0.47507   0.4854  0.34229     O
O      0.47507   0.5146  0.84229     O
P      0.47885  0.37302  0.59959     P
P      0.47885  0.62698  0.09959     P
Zn         0.5  0.36908     0.25    Zn
Zn         0.5  0.63092     0.75    Zn
P      0.52115  0.37302  0.90041     P
P      0.52115  0.62698  0.40041     P
O      0.52493   0.4854  0.15771     O
O      0.52493   0.5146  0.65771     O
O      0.54239    0.282    0.566     O
O      0.54239    0.718    0.066     O
H       0.5481    0.275   0.8526     H
H       0.5481    0.725   0.3526     H
O      0.60937   0.4217  0.97654     O
O      0.60937   0.5783  0.47654     O
H       0.6104    0.002   0.8416     H
H       0.6104    0.998   0.3416     H
O      0.61171   0.2472  0.28635     O
O      0.61171   0.7528  0.78635     O
Zn     0.63672  0.36105  0.52548    Zn
Zn     0.63672  0.63895  0.02548    Zn
O       0.6439   0.1859  0.45038     O
O       0.6439   0.8141  0.95038     O
P      0.65472  0.13362  0.36453     P
P      0.65472  0.86638  0.86453     P
O      0.74892   0.4043   0.6266     O
O      0.74892   0.5957   0.1266     O
O      0.75108   0.0957   0.3734     O
O      0.75108   0.9043   0.8734     O
P      0.84528  0.36638  0.63547     P
P      0.84528  0.63362  0.13547     P
O       0.8561   0.3141  0.54962     O
O       0.8561   0.6859  0.04962     O
Zn     0.86328  0.13895  0.47452    Zn
Zn     0.86328  0.86105  0.97452    Zn
O      0.88829   0.2528  0.71365     O
O      0.88829   0.7472  0.21365     O
H       0.8896    0.498   0.1584     H
H       0.8896    0.502   0.6584     H
O      0.89063   0.0783  0.02346     O
O      0.89063   0.9217  0.52346     O
H       0.9519    0.225   0.1474     H
H       0.9519    0.775   0.6474     H
O      0.95761    0.218    0.434     O
O      0.95761    0.782    0.934     O
O      0.97507   0.0146  0.84229     O
O      0.97507   0.9854  0.34229     O
P      0.97885  0.12698  0.09959     P
P      0.97885  0.87302  0.59959     P
