data_I
_chemical_name_common  '/home/zhangsd/repos/MofS-CGCNN/ML/data/SSD/clean_cifs/VEHLEA_clean'
_cell_length_a 15.78910
_cell_length_b  8.43060
_cell_length_c 16.13580
_cell_angle_alpha 90.00000
_cell_angle_beta  112.35700
_cell_angle_gamma 90.00000
_space_group_name_H-M_alt      'P 1'


loop_
_space_group_symop_operation_xyz
  'x, y, z' 

loop_
_atom_site_label
_atom_site_fract_x
_atom_site_fract_y
_atom_site_fract_z
_atom_site_type_symbol
Zn         0.0  0.12722     0.25    Zn
Zn         0.0  0.87278     0.75    Zn
P       0.0204  0.12739  0.90048     P
P       0.0204  0.87261  0.40048     P
O       0.0252    0.011   0.1594     O
O       0.0252    0.989   0.6594     O
O       0.0443   0.2134   0.5675     O
O       0.0443   0.7866   0.0675     O
H        0.048    0.238    0.853     H
H        0.048    0.762    0.353     H
O       0.1077    0.078   0.9762     O
O       0.1077    0.922   0.4762     O
O       0.1102   0.2529   0.2863     O
O       0.1102   0.7471   0.7863     O
H        0.114    0.499    0.844     H
H        0.114    0.501    0.344     H
Zn     0.13644  0.13754  0.52447    Zn
Zn     0.13644  0.86246  0.02447    Zn
O       0.1397   0.3088   0.4481     O
O       0.1397   0.6912   0.9481     O
P      0.15252   0.3626  0.36492     P
P      0.15252   0.6374  0.86492     P
O       0.2493   0.4002   0.3761     O
O       0.2493   0.5998   0.8761     O
O       0.2507   0.0998   0.6239     O
O       0.2507   0.9002   0.1239     O
P      0.34748   0.1374  0.63508     P
P      0.34748   0.8626  0.13508     P
O       0.3603   0.1912   0.5519     O
O       0.3603   0.8088   0.0519     O
Zn     0.36356  0.36246  0.47553    Zn
Zn     0.36356  0.63754  0.97553    Zn
H        0.386    0.001    0.156     H
H        0.386    0.999    0.656     H
O       0.3898   0.2471   0.7137     O
O       0.3898   0.7529   0.2137     O
O       0.3923    0.422   0.0238     O
O       0.3923    0.578   0.5238     O
H        0.452    0.262    0.147     H
H        0.452    0.738    0.647     H
O       0.4557   0.2866   0.4325     O
O       0.4557   0.7134   0.9325     O
O       0.4748    0.489   0.8406     O
O       0.4748    0.511   0.3406     O
P       0.4796  0.37261  0.09952     P
P       0.4796  0.62739  0.59952     P
Zn         0.5  0.37278     0.75    Zn
Zn         0.5  0.62722     0.25    Zn
P       0.5204  0.37261  0.40048     P
P       0.5204  0.62739  0.90048     P
O       0.5252    0.489   0.6594     O
O       0.5252    0.511   0.1594     O
O       0.5443   0.2866   0.0675     O
O       0.5443   0.7134   0.5675     O
H        0.548    0.262    0.353     H
H        0.548    0.738    0.853     H
O       0.6077    0.422   0.4762     O
O       0.6077    0.578   0.9762     O
O       0.6102   0.2471   0.7863     O
O       0.6102   0.7529   0.2863     O
H        0.614    0.001    0.344     H
H        0.614    0.999    0.844     H
Zn     0.63644  0.36246  0.02447    Zn
Zn     0.63644  0.63754  0.52447    Zn
O       0.6397   0.1912   0.9481     O
O       0.6397   0.8088   0.4481     O
P      0.65252   0.1374  0.86492     P
P      0.65252   0.8626  0.36492     P
O       0.7493   0.0998   0.8761     O
O       0.7493   0.9002   0.3761     O
O       0.7507   0.4002   0.1239     O
O       0.7507   0.5998   0.6239     O
P      0.84748   0.3626  0.13508     P
P      0.84748   0.6374  0.63508     P
O       0.8603   0.3088   0.0519     O
O       0.8603   0.6912   0.5519     O
Zn     0.86356  0.13754  0.97553    Zn
Zn     0.86356  0.86246  0.47553    Zn
H        0.886    0.499    0.656     H
H        0.886    0.501    0.156     H
O       0.8898   0.2529   0.2137     O
O       0.8898   0.7471   0.7137     O
O       0.8923    0.078   0.5238     O
O       0.8923    0.922   0.0238     O
H        0.952    0.238    0.647     H
H        0.952    0.762    0.147     H
O       0.9557   0.2134   0.9325     O
O       0.9557   0.7866   0.4325     O
O       0.9748    0.011   0.3406     O
O       0.9748    0.989   0.8406     O
P       0.9796  0.12739  0.59952     P
P       0.9796  0.87261  0.09952     P
