data_I
_chemical_name_common  '/home/zhangsd/repos/MofS-CGCNN/ML/data/SSD/clean_cifs/VEHPUU_clean'
_cell_length_a  4.71090
_cell_length_b 11.00200
_cell_length_c 31.85800
_cell_angle_alpha 90.00000
_cell_angle_beta  90.00000
_cell_angle_gamma 96.00800
_space_group_name_H-M_alt      'P 1'


loop_
_space_group_symop_operation_xyz
  'x, y, z' 

loop_
_atom_site_label
_atom_site_fract_x
_atom_site_fract_y
_atom_site_fract_z
_atom_site_type_symbol
O      0.01927  0.06993   0.8003     O
O      0.01927  0.56993   0.6997     O
C       0.0317   0.4428   0.2084     C
C       0.0317   0.9428   0.2916     C
H       0.0532   0.2027   0.4384     H
H       0.0532   0.7027   0.0616     H
O      0.10582  0.48899  0.80276     O
O      0.10582  0.98899  0.69724     O
C      0.11732  0.01945  0.49341     C
C      0.11732  0.51945  0.00659     C
C       0.1534   0.1432   0.4248     C
C       0.1534   0.6432   0.0752     C
C       0.1552   0.1753   0.7121     C
C       0.1552   0.6753   0.7879     C
C       0.2029   0.0363   0.4459     C
C       0.2029   0.5363   0.0541     C
C       0.2165    0.177   0.7947     C
C       0.2165    0.677   0.7053     C
H       0.2175   0.2356   0.3694     H
H       0.2175   0.7356   0.1306     H
N       0.2233   0.2264   0.6743     N
N       0.2233   0.7264   0.8257     N
C       0.2511   0.1628   0.3838     C
C       0.2511   0.6628   0.1162     C
H       0.2667   0.0394    0.513     H
H       0.2667   0.5394    0.987     H
C       0.2674   0.2294   0.7493     C
C       0.2674   0.7294   0.7507     C
O      0.29181  0.49211  0.21735     O
O      0.29181  0.99211  0.28265     O
O      0.31485  0.24416  0.82296     O
O      0.31485  0.74416  0.67704     O
C         0.35    0.449    0.074     C
C         0.35    0.949    0.426     C
H       0.3687    0.039   0.2081     H
H       0.3687    0.539   0.2919     H
H       0.3837   0.3762   0.0596     H
H       0.3837   0.8762   0.4404     H
C       0.3975   0.3286   0.6733     C
C       0.3975   0.8286   0.8267     C
N       0.3983   0.0754   0.3639     N
N       0.3983   0.5754   0.1361     N
N       0.4395    0.334   0.7481     N
N       0.4395    0.834   0.7519     N
C       0.4477   0.4685    0.115     C
C       0.4477   0.9685    0.385     C
H       0.4489   0.3641   0.6468     H
H       0.4489   0.8641   0.8532     H
H       0.4521   0.0909   0.6286     H
H       0.4521   0.5909   0.8714     H
C       0.4905   0.1133   0.2098     C
C       0.4905   0.6133   0.2902     C
Cu       0.499    0.089   0.3042    Cu
Cu       0.499    0.589   0.1958    Cu
Cu       0.501    0.411   0.8042    Cu
Cu       0.501    0.911   0.6958    Cu
C       0.5095   0.3867   0.7098     C
C       0.5095   0.8867   0.7902     C
H       0.5479   0.4091   0.1286     H
H       0.5479   0.9091   0.3714     H
H       0.5511   0.1359   0.1468     H
H       0.5511   0.6359   0.3532     H
C       0.5523   0.0315    0.615     C
C       0.5523   0.5315    0.885     C
N       0.5605    0.166   0.2481     N
N       0.5605    0.666   0.2519     N
N       0.6017   0.4246   0.8639     N
N       0.6017   0.9246   0.6361     N
C       0.6025   0.1714   0.1733     C
C       0.6025   0.6714   0.3267     C
H       0.6163   0.1238   0.5596     H
H       0.6163   0.6238   0.9404     H
H       0.6313    0.461   0.7081     H
H       0.6313    0.961   0.7919     H
C         0.65    0.051    0.574     C
C         0.65    0.551    0.926     C
O      0.68515  0.25584  0.32296     O
O      0.68515  0.75584  0.17704     O
O      0.70819  0.00789  0.71735     O
O      0.70819  0.50789  0.78265     O
C       0.7326   0.2706   0.2493     C
C       0.7326   0.7706   0.2507     C
H       0.7333   0.4606    0.013     H
H       0.7333   0.9606    0.487     H
C       0.7489   0.3372   0.8838     C
C       0.7489   0.8372   0.6162     C
N       0.7767   0.2736   0.1743     N
N       0.7767   0.7736   0.3257     N
H       0.7825   0.2644   0.8694     H
H       0.7825   0.7644   0.6306     H
C       0.7835    0.323   0.2947     C
C       0.7835    0.823   0.2053     C
C       0.7971   0.4637   0.9459     C
C       0.7971   0.9637   0.5541     C
C       0.8448   0.3247   0.2121     C
C       0.8448   0.8247   0.2879     C
C       0.8466   0.3568   0.9248     C
C       0.8466   0.8568   0.5752     C
C      0.88268  0.48055  0.99341     C
C      0.88268  0.98055  0.50659     C
O      0.89418  0.01101  0.30276     O
O      0.89418  0.51101  0.19724     O
H       0.9468   0.2973   0.9384     H
H       0.9468   0.7973   0.5616     H
C       0.9683   0.0572   0.7084     C
C       0.9683   0.5572   0.7916     C
O      0.98073  0.43007   0.3003     O
O      0.98073  0.93007   0.1997     O
