data_I
_chemical_name_common  '/home/zhangsd/repos/MofS-CGCNN/ML/data/SSD/clean_cifs/VEMSUC01_clean'
_cell_length_a 14.06360
_cell_length_b 15.91520
_cell_length_c 16.58580
_cell_angle_alpha 90.00000
_cell_angle_beta  90.00000
_cell_angle_gamma 90.00000
_space_group_name_H-M_alt      'P 1'


loop_
_space_group_symop_operation_xyz
  'x, y, z' 

loop_
_atom_site_label
_atom_site_fract_x
_atom_site_fract_y
_atom_site_fract_z
_atom_site_type_symbol
Ni         0.0      0.0      0.0    Ni
Ni         0.0      0.5      0.5    Ni
O      0.00237   0.1314  0.00511     O
O      0.00237   0.3686  0.50511     O
Ni     0.02096  0.18251  0.89336    Ni
Ni     0.02096  0.31749  0.39336    Ni
O      0.04497  0.22877  0.30538     O
O      0.04497  0.27123  0.80538     O
H       0.0452   0.7412   0.3575     H
H       0.0452   0.7588   0.8575     H
C       0.0499  0.69285   0.4719     C
C       0.0499  0.80715   0.9719     C
O      0.06409  0.00261   0.1089     O
O      0.06409  0.49739   0.6089     O
H       0.0682   0.1023   0.2218     H
H       0.0682   0.3977   0.7218     H
O      0.06826  0.74979  0.52019     O
O      0.06826  0.75021  0.02019     O
H       0.0706   0.6433   0.3593     H
H       0.0706   0.8567   0.8593     H
C       0.0815   0.6976   0.3855     C
C       0.0815   0.8024   0.8855     C
O      0.09141  0.62632  0.65982     O
O      0.09141  0.87368  0.15982     O
C       0.0962  0.54683  0.65954     C
C       0.0962  0.95317  0.15954     C
C       0.1073  0.19382   0.3497     C
C       0.1073  0.30618   0.8497     C
C       0.1138  0.07383  0.25408     C
C       0.1138  0.42617  0.75408     C
O      0.11799  0.10266  0.84818     O
O      0.11799  0.39734  0.34818     O
O      0.13047   0.2247  0.41659     O
O      0.13047   0.2753  0.91659     O
O      0.13107  0.00558  0.94679     O
O      0.13107  0.49442  0.44679     O
C        0.144   0.5065  0.73144     C
C        0.144   0.9935  0.23144     C
C        0.149   0.1127  0.32273     C
C        0.149   0.3873  0.82273     C
H       0.1494   0.7113   0.3835     H
H       0.1494   0.7887   0.8835     H
C       0.1566  0.04072  0.88255     C
C       0.1566  0.45928  0.38255     C
C        0.216  0.54509   0.7754     C
C        0.216  0.95491   0.2754     C
C        0.221  0.07275  0.36604     C
C        0.221  0.42725  0.86604     C
H       0.2374   0.5995   0.7604     H
H       0.2374   0.9005   0.2604     H
C        0.243   0.0045  0.84118     C
C        0.243   0.4955  0.34118     C
H       0.2459   0.0986   0.4131     H
H       0.2459   0.4014   0.9131     H
H       0.2541   0.5986   0.4131     H
H       0.2541   0.9014   0.9131     H
C        0.257   0.5045  0.84118     C
C        0.257   0.9955  0.34118     C
H       0.2626   0.0995   0.7604     H
H       0.2626   0.4005   0.2604     H
C        0.279  0.57275  0.36604     C
C        0.279  0.92725  0.86604     C
C        0.284  0.04509   0.7754     C
C        0.284  0.45491   0.2754     C
C       0.3434  0.54072  0.88255     C
C       0.3434  0.95928  0.38255     C
H       0.3506   0.2113   0.3835     H
H       0.3506   0.2887   0.8835     H
C        0.351   0.6127  0.32273     C
C        0.351   0.8873  0.82273     C
C        0.356   0.0065  0.73144     C
C        0.356   0.4935  0.23144     C
O      0.36893  0.50558  0.94679     O
O      0.36893  0.99442  0.44679     O
O      0.36953   0.7247  0.41659     O
O      0.36953   0.7753  0.91659     O
O      0.38201  0.60266  0.84818     O
O      0.38201  0.89734  0.34818     O
C       0.3862  0.57383  0.25408     C
C       0.3862  0.92617  0.75408     C
C       0.3927  0.69382   0.3497     C
C       0.3927  0.80618   0.8497     C
C       0.4038  0.04683  0.65954     C
C       0.4038  0.45317  0.15954     C
O      0.40859  0.12632  0.65982     O
O      0.40859  0.37368  0.15982     O
C       0.4185   0.1976   0.3855     C
C       0.4185   0.3024   0.8855     C
H       0.4294   0.1433   0.3593     H
H       0.4294   0.3567   0.8593     H
O      0.43174  0.24979  0.52019     O
O      0.43174  0.25021  0.02019     O
H       0.4318   0.6023   0.2218     H
H       0.4318   0.8977   0.7218     H
O      0.43591  0.50261   0.1089     O
O      0.43591  0.99739   0.6089     O
C       0.4501  0.19285   0.4719     C
C       0.4501  0.30715   0.9719     C
H       0.4548   0.2412   0.3575     H
H       0.4548   0.2588   0.8575     H
O      0.45503  0.72877  0.30538     O
O      0.45503  0.77123  0.80538     O
Ni     0.47904  0.68251  0.89336    Ni
Ni     0.47904  0.81749  0.39336    Ni
O      0.49763   0.6314  0.00511     O
O      0.49763   0.8686  0.50511     O
Ni         0.5      0.0      0.5    Ni
Ni         0.5      0.5      0.0    Ni
O      0.50237   0.1314  0.49489     O
O      0.50237   0.3686  0.99489     O
Ni     0.52096  0.18251  0.60664    Ni
Ni     0.52096  0.31749  0.10664    Ni
O      0.54497  0.22877  0.19462     O
O      0.54497  0.27123  0.69462     O
H       0.5452   0.7412   0.1425     H
H       0.5452   0.7588   0.6425     H
C       0.5499  0.69285   0.0281     C
C       0.5499  0.80715   0.5281     C
O      0.56409  0.00261   0.3911     O
O      0.56409  0.49739   0.8911     O
H       0.5682   0.1023   0.2782     H
H       0.5682   0.3977   0.7782     H
O      0.56826  0.74979  0.97981     O
O      0.56826  0.75021  0.47981     O
H       0.5706   0.6433   0.1407     H
H       0.5706   0.8567   0.6407     H
C       0.5815   0.6976   0.1145     C
C       0.5815   0.8024   0.6145     C
O      0.59141  0.62632  0.84018     O
O      0.59141  0.87368  0.34018     O
C       0.5962  0.54683  0.84046     C
C       0.5962  0.95317  0.34046     C
C       0.6073  0.19382   0.1503     C
C       0.6073  0.30618   0.6503     C
C       0.6138  0.07383  0.24592     C
C       0.6138  0.42617  0.74592     C
O      0.61799  0.10266  0.65182     O
O      0.61799  0.39734  0.15182     O
O      0.63047   0.2247  0.08341     O
O      0.63047   0.2753  0.58341     O
O      0.63107  0.00558  0.55321     O
O      0.63107  0.49442  0.05321     O
C        0.644   0.5065  0.76856     C
C        0.644   0.9935  0.26856     C
C        0.649   0.1127  0.17727     C
C        0.649   0.3873  0.67727     C
H       0.6494   0.7113   0.1165     H
H       0.6494   0.7887   0.6165     H
C       0.6566  0.04072  0.61745     C
C       0.6566  0.45928  0.11745     C
C        0.716  0.54509   0.7246     C
C        0.716  0.95491   0.2246     C
C        0.721  0.07275  0.13396     C
C        0.721  0.42725  0.63396     C
H       0.7374   0.5995   0.7396     H
H       0.7374   0.9005   0.2396     H
C        0.743   0.0045  0.65882     C
C        0.743   0.4955  0.15882     C
H       0.7459   0.0986   0.0869     H
H       0.7459   0.4014   0.5869     H
H       0.7541   0.5986   0.0869     H
H       0.7541   0.9014   0.5869     H
C        0.757   0.5045  0.65882     C
C        0.757   0.9955  0.15882     C
H       0.7626   0.0995   0.7396     H
H       0.7626   0.4005   0.2396     H
C        0.779  0.57275  0.13396     C
C        0.779  0.92725  0.63396     C
C        0.784  0.04509   0.7246     C
C        0.784  0.45491   0.2246     C
C       0.8434  0.54072  0.61745     C
C       0.8434  0.95928  0.11745     C
H       0.8506   0.2113   0.1165     H
H       0.8506   0.2887   0.6165     H
C        0.851   0.6127  0.17727     C
C        0.851   0.8873  0.67727     C
C        0.856   0.0065  0.76856     C
C        0.856   0.4935  0.26856     C
O      0.86893  0.50558  0.55321     O
O      0.86893  0.99442  0.05321     O
O      0.86953   0.7247  0.08341     O
O      0.86953   0.7753  0.58341     O
O      0.88201  0.60266  0.65182     O
O      0.88201  0.89734  0.15182     O
C       0.8862  0.57383  0.24592     C
C       0.8862  0.92617  0.74592     C
C       0.8927  0.69382   0.1503     C
C       0.8927  0.80618   0.6503     C
C       0.9038  0.04683  0.84046     C
C       0.9038  0.45317  0.34046     C
O      0.90859  0.12632  0.84018     O
O      0.90859  0.37368  0.34018     O
C       0.9185   0.1976   0.1145     C
C       0.9185   0.3024   0.6145     C
H       0.9294   0.1433   0.1407     H
H       0.9294   0.3567   0.6407     H
O      0.93174  0.24979  0.97981     O
O      0.93174  0.25021  0.47981     O
H       0.9318   0.6023   0.2782     H
H       0.9318   0.8977   0.7782     H
O      0.93591  0.50261   0.3911     O
O      0.93591  0.99739   0.8911     O
C       0.9501  0.19285   0.0281     C
C       0.9501  0.30715   0.5281     C
H       0.9548   0.2412   0.1425     H
H       0.9548   0.2588   0.6425     H
O      0.95503  0.72877  0.19462     O
O      0.95503  0.77123  0.69462     O
Ni     0.97904  0.68251  0.60664    Ni
Ni     0.97904  0.81749  0.10664    Ni
O      0.99763   0.6314  0.49489     O
O      0.99763   0.8686  0.99489     O
