data_I
_chemical_name_common  '/home/zhangsd/repos/MofS-CGCNN/ML/data/SSD/clean_cifs/VERZUP_clean'
_cell_length_a  7.68920
_cell_length_b  7.73850
_cell_length_c 13.02050
_cell_angle_alpha 90.00000
_cell_angle_beta  90.00000
_cell_angle_gamma 90.00000
_space_group_name_H-M_alt      'P 1'


loop_
_space_group_symop_operation_xyz
  'x, y, z' 

loop_
_atom_site_label
_atom_site_fract_x
_atom_site_fract_y
_atom_site_fract_z
_atom_site_type_symbol
H       0.0329   0.3245   0.7749     H
O      0.04955   0.6492   0.4608     O
Zn     0.05141  0.00608  0.91599    Zn
C       0.0749   0.7739  0.73711     C
O      0.10987  0.63742     0.69     O
H       0.1427   0.2234   0.4664     H
O       0.1567   0.3338  0.59153     O
O      0.16726  0.87029  0.03528     O
O      0.17455  0.84715  0.79924     O
C        0.187   0.7315   0.4637     C
C        0.206   0.2291  0.52716     C
O      0.24377   0.8267  0.39259     O
H       0.2461   0.2773    0.023     H
H       0.2539   0.7227    0.523     H
O      0.25623   0.1733  0.89259     O
C        0.294   0.7709  0.02716     C
C        0.313   0.2685   0.9637     C
O      0.32545  0.15285  0.29924     O
O      0.33274  0.12971  0.53528     O
O       0.3433   0.6662  0.09153     O
H       0.3573   0.7766   0.9664     H
O      0.39013  0.36258     0.19     O
C       0.4251   0.2261  0.23711     C
Zn     0.44859  0.99392  0.41599    Zn
O      0.45045   0.3508   0.9608     O
H       0.4671   0.6755   0.2749     H
H       0.5329   0.1755   0.2251     H
O      0.54955   0.8508   0.5392     O
Zn     0.55141  0.49392  0.08401    Zn
C       0.5749   0.7261  0.26289     C
O      0.60987  0.86258     0.31     O
H       0.6427   0.2766   0.5336     H
O       0.6567   0.1662  0.40847     O
O      0.66726  0.62971  0.96472     O
O      0.67455  0.65285  0.20076     O
C        0.687   0.7685   0.5363     C
C        0.706   0.2709  0.47284     C
O      0.74377   0.6733  0.60741     O
H       0.7461   0.2227    0.977     H
H       0.7539   0.7773    0.477     H
O      0.75623   0.3267  0.10741     O
C        0.794   0.7291  0.97284     C
C        0.813   0.2315   0.0363     C
O      0.82545  0.34715  0.70076     O
O      0.83274  0.37029  0.46472     O
O       0.8433   0.8338  0.90847     O
H       0.8573   0.7234   0.0336     H
O      0.89013  0.13742     0.81     O
C       0.9251   0.2739  0.76289     C
Zn     0.94859  0.50608  0.58401    Zn
O      0.95045   0.1492   0.0392     O
H       0.9671   0.8245   0.7251     H
