data_I
_chemical_name_common  '/home/zhangsd/repos/MofS-CGCNN/ML/data/SSD/clean_cifs/VETVAS_manual'
_cell_length_a 16.15120
_cell_length_b 16.15300
_cell_length_c 31.29910
_cell_angle_alpha 99.87700
_cell_angle_beta  99.84200
_cell_angle_gamma 96.67240
_space_group_name_H-M_alt      'P 1'


loop_
_space_group_symop_operation_xyz
  'x, y, z' 

loop_
_atom_site_label
_atom_site_fract_x
_atom_site_fract_y
_atom_site_fract_z
_atom_site_type_symbol
H       0.0031   0.8161   0.4562     H
O       0.0047   0.0771   0.0739     O
C       0.0047   0.8778   0.3246     C
C       0.0068   0.2191   0.4857     C
C       0.0072   0.6985   0.8959     C
C       0.0125   0.1184   0.7974     C
C        0.013   0.5838   0.2785     C
H       0.0147   0.9233   0.6142     H
H       0.0179   0.0912   0.3165     H
N       0.0192   0.7827   0.4745     N
H       0.0231   0.6969   0.5581     H
C       0.0246   0.8939   0.2812     C
C       0.0265   0.1513   0.0928     C
H       0.0273   0.6364    0.299     H
C       0.0276   0.5701   0.7785     C
C       0.0287   0.1206   0.3844     C
C       0.0293   0.7826    0.915     C
C       0.0304   0.1407   0.7586     C
C       0.0305   0.7144   0.5314     C
O       0.0388   0.9246   0.1246     O
H       0.0433   0.6236   0.7981     H
H       0.0478   0.3217   0.1217     H
N       0.0483   0.8085   0.3886     N
C       0.0485   0.1282   0.3428     C
C       0.0499   0.1612   0.4652     C
C       0.0502   0.4487   0.2502     C
H       0.0506   0.1415   0.8246     H
H        0.051    0.105    0.597     H
H        0.052   0.5832   0.8881     H
C       0.0583   0.8336   0.3491     C
C       0.0597    0.937   0.2029     C
C       0.0635   0.0889   0.6602     C
C       0.0664   0.6413   0.9022     C
C       0.0666   0.4327   0.7498     C
C       0.0694   0.1736   0.4219     C
C       0.0718   0.5282   0.2785     C
C       0.0728   0.7255   0.4678     C
C       0.0766    0.966   0.1623     C
N       0.0778   0.0821   0.6178     N
C        0.078   0.6805   0.5034     C
H       0.0798   0.1795   0.7594     H
C       0.0824   0.5102   0.7784     C
C        0.084   0.0937    0.484     C
H       0.0842   0.5509   0.3885     H
H       0.0843   0.4071   0.8356     H
N       0.0855   0.0852   0.5271     N
O       0.0892   0.3154   0.2253     O
O       0.0938   0.1498   0.2642     O
O       0.0947   0.1758   0.1205     O
H       0.0968    0.417   0.6647     H
C       0.0999    0.947   0.2819     C
C        0.105   0.7551   0.3964     C
C       0.1086    0.811    0.944     C
H       0.1093   0.6349   0.5068     H
C       0.1134   0.3899   0.2506     C
C       0.1143   0.1915   0.3412     C
C       0.1144    0.713   0.4315     C
C       0.1157   0.9694   0.2424     C
H       0.1204   0.0431   0.9329     H
C       0.1206   0.3659   0.8299     C
H       0.1221   0.8687   0.9589     H
C       0.1244   0.0301   0.4613     C
H       0.1261   0.5437   0.2974     H
O       0.1265   0.0352   0.1664     O
C       0.1265   0.0504   0.6847     C
C       0.1269   0.7924   0.3322     C
C       0.1275   0.3732   0.7507     C
O       0.1283   0.0515    0.012     O
H       0.1299   0.0225   0.4312     H
H       0.1332   0.0493   0.7153     H
C       0.1337   0.0213   0.5321     C
H       0.1339   0.6102   0.0073     H
H       0.1343   0.5234   0.7995     H
C       0.1349   0.2372   0.4201     C
C       0.1363   0.3791   0.6702     C
H       0.1367    0.313   0.8854     H
C       0.1387   0.1991   0.2991     C
H       0.1398   0.9676   0.3088     H
C       0.1409   0.0333   0.6136     C
Nd     0.14115  0.02035  0.08637    Nd
C       0.1423   0.5662   0.4025     C
Nd     0.14286  0.18569  0.19971    Nd
H       0.1444   0.0834   0.8684     H
C       0.1464   0.6711   0.9295     C
H       0.1467   0.7988   0.3058     H
C       0.1512   0.3162   0.8575     C
C       0.1528   0.9836   0.4905     C
C       0.1531   0.3447   0.7904     C
C       0.1548   0.3474   0.7102     C
C       0.1565   0.2461   0.3808     C
C       0.1566   0.7433   0.3615     C
H       0.1571   0.8543   0.5996     H
C       0.1604    0.092   0.9344     C
C       0.1638      0.0   0.5731     C
H       0.1644   0.2745   0.4465     H
H       0.1655   0.0073   0.2428     H
C       0.1667   0.7561   0.9509     C
C       0.1702    0.646   0.4291     C
C       0.1748   0.0159   0.6572     C
C       0.1749   0.1152   0.8961     C
C       0.1793   0.5789   0.0035     C
H       0.1804   0.9351   0.4849     H
H       0.1808    0.452   0.3787     H
C       0.1829   0.3473   0.6419     C
H       0.1839   0.3597   0.6134     H
O       0.1843   0.4106   0.2743     O
C       0.1893   0.1122   0.0161     C
H       0.1981    0.524   0.0588     H
C       0.2001   0.5072   0.3962     C
H       0.2006   0.7093   0.3598     H
H       0.2007   0.2898   0.3801     H
C       0.2018   0.1372   0.9745     C
O       0.2025   0.2502   0.2971     O
H       0.2087   0.2988   0.1216     H
N       0.2094   0.2865   0.7957     N
C       0.2096   0.2689   0.8374     C
C       0.2096   0.8659   0.5904     C
C       0.2106   0.6135   0.9318     C
H       0.2108   0.7011   0.8601     H
O       0.2123   0.9037   0.1081     O
N       0.2144   0.2925   0.7042     N
C       0.2147   0.5313   0.0318     C
H       0.2171   0.1768   0.5597     H
H       0.2202   0.7761   0.9701     H
H       0.2212   0.9864   0.6646     H
O       0.2227    0.142   0.0505     O
C       0.2229   0.5732   0.9669     C
H       0.2237   0.3351   0.0539     H
C        0.227   0.9377   0.5745     C
C       0.2314   0.2907   0.6626     C
C       0.2351   0.1861   0.8979     C
H        0.237   0.2641   0.7237     H
C       0.2445   0.6569   0.8618     C
O       0.2498   0.2969   0.2025     O
C       0.2526   0.3423   0.1203     C
H       0.2532   0.7613   0.6053     H
C       0.2539   0.2092   0.8545     C
C       0.2556   0.6048   0.8961     C
C       0.2562   0.6679   0.4508     C
H       0.2566   0.7531   0.1034     H
H       0.2587   0.2133   0.4952     H
O       0.2589   0.9602   0.0565     O
C       0.2615   0.9053   0.0821     C
C       0.2617   0.3642   0.0802     C
C       0.2628   0.2098   0.9774     C
C       0.2645   0.2189   0.5615     C
C       0.2664   0.8103   0.5933     C
O       0.2683    0.129   0.2291     O
H       0.2753   0.7216   0.4698     H
C       0.2781   0.2336   0.9379     C
C       0.2812    0.494   0.0141     C
N       0.2845   0.5194   0.9742     N
C       0.2852   0.5316   0.4161     C
C       0.2907    0.245   0.6445     C
C       0.2919   0.2396   0.5234     C
H       0.2925   0.2415   0.0054     H
C       0.2939   0.6267   0.8329     C
H       0.3014   0.6475    0.807     H
C       0.3019   0.9545   0.5596     C
C       0.3037   0.3624   0.2024     C
H       0.3054   0.1878   0.7753     H
C       0.3072   0.7664   0.0927     C
C       0.3087   0.3851   0.1586     C
C       0.3095   0.1612   0.8363     C
N       0.3099   0.5487   0.8888     N
C       0.3122   0.2648    0.602     C
C       0.3135     0.61   0.4441     C
H       0.3137   0.0047   0.5484     H
Nd     0.31423  0.35685  0.30027    Nd
H       0.3181   0.2823   0.9389     H
H       0.3192   0.5043   0.9564     H
H       0.3217   0.9896   0.2141     H
O        0.323   0.4033   0.3786     O
C       0.3243   0.8442   0.0794     C
H       0.3246   0.4187   0.7411     H
C       0.3256   0.4282   0.0778     C
N       0.3273   0.1593   0.7948     N
C       0.3326    0.558   0.8483     C
C       0.3376   0.4493   0.0342     C
C       0.3385   0.1903   0.6647     C
N       0.3393    0.174   0.7059     N
C       0.3419   0.8226   0.5795     C
C       0.3432   0.1569   0.2496     C
C       0.3494   0.4716   0.4069     C
O       0.3507    0.407   0.2358     O
H       0.3511   0.6573    0.099     H
O       0.3558   0.2712   0.4475     O
H       0.3577   0.4522   0.6754     H
H       0.3604    0.098   0.8862     H
C       0.3605   0.1087   0.8573     C
C       0.3614   0.4696   0.7419     C
C       0.3615   0.8954   0.5613     C
C       0.3636   0.7101   0.0902     C
C       0.3639   0.2957    0.525     C
O       0.3693   0.2313   0.2701     O
C       0.3698   0.4505   0.1565     C
H       0.3713   0.6244   0.4587     H
C       0.3778   0.5052    0.825     C
C       0.3787   0.4721    0.116     C
C       0.3793   0.0089   0.2282     C
C       0.3821   0.4891   0.7029     C
C       0.3849   0.3231   0.6036     C
C       0.3851   0.1053   0.7894     C
C       0.3852   0.3112   0.4814     C
C       0.3933     0.14    0.643     C
C       0.3942   0.1162    0.711     C
C       0.3946   0.5244   0.7814     C
H        0.395   0.9205   0.7142     H
C       0.3957   0.8608   0.0612     C
H       0.3959   0.4502   0.9026     H
H       0.4042   0.1403   0.6141     H
O       0.4043   0.7128   0.6089     O
C       0.4045    0.416   0.0167     C
C       0.4055   0.0941   0.2495     C
C       0.4056   0.7603   0.5823     C
H       0.4058   0.9111   0.0499     H
H       0.4064   0.4812   0.1829     H
C       0.4087   0.0766   0.8298     C
C       0.4091   0.3405   0.5658     C
C       0.4106    0.435   0.8396     C
H       0.4127   0.9047   0.5506     H
N       0.4144   0.4147   0.9735     N
C       0.4169   0.0841   0.7497     C
N       0.4179   0.4222   0.8817     N
H        0.418   0.3511   0.6315     H
H       0.4212    0.896    0.212     H
H       0.4213    0.517   0.1149     H
O       0.4227   0.4961   0.4268     O
O       0.4255   0.5398   0.6252     O
C       0.4263   0.0926   0.6713     C
H       0.4352   0.6802   0.9836     H
C       0.4372   0.7268   0.0755     C
C       0.4379   0.5618   0.7039     C
C       0.4387   0.9527   0.2279     C
C       0.4461   0.5995    0.781     C
O       0.4477   0.3695   0.4866     O
C       0.4504    0.373    0.815     C
H       0.4506   0.0413    0.836     H
H       0.4524   0.3657   0.7844     H
C       0.4527   0.8011   0.0599     C
C       0.4527   0.9381   0.7286     C
H       0.4564   0.3827   0.5674     H
O       0.4593   0.7591   0.5555     O
H       0.4632   0.0518   0.6661     H
O        0.464   0.3725   0.3332     O
H       0.4656   0.6399   0.8078     H
C       0.4667   0.3567   0.8862     C
C       0.4667   0.5755   0.6622     C
C       0.4684   0.3772   0.0392     C
C       0.4696    0.617   0.7429     C
H       0.4763    0.373   0.0695     H
C       0.4787   0.3653   0.9669     C
C       0.4795   0.0236   0.7506     C
Nd     0.47966  0.35878  0.41362    Nd
C       0.4836   0.6528   0.9898     C
H       0.4837   0.7185   0.1626     H
C        0.485   0.3267   0.8442     C
C       0.4904   0.1212   0.2724     C
H       0.4917    0.822   0.7119     H
H       0.4924    0.333   0.2562     H
H       0.4975    0.188   0.9518     H
C       0.4994   0.3344    0.926     C
C       0.5006   0.6656    0.074     C
H       0.5025    0.812   0.0482     H
H       0.5076    0.667   0.7438     H
H       0.5083    0.178   0.2881     H
C       0.5096   0.8788   0.7276     C
C        0.515   0.6733   0.1558     C
H       0.5163   0.2815   0.8374     H
C       0.5164   0.3472   0.0102     C
Nd     0.52034  0.64122  0.58638    Nd
C       0.5205   0.9764   0.2494     C
C       0.5213   0.6347   0.0331     C
H       0.5237    0.627   0.9305     H
C       0.5304    0.383   0.2571     C
C       0.5316   0.6228   0.9608     C
C       0.5333   0.4245   0.3378     C
C       0.5333   0.6433   0.1138     C
H       0.5344   0.3601   0.1922     H
O        0.536   0.6275   0.6668     O
H       0.5368   0.9482   0.3339     H
O       0.5407   0.2409   0.4445     O
H       0.5436   0.6173   0.4326     H
C       0.5473   0.0619   0.2714     C
C       0.5473   0.1989   0.9401     C
H       0.5476   0.6343   0.2156     H
H       0.5494   0.9587    0.164     H
C       0.5496    0.627    0.185     C
O       0.5523   0.6305   0.5134     O
C       0.5539   0.4005    0.219     C
C       0.5613   0.0473   0.7721     C
C       0.5621   0.4382   0.2961     C
C       0.5628   0.2732   0.9245     C
H       0.5648   0.3198   0.0164     H
C       0.5737   0.9074   0.3287     C
O       0.5745   0.4602   0.3748     O
O       0.5773   0.5039   0.5732     O
H       0.5787    0.483   0.8851     H
H       0.5788    0.104    0.788     H
H        0.582   0.6489   0.3685     H
N       0.5821   0.5778   0.1183     N
C       0.5831   0.9159   0.2503     C
N       0.5856   0.5853   0.0265     N
H       0.5873   0.0953   0.4494     H
C       0.5894    0.565   0.1604     C
C       0.5909   0.6595   0.4342     C
C       0.5913   0.9234   0.1702     C
H       0.5936   0.5188   0.8171     H
H       0.5942   0.0889   0.9501     H
C       0.5944   0.2397   0.4177     C
C       0.5945   0.9059   0.7505     C
C       0.5955    0.584   0.9833     C
O       0.5957   0.2872   0.3911     O
H       0.5958   0.8597   0.3859     H
H       0.6041   0.5498   0.0974     H
C       0.6043   0.1392   0.9388     C
H        0.605   0.0795   0.2858     H
C       0.6054   0.4756   0.2186     C
C       0.6058   0.8838    0.289     C
C       0.6067     0.86    0.357     C
C       0.6148   0.6888   0.5186     C
C       0.6149   0.8947   0.2106     C
C       0.6151   0.6769   0.3964     C
C       0.6179   0.5109   0.2971     C
C       0.6207   0.9911   0.7718     C
C       0.6213   0.5279    0.884     C
C       0.6222   0.4948    0.175     C
H       0.6287   0.3756   0.5413     H
C       0.6302   0.5495   0.8435     C
O       0.6307   0.7687   0.7299     O
C       0.6361   0.7043    0.475     C
C       0.6364   0.2899   0.9098     C
C       0.6385   0.1046   0.4387     C
C       0.6386   0.5304   0.2581     C
C       0.6395   0.8913   0.1427     C
H       0.6396    0.902   0.1138     H
H       0.6423   0.5478   0.3246     H
O       0.6442   0.7288   0.5525     O
H       0.6489   0.3427    0.901     H
O       0.6493    0.593   0.7642     O
C       0.6506   0.5284   0.5931     C
C       0.6568   0.8431   0.7504     C
C       0.6581   0.1774   0.4205     C
N       0.6607    0.826   0.2941     N
C       0.6615   0.8097   0.3353     C
C       0.6624   0.5507   0.9658     C
C       0.6674    0.442   0.1517     C
N       0.6727   0.8407   0.2052     N
C       0.6744   0.5718   0.9222     C
H       0.6754   0.5813   0.2589     H
C       0.6757   0.1558   0.9206     C
O        0.677   0.5967   0.6214     O
H       0.6783   0.0104   0.7859     H
H       0.6808   0.4957   0.0436     H
H       0.6819   0.7177   0.0611     H
Nd     0.68577  0.64315  0.69973    Nd
H       0.6863   0.9953   0.4516     H
C       0.6865     0.39   0.5559     C
C       0.6878   0.7352    0.398     C
N       0.6901   0.4513   0.1112     N
C       0.6905   0.8388   0.1637     C
C       0.6913   0.6149   0.8414     C
C       0.6928   0.2336   0.9073     C
H       0.6946   0.8122   0.2247     H
C       0.6963   0.6376   0.7976     C
C       0.6981   0.0455   0.4404     C
H       0.6986   0.3525    0.193     H
C       0.7061   0.3733   0.1671     C
H       0.7075   0.7585   0.9946     H
C       0.7081   0.7604   0.4766     C
C       0.7093    0.755   0.3555     C
C       0.7148   0.4684   0.5839     C
N       0.7155   0.4806   0.0258     N
C       0.7188    0.506   0.9859     C
C       0.7219   0.7664   0.0621     C
H       0.7247   0.2784   0.5302     H
O       0.7317    0.871   0.7709     O
C       0.7336   0.1897   0.4067     C
C       0.7355   0.7811   0.4385     C
C       0.7372   0.7902   0.0226     C
C       0.7383   0.6358   0.9198     C
C       0.7385   0.0947   0.9179     C
O       0.7411   0.0398   0.9435     O
H       0.7413   0.7867   0.5048     H
H       0.7434   0.2469   0.8966     H
C       0.7438   0.3321   0.5492     C
C       0.7444   0.3952   0.1039     C
C       0.7461   0.7908   0.1455     C
H       0.7468   0.2387   0.3947     H
C       0.7474   0.6577   0.8797     C
O       0.7502   0.7031   0.7975     O
C       0.7555   0.3431   0.1382     C
H        0.763   0.7359   0.2763     H
C       0.7649   0.8139   0.1021     C
C       0.7686   0.7093   0.3374     C
C        0.773   0.0623   0.4255     C
H       0.7763   0.6649   0.9461     H
C       0.7771   0.4268   0.0331     C
O       0.7773    0.858   0.9495     O
H       0.7788   0.0136   0.3354     H
H       0.7798   0.2239   0.0299     H
H       0.7829   0.8232   0.4403     H
C       0.7853   0.4687   0.9682     C
N       0.7856   0.7075   0.2958     N
O       0.7877   0.0963   0.8919     O
H       0.7892   0.2989   0.1399     H
C       0.7894   0.3865   0.0682     C
C       0.7904   0.1341   0.4096     C
C       0.7904   0.7311   0.1626     C
N       0.7906   0.7135   0.2043     N
H       0.7913   0.7012   0.8784     H
O       0.7975   0.7498   0.7029     O
C       0.7982   0.8628   0.0255     C
H       0.7993   0.7102   0.6199     H
H       0.7994   0.2907   0.6402     H
C       0.7999   0.4928   0.6038     C
H       0.8019    0.476   0.9412     H
C       0.8107   0.8878   0.9839     C
O       0.8157   0.5894   0.7257     O
H       0.8161   0.6403   0.3866     H
C       0.8171   0.6527   0.3581     C
H       0.8192    0.548   0.6213     H
H       0.8196   0.0649   0.5151     H
C       0.8207   0.4211   0.9965     C
C       0.8251   0.8848   0.1039     C
C       0.8252   0.9841   0.3428     C
C       0.8298    0.354   0.5709     C
C       0.8333   0.2439   0.0491     C
H       0.8345   0.9927   0.7572     H
H       0.8356   0.7255   0.5535     H
C       0.8362     -0.0   0.4269     C
C       0.8396    0.908   0.0656     C
H       0.8429   0.1457   0.4004     H
C       0.8434   0.2567   0.6385     C
C       0.8435   0.7539   0.6192     C
C       0.8452   0.6526   0.2898     C
C       0.8469   0.6553   0.2096     C
C       0.8472   0.0164   0.5095     C
C       0.8488   0.6838   0.1425     C
H       0.8533   0.2012   0.6942     H
C       0.8536   0.3289   0.0705     C
H       0.8556   0.9166   0.1316     H
Nd     0.85714  0.81431  0.80029    Nd
C       0.8577   0.4338   0.5975     C
Nd     0.85885  0.97965  0.91363    Nd
C       0.8591   0.9667   0.3864     C
H       0.8602   0.0324   0.6912     H
C       0.8613   0.8009   0.7009     C
H       0.8633    0.687   0.1146     H
C       0.8637   0.6209   0.3298     C
C       0.8651   0.7628   0.5799     C
H       0.8657   0.4766   0.2005     H
H       0.8661   0.3898   0.9927     H
C       0.8663   0.9787   0.4679     C
H       0.8668   0.9507   0.2847     H
H       0.8701   0.9775   0.5688     H
O       0.8717   0.9485    0.988     O
C       0.8725   0.6268   0.2493     C
C       0.8731   0.2076   0.6678     C
C       0.8735   0.9496   0.3153     C
O       0.8735   0.9648   0.8336     O
H       0.8739   0.4563   0.7026     H
C       0.8756   0.9699   0.5387     C
H       0.8779   0.1313   0.0411     H
C       0.8794   0.6341   0.1701     C
H       0.8796   0.9569   0.0671     H
C       0.8843   0.0306   0.7576     C
C       0.8856    0.287   0.5685     C
C       0.8857   0.8085   0.6588     C
C       0.8866   0.6101   0.7494     C
H       0.8907   0.3651   0.4932     H
C       0.8914    0.189    0.056     C
C        0.895   0.2449   0.6036     C
C       0.9001    0.053   0.7181     C
H       0.9032    0.583   0.3353     H
O       0.9053   0.8242   0.8795     O
O       0.9062   0.8502   0.7358     O
O       0.9108   0.6846   0.7747     O
N       0.9145   0.9148   0.4729     N
H       0.9157   0.5929   0.1644     H
H       0.9158   0.4491   0.6115     H
C        0.916   0.9063    0.516     C
C       0.9176   0.4898   0.2216     C
H       0.9202   0.8205   0.2406     H
C        0.922   0.3195   0.4966     C
N       0.9222   0.9179   0.3822     N
C       0.9234    0.034   0.8377     C
C       0.9272   0.2745   0.5322     C
C       0.9282   0.4718   0.7215     C
C       0.9306   0.8264   0.5781     C
C       0.9334   0.5673   0.2502     C
C       0.9336   0.3587   0.0978     C
C       0.9365   0.9111   0.3398     C
C       0.9403    0.063   0.7971     C
C       0.9417   0.1664   0.6509     C
H        0.948   0.4168   0.1119     H
H        0.949    0.895    0.403     H
H       0.9494   0.8585   0.1754     H
C       0.9498   0.5513   0.7498     C
C       0.9501   0.8388   0.5348     C
C       0.9515   0.8718   0.6572     C
N       0.9517   0.1915   0.6114     N
H       0.9522   0.6783   0.8783     H
H       0.9567   0.3764   0.2019     H
O       0.9612   0.0754   0.8754     O
C       0.9695   0.2856   0.4686     C
C       0.9696   0.8593   0.2414     C
C       0.9707   0.2174    0.085     C
C       0.9713   0.8794   0.6156     C
C       0.9724   0.4299   0.2215     C
H       0.9727   0.3636    0.701     H
C       0.9735   0.8487   0.9072     C
C       0.9754   0.1061   0.7188     C
H       0.9769   0.3031   0.4419     H
N       0.9808   0.2173   0.5255     N
H       0.9821   0.9088   0.6835     H
H       0.9853   0.0767   0.3858     H
C        0.987   0.4162   0.7215     C
C       0.9875   0.8816   0.2026     C
C       0.9928   0.3015   0.1041     C
C       0.9932   0.7809   0.5143     C
C       0.9953   0.1222   0.6754     C
O       0.9953   0.9229   0.9261     O
H       0.9969   0.1839   0.5438     H
