data_I
_chemical_name_common  '/home/zhangsd/repos/MofS-CGCNN/ML/data/SSD/clean_cifs/VICLAW_clean'
_cell_length_a 11.85500
_cell_length_b 23.23500
_cell_length_c 36.74900
_cell_angle_alpha 95.26000
_cell_angle_beta  90.00000
_cell_angle_gamma 90.00000
_space_group_name_H-M_alt      'P 1'


loop_
_space_group_symop_operation_xyz
  'x, y, z' 

loop_
_atom_site_label
_atom_site_fract_x
_atom_site_fract_y
_atom_site_fract_z
_atom_site_type_symbol
Ni      0.0022   0.4159  0.51367    Ni
N       0.0029   0.4283   0.5631     N
C       0.0035   0.3044   0.4029     C
H       0.0046   0.2393   0.5226     H
C       0.0046   0.5668   0.6151     C
H       0.0048   0.4714   0.1802     H
C       0.0055   0.2065   0.9822     C
H       0.0068    0.658   0.4146     H
C       0.0077   0.9844   0.9278     C
H       0.0099    0.309    0.429     H
C       0.0101   0.9319    0.594     C
C        0.011   0.9449   0.5565     C
C       0.0118   0.5354   0.5815     C
H       0.0124   0.0283   0.0534     H
H       0.0128   0.3815   0.9564     H
H        0.013   0.6349   0.9993     H
H       0.0162   0.8763   0.0536     H
Cd     0.01621  0.86517  0.28335    Cd
C       0.0168   0.2188   0.7005     C
H       0.0214    0.719   0.4886     H
H       0.0236   0.1269   0.9998     H
H       0.0243   0.8644   0.6486     H
C       0.0292   0.4312    0.915     C
H       0.0295   0.3412   0.3374     H
C         0.03   0.7346   0.0936     C
H       0.0312   0.0115   0.9943     H
C       0.0332   0.2174   0.9147     C
H       0.0353   0.2627   0.4852     H
H       0.0354   0.5385   0.0714     H
H       0.0391   0.5655   0.4323     H
H       0.0412   0.8197   0.5904     H
H       0.0418   0.5539   0.6351     H
C       0.0426   0.4094   0.4012     C
O       0.0446    0.849  0.22373     O
C        0.045   0.9711   0.8266     C
C        0.045   0.9879   0.8625     C
H       0.0463   0.7488   0.9765     H
C       0.0478   0.2347   0.8493     C
H       0.0478   0.7447   0.5286     H
H       0.0489   0.0512   0.3868     H
N        0.051   0.9767  0.48327     N
H       0.0531   0.2623   0.6385     H
H       0.0539   0.2468   0.0327     H
H       0.0581   0.9509    0.395     H
C       0.0584   0.7662   0.1605     C
C       0.0588   0.7046   0.0605     C
C       0.0591   0.5105   0.1379     C
H       0.0599   0.0141   0.9325     H
C       0.0607   0.4951    0.172     C
C       0.0623   0.4253   0.4384     C
C       0.0626   0.3922   0.9386     C
C       0.0627   0.2568   0.5091     C
C       0.0649   0.1899   0.9454     C
O       0.0661   0.8143   0.3286     O
H       0.0679    0.218   0.8262     H
H       0.0692   0.1434   0.4988     H
C       0.0709   0.9983   0.4462     C
C       0.0748   0.4782   0.5779     C
C        0.075   0.9549    0.067     C
H        0.076   0.2948   0.3924     H
C       0.0767   0.7388   0.5041     C
C       0.0773   0.9417   0.4198     C
C       0.0777   0.8961   0.0643     C
H       0.0804   0.4692   0.8704     H
C       0.0808    0.729   0.1281     C
C        0.081   0.9613    0.618     C
H       0.0817   0.9511   0.6419     H
C       0.0824   0.2035   0.8801     C
H       0.0833   0.2934   0.5217     H
C        0.084   0.9911   0.5474     C
C       0.0841   0.7424   0.9989     C
H       0.0847   0.2484   0.5719     H
H       0.0864   0.6504   0.9109     H
H       0.0882   0.0204   0.8698     H
C       0.0906   0.2373   0.0096     C
H       0.0933   0.3821   0.0282     H
H       0.0934   0.7755   0.4954     H
H       0.0939   0.4281   0.3516     H
H        0.098   0.6244   0.5024     H
H       0.0981   0.7579   0.1812     H
C       0.0987   0.0042   0.5108     C
H       0.0992   0.3401   0.0822     H
C       0.0996   0.2046   0.6714     C
H       0.1011   0.1672   0.4616     H
C       0.1021   0.4439   0.8873     C
H       0.1032   0.4704   0.6021     H
C       0.1033    0.232   0.6406     C
C       0.1062   0.4381   0.3763     C
H        0.108   0.5847   0.8994     H
H       0.1113   0.7786   0.0103     H
H       0.1131   0.5371   0.1319     H
H       0.1148   0.6528   0.5425     H
H       0.1171   0.1847   0.0901     H
H       0.1174    0.272   0.0003     H
H       0.1255   0.7712   0.3852     H
C       0.1258   0.9992   0.8028     C
N       0.1273    0.462   0.5147     N
C       0.1282   0.1604   0.4854     C
H       0.1299     0.61   0.9398     H
C       0.1336   0.6179   0.9146     C
H       0.1354   0.1216   0.1008     H
O       0.1357   0.9843    0.771     O
O        0.136   0.4996   0.2313     O
H       0.1418   0.7488    0.444     H
H       0.1444   0.0176   0.4464     H
C       0.1453   0.4667   0.4493     C
H       0.1462   0.0347   0.5066     H
H       0.1464   0.7166   0.9937     H
C       0.1471   0.6616   0.0617     C
C       0.1494   0.2267   0.5749     C
C       0.1502   0.6446   0.5191     C
C       0.1512   0.3922   0.0447     C
H       0.1517   0.1755   0.6743     H
C       0.1525   0.5163    0.196     C
C       0.1527   0.1488   0.9422     C
H       0.1532    0.212   0.0129     H
C       0.1538   0.0065   0.6095     C
C       0.1541   0.0182   0.5742     C
C       0.1542   0.3667   0.0771     C
H       0.1563   0.8242   0.0725     H
H       0.1582   0.1361   0.0607     H
C         0.16   0.1607   0.8755     C
H         0.16   0.8119   0.9098     H
C       0.1614   0.7929   0.3194     C
C       0.1625   0.1505   0.0859     C
C       0.1641   0.6867   0.1286     C
C       0.1643   0.2178   0.5059     C
C       0.1647   0.8641   0.0762     C
C        0.169   0.3688   0.9363     C
H       0.1735   0.8683    0.965     H
C       0.1758   0.4796   0.5513     C
C       0.1758   0.4814   0.4862     C
C       0.1785   0.9743   0.0776     C
O       0.1806   0.0448   0.8167     O
C       0.1806   0.2174   0.6104     C
H       0.1812   0.8738   0.4651     H
H       0.1817   0.3646   0.5618     H
O       0.1846   0.6354  0.03118     O
C       0.1858    0.702   0.5039     C
C       0.1866   0.4804   0.3859     C
C       0.1881   0.7497    0.377     C
H       0.1887   0.5112   0.2444     H
H       0.1888   0.4838   0.3133     H
H       0.1891   0.1497   0.8524     H
H       0.1904   0.3432   0.9531     H
H       0.1915   0.1346   0.4831     H
O        0.192   0.1262  0.97121     O
C       0.1922   0.9142   0.4191     C
C       0.1957   0.8476   0.9106     C
C       0.1967   0.6524   0.0963     C
C        0.198    0.132   0.9071     C
O       0.1986   0.8007   0.2876     O
H       0.1992   0.6807   0.1505     H
H       0.1994   0.0113   0.0726     H
C       0.1994    0.722   0.4391     C
H       0.2041   0.0461   0.5673     H
C       0.2053    0.494   0.4225     C
H       0.2063   0.5189    0.552     H
H       0.2067   0.6766   0.8633     H
C       0.2071   0.2062   0.5436     C
C       0.2075   0.8804   0.9442     C
C        0.208   0.4182   0.8852     C
Cl      0.2117  0.67174  0.24357    Cl
H       0.2147   0.0013   0.6806     H
H       0.2157    0.621   0.5216     H
C       0.2209   0.7546   0.3417     C
H       0.2235   0.8462   0.8557     H
H       0.2264   0.6109   0.8512     H
H       0.2268   0.4486   0.0133     H
C       0.2291   0.0345   0.6357     C
O       0.2292   0.5466   0.1891     O
C       0.2297   0.8814   0.4462     C
H       0.2301   0.2557   0.4623     H
C       0.2304    0.432   0.0354     C
H       0.2304   0.7393   0.5551     H
H       0.2356    0.507   0.4906     H
C       0.2357   0.8668   0.8783     C
C       0.2368   0.6936   0.4671     C
H        0.238   0.2207    0.139     H
C       0.2387   0.3809   0.1018     C
H       0.2394   0.9449   0.3717     H
C       0.2402   0.7146    0.403     C
H       0.2413   0.3642   0.1238     H
C       0.2444   0.3819   0.9103     C
C       0.2444   0.5073   0.3247     C
H       0.2459   0.7165   0.9241     H
C       0.2518   0.5117     0.36     C
H       0.2526   0.1572   0.1494     H
C       0.2528   0.6312   0.9049     C
C       0.2538   0.3802   0.5641     C
C        0.254   0.6438   0.8663     C
C       0.2547    0.942   0.0955     C
H       0.2559   0.4259   0.8662     H
C       0.2561   0.0281   0.6688     C
C       0.2565   0.2481   0.4861     C
H       0.2586   0.1312   0.3942     H
H       0.2588    0.522   0.4299     H
H         0.26    0.888   0.5364     H
C       0.2616    0.883   0.0928     C
C       0.2634   0.9238   0.3906     C
C       0.2675   0.7326   0.5319     C
H       0.2682   0.0646   0.6264     H
C       0.2685   0.4375   0.5591     C
C       0.2704   0.9312   0.9464     C
C       0.2709   0.0853   0.9014     C
H        0.273   0.8528   0.5932     H
O       0.2741   0.5829  0.97453     O
H       0.2754   0.2839   0.4999     H
C       0.2813   0.1885   0.6158     C
Cd     0.28162  0.05657  0.77023    Cd
H       0.2819   0.7332    0.332     H
C       0.2821   0.1647   0.0957     C
C       0.2828   0.6131   0.0996     C
C        0.283   0.1863   0.1353     C
H       0.2831   0.9517    0.969     H
H       0.2833   0.2476   0.0797     H
H       0.2885   0.0653   0.3875     H
H       0.2887   0.0733   0.8773     H
H       0.2892   0.6507   0.6075     H
H       0.2904   0.7688   0.5237     H
Ni     0.29172  0.57815  0.02446    Ni
H        0.292   0.6773   0.9533     H
C       0.2938   0.6843    0.928     C
C       0.2955   0.9188   0.8818     C
H       0.2964   0.0969    0.427     H
O       0.3007   0.5382   0.2679     O
C       0.3033   0.1709   0.5486     C
H       0.3048   0.5379   0.3702     H
H       0.3062   0.9623   0.1109     H
C       0.3069    0.101   0.4014     C
H       0.3084   0.1848   0.6392     H
O       0.3125   0.1053  0.02379     O
H       0.3133   0.6112   0.1228     H
Ni     0.31345  0.08003  0.97485    Ni
C       0.3141   0.9513   0.9149     C
C       0.3153    0.446   0.0606     C
N       0.3161    0.057   0.9258     N
H       0.3172   0.3668   0.9095     H
C       0.3181   0.9005   0.5523     C
H       0.3191   0.5854   0.6098     H
C         0.32   0.4203   0.0934     C
H       0.3203   0.8606   0.1006     H
C        0.321    0.538   0.3023     C
H       0.3221   0.2238   0.4837     H
H       0.3228   0.2016   0.0484     H
C       0.3242   0.6756   0.3959     C
H       0.3245   0.9325   0.8607     H
N       0.3247    0.579   0.0738     N
H       0.3261   0.3062   0.5744     H
C       0.3266   0.8785   0.5858     C
C       0.3275   0.2133   0.0741     C
H       0.3298   0.6522   0.8592     H
H       0.3326   0.7087   0.5344     H
C       0.3328   0.6543   0.4596     C
C       0.3331   0.5802   0.9121     C
H       0.3373   0.6138   0.5731     H
Cd      0.3387  0.75843  0.25319    Cd
C       0.3392   0.8594   0.4457     C
C       0.3397   0.5605   0.9488     C
C       0.3403   0.6202   0.5993     C
C        0.341    0.345   0.5722     C
C       0.3423   0.1647   0.5842     C
C       0.3433   0.0581   0.6894     C
H       0.3449   0.2575   0.9524     H
H       0.3503   0.3305   0.4084     H
H       0.3511   0.7738   0.0374     H
H       0.3525   0.6694   0.3722     H
O        0.354   0.1464  0.51964     O
C       0.3553     0.11    0.087     C
H       0.3583   0.3798   0.4648     H
H       0.3591   0.1949   0.1429     H
H       0.3621   0.8367    0.464     H
H       0.3646   0.2366   0.9912     H
Cd     0.36817  0.59584  0.22548    Cd
C       0.3692   0.0858   0.0496     C
C       0.3694   0.6445   0.4233     C
H       0.3697   0.6929   0.9211     H
H       0.3709   0.7468   0.9973     H
C       0.3724   0.9011   0.3908     C
O       0.3748   0.0493  0.72021     O
O       0.3754   0.6292  0.48642     O
C       0.3771   0.4572   0.5631     C
H       0.3782   0.4298   0.1099     H
C       0.3838   0.0051   0.9148     C
O       0.3847   0.1223   0.8011     O
H       0.3869   0.9557   0.5191     H
N       0.3904   0.5159   0.0181     N
C       0.3907   0.3649   0.4111     C
H       0.3916   0.4963   0.5617     H
H       0.3916   0.5666   0.8623     H
C       0.3936   0.3938   0.4448     C
C       0.3949   0.9413   0.5417     C
H       0.3974   0.1001   0.1386     H
O       0.3982   0.0949   0.6744     O
H       0.3986   0.1558   0.3491     H
C       0.3994   0.2422   0.9682     C
H       0.3994   0.3562   0.9791     H
C       0.3997   0.5545   0.8856     C
H       0.3999   0.5264   0.1064     H
O       0.4001   0.5671   0.3174     O
H       0.4047   0.2211   0.0806     H
C        0.405   0.7549   0.0209     C
H       0.4061   0.6821   0.6596     H
H       0.4083   0.8654     0.02     H
C       0.4106   0.0851   0.1146     C
C       0.4108   0.4893   0.0528     C
H       0.4144   0.0079   0.8902     H
C       0.4146   0.8707   0.4183     C
H       0.4153   0.3291   0.0163     H
H       0.4165   0.2022   0.4075     H
C       0.4165   0.5409   0.0828     C
C       0.4169   0.8956    0.608     C
H       0.4194   0.9067   0.3712     H
O       0.4197   0.6387   0.1773     O
C       0.4204   0.5155   0.9543     C
H       0.4262   0.8373     0.98     H
H       0.4269   0.6164    0.664     H
H       0.4272   0.2059   0.9572     H
H       0.4277   0.8795     0.63     H
H       0.4286   0.7193   0.0299     H
H        0.429   0.0903   0.3409     H
C       0.4315   0.1168   0.3944     C
C       0.4356    0.495    0.988     C
N       0.4361   0.0329   0.9781     N
H       0.4365    0.361    0.358     H
C       0.4376   0.1298   0.5916     C
C       0.4426   0.3823   0.3806     C
O       0.4448   0.0823  0.46846     O
H       0.4458    0.182   0.8552     H
C       0.4472   0.1253   0.3556     C
C       0.4491   0.3647   0.5772     C
C       0.4504   0.0379   0.0432     C
C       0.4505   0.6014    0.413     C
H       0.4509    0.726   0.6042     H
C       0.4524   0.3386   0.9944     C
H       0.4527   0.4686   0.4697     H
C       0.4529   0.4458   0.4475     C
H       0.4551   0.1688   0.4405     H
C       0.4552   0.6498   0.6534     C
C       0.4587   0.6901   0.1822     C
Ni     0.45881  0.08605  0.51801    Ni
O       0.4596   0.7351  0.29929     O
C       0.4603   0.6372   0.6112     C
C        0.462   0.8471   0.0032     C
O       0.4636   0.7165  0.21334     O
C       0.4639   0.1718   0.4147     C
H       0.4649   0.1323   0.6154     H
C       0.4657   0.4207   0.5692     C
H       0.4676   0.5937   0.3883     H
H       0.4713   0.2389   0.9068     H
H       0.4724   0.6975   0.1273     H
C       0.4736   0.1522   0.8034     C
C       0.4768   0.0174   0.0081     C
H       0.4779   0.7541   0.0828     H
C       0.4823     0.51   0.8902     C
C       0.4825   0.9604   0.5642     C
H       0.4827   0.4632   0.9891     H
C       0.4835   0.0106   0.9438     C
H       0.4835   0.4691   0.0515     H
C       0.4864    0.038   0.1086     C
C       0.4864   0.4915   0.9246     C
N       0.4891   0.0947   0.5671     N
C       0.4891   0.1894   0.8351     C
H       0.4893   0.8586   0.4185     H
C       0.4906   0.9365   0.5974     C
C       0.4916   0.7161   0.1499     C
O        0.493    0.817   0.2774     O
H       0.4957   0.0575   0.1831     H
C       0.4985   0.2852   0.9745     C
O       0.4999   0.5983  0.53712     O
Ni      0.5022   0.5841  0.48633    Ni
N       0.5029   0.5717   0.4369     N
C       0.5035   0.6956   0.5971     C
C       0.5046   0.4332   0.3849     C
H       0.5046   0.7607   0.4774     H
H       0.5048   0.5286   0.8198     H
C       0.5055   0.7935   0.0178     C
H       0.5068    0.342   0.5854     H
C       0.5077   0.0156   0.0722     C
H       0.5099    0.691    0.571     H
C       0.5101   0.0681    0.406     C
C        0.511   0.0551   0.4435     C
C       0.5118   0.4646   0.4185     C
H       0.5124   0.9717   0.9466     H
H       0.5128   0.6185   0.0436     H
H        0.513   0.3651   0.0007     H
H       0.5162   0.1237   0.9464     H
Cd     0.51621  0.13483  0.71665    Cd
C       0.5168   0.7812   0.2995     C
H       0.5214    0.281   0.5114     H
H       0.5236   0.8731   0.0002     H
H       0.5243   0.1356   0.3514     H
C       0.5292   0.5688    0.085     C
H       0.5295   0.6588   0.6626     H
C         0.53   0.2654   0.9064     C
H       0.5312   0.9885   0.0057     H
C       0.5332   0.7826   0.0853     C
H       0.5353   0.7373   0.5148     H
H       0.5354   0.4615   0.9286     H
H       0.5391   0.4345   0.5677     H
H       0.5412   0.1803   0.4096     H
H       0.5418   0.4461   0.3649     H
C       0.5426   0.5906   0.5988     C
O       0.5446    0.151  0.77627     O
C        0.545   0.0121   0.1375     C
C        0.545   0.0289   0.1734     C
H       0.5463   0.2512   0.0235     H
H       0.5478   0.2553   0.4714     H
C       0.5478   0.7653   0.1507     C
H       0.5489   0.9488   0.6132     H
N        0.551   0.0233  0.51673     N
H       0.5531   0.7377   0.3615     H
H       0.5539   0.7532   0.9673     H
H       0.5581   0.0491    0.605     H
C       0.5584   0.2338   0.8395     C
C       0.5588   0.2954   0.9395     C
C       0.5591   0.4895   0.8621     C
H       0.5599   0.9859   0.0675     H
C       0.5607   0.5049    0.828     C
C       0.5623   0.5747   0.5616     C
C       0.5626   0.6078   0.0614     C
C       0.5627   0.7432   0.4909     C
C       0.5649   0.8101   0.0546     C
O       0.5661   0.1857   0.6714     O
H       0.5679    0.782   0.1738     H
H       0.5692   0.8566   0.5012     H
C       0.5709   0.0017   0.5538     C
C       0.5748   0.5218   0.4221     C
C        0.575   0.0451    0.933     C
H        0.576   0.7052   0.6076     H
C       0.5767   0.2612   0.4959     C
C       0.5773   0.0583   0.5802     C
C       0.5777   0.1039   0.9357     C
H       0.5804   0.5308   0.1296     H
C       0.5808    0.271   0.8719     C
C        0.581   0.0387    0.382     C
H       0.5817   0.0489   0.3581     H
C       0.5824   0.7965   0.1199     C
H       0.5833   0.7066   0.4783     H
C        0.584   0.0089   0.4526     C
C       0.5841   0.2576   0.0011     C
H       0.5847   0.7516   0.4281     H
H       0.5864   0.3496   0.0891     H
H       0.5882   0.9796   0.1302     H
C       0.5906   0.7627   0.9904     C
H       0.5933   0.6179   0.9718     H
H       0.5934   0.2245   0.5046     H
H       0.5939   0.5719   0.6484     H
H        0.598   0.3756   0.4976     H
H       0.5981   0.2421   0.8188     H
C       0.5987   0.9958   0.4892     C
H       0.5992   0.6599   0.9178     H
C       0.5996   0.7954   0.3286     C
H       0.6011   0.8328   0.5384     H
C       0.6021   0.5561   0.1127     C
H       0.6032   0.5296   0.3979     H
C       0.6033    0.768   0.3594     C
C       0.6062   0.5619   0.6237     C
H        0.608   0.4153   0.1006     H
H       0.6113   0.2214   0.9897     H
H       0.6131   0.4629   0.8681     H
H       0.6148   0.3472   0.4575     H
H       0.6171   0.8153   0.9099     H
H       0.6174    0.728   0.9997     H
H       0.6255   0.2288   0.6148     H
C       0.6258   0.0008   0.1972     C
N       0.6273    0.538   0.4853     N
C       0.6282   0.8396   0.5146     C
H       0.6299     0.39   0.0602     H
C       0.6336   0.3821   0.0854     C
H       0.6354   0.8784   0.8992     H
O       0.6357   0.0157    0.229     O
O        0.636   0.5004   0.7687     O
H       0.6418   0.2512    0.556     H
H       0.6444   0.9824   0.5536     H
C       0.6453   0.5333   0.5507     C
H       0.6462   0.9653   0.4934     H
H       0.6464   0.2834   0.0063     H
C       0.6471   0.3384   0.9383     C
C       0.6494   0.7733   0.4251     C
C       0.6502   0.3554   0.4809     C
C       0.6512   0.6078   0.9553     C
H       0.6517   0.8245   0.3257     H
C       0.6525   0.4837    0.804     C
C       0.6527   0.8512   0.0578     C
H       0.6532    0.788   0.9871     H
C       0.6538   0.9935   0.3905     C
C       0.6541   0.9818   0.4258     C
C       0.6542   0.6333   0.9229     C
H       0.6563   0.1758   0.9275     H
H       0.6582   0.8639   0.9393     H
H         0.66   0.1881   0.0902     H
C         0.66   0.8393   0.1245     C
C       0.6614   0.2071   0.6806     C
C       0.6625   0.8495   0.9141     C
C       0.6641   0.3133   0.8714     C
C       0.6643   0.7822   0.4941     C
C       0.6647   0.1359   0.9238     C
C        0.669   0.6312   0.0637     C
H       0.6735   0.1317    0.035     H
C       0.6758   0.5186   0.5138     C
C       0.6758   0.5204   0.4487     C
C       0.6785   0.0257   0.9224     C
C       0.6806   0.7826   0.3896     C
O       0.6806   0.9552   0.1833     O
H       0.6812   0.1262   0.5349     H
H       0.6817   0.6354   0.4382     H
O       0.6846   0.3646  0.96882     O
C       0.6858    0.298   0.4961     C
C       0.6866   0.5196   0.6141     C
C       0.6881   0.2503    0.623     C
H       0.6887   0.4888   0.7556     H
H       0.6888   0.5162   0.6867     H
H       0.6891   0.8503   0.1476     H
H       0.6904   0.6568   0.0469     H
H       0.6915   0.8654   0.5169     H
O        0.692   0.8738  0.02879     O
C       0.6922   0.0858   0.5809     C
C       0.6957   0.1524   0.0894     C
C       0.6967   0.3476   0.9037     C
C        0.698    0.868   0.0929     C
O       0.6986   0.1993   0.7124     O
H       0.6992   0.3193   0.8495     H
C       0.6994    0.278   0.5609     C
H       0.6994   0.9887   0.9274     H
H       0.7041   0.9539   0.4327     H
C       0.7053    0.506   0.5775     C
H       0.7063   0.4811    0.448     H
H       0.7067   0.3234   0.1367     H
C       0.7071   0.7938   0.4564     C
C       0.7075   0.1196   0.0558     C
C        0.708   0.5818   0.1148     C
Cl      0.7117  0.32826  0.75643    Cl
H       0.7147   0.9987   0.3194     H
H       0.7157    0.379   0.4784     H
C       0.7209   0.2454   0.6583     C
H       0.7235   0.1538   0.1443     H
H       0.7264   0.3891   0.1488     H
H       0.7268   0.5514   0.9867     H
C       0.7291   0.9655   0.3643     C
O       0.7292   0.4534   0.8109     O
C       0.7297   0.1186   0.5538     C
H       0.7301   0.7443   0.5377     H
H       0.7304   0.2607   0.4449     H
C       0.7304    0.568   0.9646     C
H       0.7356    0.493   0.5094     H
C       0.7357   0.1332   0.1217     C
C       0.7368   0.3064   0.5329     C
H        0.738   0.7793    0.861     H
C       0.7387   0.6191   0.8982     C
H       0.7394   0.0551   0.6283     H
C       0.7402   0.2854    0.597     C
H       0.7413   0.6358   0.8762     H
C       0.7444   0.4927   0.6753     C
C       0.7444   0.6181   0.0897     C
H       0.7459   0.2835   0.0759     H
C       0.7518   0.4883     0.64     C
H       0.7526   0.8428   0.8506     H
C       0.7528   0.3688   0.0951     C
C       0.7538   0.6198   0.4359     C
C        0.754   0.3562   0.1337     C
C       0.7547    0.058   0.9045     C
H       0.7559   0.5741   0.1338     H
C       0.7561   0.9719   0.3312     C
C       0.7565   0.7519   0.5139     C
H       0.7586   0.8688   0.6058     H
H       0.7588    0.478   0.5701     H
H         0.76    0.112   0.4636     H
C       0.7616    0.117   0.9072     C
C       0.7634   0.0762   0.6094     C
C       0.7675   0.2674   0.4681     C
H       0.7682   0.9354   0.3736     H
C       0.7685   0.5625   0.4409     C
C       0.7704   0.0688   0.0536     C
C       0.7709   0.9147   0.0986     C
H        0.773   0.1472   0.4068     H
O       0.7741   0.4171  0.02547     O
H       0.7754   0.7161   0.5001     H
C       0.7813   0.8115   0.3842     C
Cd     0.78162  0.94343  0.22977    Cd
H       0.7819   0.2668    0.668     H
C       0.7821   0.8353   0.9043     C
C       0.7828   0.3869   0.9004     C
C        0.783   0.8137   0.8647     C
H       0.7831   0.0483    0.031     H
H       0.7833   0.7524   0.9203     H
H       0.7885   0.9347   0.6125     H
H       0.7887   0.9267   0.1227     H
H       0.7892   0.3493   0.3925     H
H       0.7904   0.2312   0.4763     H
Ni     0.79172  0.42185  0.97554    Ni
H        0.792   0.3227   0.0467     H
C       0.7938   0.3157    0.072     C
C       0.7955   0.0812   0.1182     C
H       0.7964   0.9031    0.573     H
O       0.8007   0.4618   0.7321     O
C       0.8033   0.8291   0.4514     C
H       0.8048   0.4621   0.6298     H
H       0.8062   0.0377   0.8891     H
C       0.8069    0.899   0.5986     C
H       0.8084   0.8152   0.3608     H
O       0.8125   0.8947  0.97621     O
H       0.8133   0.3888   0.8772     H
Ni     0.81345  0.91997  0.02515    Ni
C       0.8141   0.0487   0.0851     C
C       0.8153    0.554   0.9394     C
N       0.8161    0.943   0.0742     N
H       0.8172   0.6332   0.0905     H
C       0.8181   0.0995   0.4477     C
H       0.8191   0.4146   0.3902     H
C         0.82   0.5797   0.9066     C
H       0.8203   0.1394   0.8994     H
C        0.821    0.462   0.6977     C
H       0.8221   0.7762   0.5163     H
H       0.8228   0.7984   0.9516     H
C       0.8242   0.3244   0.6041     C
H       0.8245   0.0675   0.1393     H
N       0.8247    0.421   0.9262     N
H       0.8261   0.6938   0.4256     H
C       0.8266   0.1215   0.4142     C
C       0.8275   0.7867   0.9259     C
H       0.8298   0.3478   0.1408     H
H       0.8326   0.2913   0.4656     H
C       0.8328   0.3457   0.5404     C
C       0.8331   0.4198   0.0879     C
H       0.8373   0.3862   0.4269     H
Cd      0.8387  0.24157  0.74681    Cd
C       0.8392   0.1406   0.5543     C
C       0.8397   0.4395   0.0512     C
C       0.8403   0.3798   0.4007     C
C        0.841    0.655   0.4278     C
C       0.8423   0.8353   0.4158     C
C       0.8433   0.9419   0.3106     C
H       0.8449   0.7425   0.0476     H
H       0.8503   0.6695   0.5916     H
H       0.8511   0.2262   0.9626     H
H       0.8525   0.3306   0.6278     H
O        0.854   0.8536  0.48036     O
C       0.8553     0.89    0.913     C
H       0.8583   0.6202   0.5352     H
H       0.8591   0.8051   0.8571     H
H       0.8621   0.1633    0.536     H
H       0.8646   0.7634   0.0088     H
Cd     0.86817  0.40416  0.77452    Cd
C       0.8692   0.9142   0.9504     C
C       0.8694   0.3555   0.5767     C
H       0.8697   0.3071   0.0789     H
H       0.8709   0.2532   0.0027     H
C       0.8724   0.0989   0.6092     C
O       0.8748   0.9507  0.27979     O
O       0.8754   0.3708  0.51358     O
C       0.8771   0.5428   0.4369     C
H       0.8782   0.5702   0.8901     H
C       0.8838   0.9949   0.0852     C
O       0.8847   0.8777   0.1989     O
H       0.8869   0.0443   0.4809     H
N       0.8904   0.4841   0.9819     N
C       0.8907   0.6351   0.5889     C
H       0.8916   0.4334   0.1377     H
H       0.8916   0.5037   0.4383     H
C       0.8936   0.6062   0.5552     C
C       0.8949   0.0587   0.4583     C
H       0.8974   0.8999   0.8614     H
O       0.8982   0.9051   0.3256     O
H       0.8986   0.8442   0.6509     H
H       0.8994   0.6438   0.0209     H
C       0.8994   0.7578   0.0318     C
C       0.8997   0.4455   0.1144     C
H       0.8999   0.4736   0.8936     H
O       0.9001   0.4329   0.6826     O
H       0.9047   0.7789   0.9194     H
C        0.905   0.2451   0.9791     C
H       0.9061   0.3179   0.3404     H
H       0.9083   0.1346     0.98     H
C       0.9106   0.9149   0.8854     C
C       0.9108   0.5107   0.9472     C
H       0.9144   0.9921   0.1098     H
C       0.9146   0.1293   0.5817     C
H       0.9153   0.6709   0.9837     H
C       0.9165   0.4591   0.9172     C
H       0.9165   0.7978   0.5925     H
C       0.9169   0.1044    0.392     C
H       0.9194   0.0933   0.6288     H
O       0.9197   0.3613   0.8227     O
C       0.9204   0.4845   0.0457     C
H       0.9262   0.1627     0.02     H
H       0.9269   0.3836    0.336     H
H       0.9272   0.7941   0.0428     H
H       0.9277   0.1205     0.37     H
H       0.9286   0.2807   0.9701     H
H        0.929   0.9097   0.6591     H
C       0.9315   0.8832   0.6056     C
C       0.9356    0.505    0.012     C
N       0.9361   0.9671   0.0219     N
H       0.9365    0.639    0.642     H
C       0.9376   0.8702   0.4084     C
C       0.9426   0.6177   0.6194     C
O       0.9448   0.9177  0.53154     O
H       0.9458    0.818   0.1448     H
C       0.9472   0.8747   0.6444     C
C       0.9491   0.6353   0.4228     C
C       0.9504   0.9621   0.9568     C
C       0.9505   0.3986    0.587     C
H       0.9509    0.274   0.3958     H
C       0.9524   0.6614   0.0056     C
H       0.9527   0.5314   0.5303     H
C       0.9529   0.5542   0.5525     C
H       0.9551   0.8312   0.5595     H
C       0.9552   0.3502   0.3466     C
C       0.9587   0.3099   0.8178     C
Ni     0.95881  0.91395  0.48199    Ni
O       0.9596   0.2649  0.70071     O
C       0.9603   0.3628   0.3888     C
C        0.962   0.1529   0.9968     C
O       0.9636   0.2835  0.78666     O
C       0.9639   0.8282   0.5853     C
H       0.9649   0.8677   0.3846     H
C       0.9657   0.5793   0.4308     C
H       0.9676   0.4063   0.6117     H
H       0.9713   0.7611   0.0932     H
H       0.9724   0.3025   0.8727     H
C       0.9736   0.8478   0.1966     C
C       0.9768   0.9826   0.9919     C
H       0.9779   0.2459   0.9172     H
C       0.9823     0.49   0.1098     C
C       0.9825   0.0396   0.4358     C
H       0.9827   0.5368   0.0109     H
H       0.9835   0.5309   0.9485     H
C       0.9835   0.9894   0.0562     C
C       0.9864   0.5085   0.0754     C
C       0.9864    0.962   0.8914     C
C       0.9891   0.8106   0.1649     C
N       0.9891   0.9053   0.4329     N
H       0.9893   0.1414   0.5815     H
C       0.9906   0.0635   0.4026     C
C       0.9916   0.2839   0.8501     C
O        0.993    0.183   0.7226     O
H       0.9957   0.9425   0.8169     H
C       0.9985   0.7148   0.0255     C
O       0.9999   0.4017  0.46288     O
