data_I
_chemical_name_common  '/home/zhangsd/repos/MofS-CGCNN/ML/data/SSD/clean_cifs/VIFBUJ_clean'
_cell_length_a 11.28740
_cell_length_b 11.89170
_cell_length_c 17.53520
_cell_angle_alpha 90.00000
_cell_angle_beta  90.00000
_cell_angle_gamma 106.72300
_space_group_name_H-M_alt      'P 1'


loop_
_space_group_symop_operation_xyz
  'x, y, z' 

loop_
_atom_site_label
_atom_site_fract_x
_atom_site_fract_y
_atom_site_fract_z
_atom_site_type_symbol
H       0.0026   0.1975     0.25     H
C       0.0035   0.6359     0.25     C
C       0.0069   0.3563   0.6088     C
C       0.0069   0.3563   0.8912     C
C       0.0332   0.1506   0.1114     C
C       0.0332   0.1506   0.3886     C
C       0.0446   0.1407     0.25     C
C       0.0455   0.6054   0.1809     C
C       0.0455   0.6054   0.3191     C
H       0.0543    0.322     0.75     H
O       0.0669   0.7068   0.0618     O
O       0.0669   0.7068   0.4382     O
C       0.0751   0.0994   0.1813     C
C       0.0751   0.0994   0.3187     C
O       0.0814   0.8781      0.6     O
O       0.0814   0.8781      0.9     O
O        0.107   0.4684   0.0519     O
O        0.107   0.4684   0.4481     O
O       0.1104   0.2252   0.0735     O
O       0.1104   0.2252   0.4265     O
O       0.1105   0.9641     0.05     O
O       0.1105   0.9641     0.45     O
O       0.1213   0.3858    0.603     O
O       0.1213   0.3858    0.897     O
C        0.133   0.5419   0.1804     C
C        0.133   0.5419   0.3196     C
C       0.1416   0.0167    0.181     C
C       0.1416   0.0167    0.319     C
C       0.1696    0.961   0.1102     C
C       0.1696    0.961   0.3898     C
C        0.175   0.9771     0.25     C
C       0.1754   0.4948     0.11     C
C       0.1754   0.4948     0.39     C
C       0.1758   0.5112     0.25     C
Tm     0.20569  0.83216   0.5128    Tm
Tm     0.20569  0.83216   0.9872    Tm
H       0.2339   0.4694     0.25     H
Tm     0.23855  0.35657  0.50175    Tm
Tm     0.23855  0.35657  0.99825    Tm
O       0.2523   0.9069   0.1122     O
O       0.2523   0.9069   0.3878     O
O       0.2801   0.4754   0.1101     O
O       0.2801   0.4754   0.3899     O
O       0.3461   0.5479   0.5574     O
O       0.3461   0.5479   0.9426     O
H        0.358   0.4308     0.75     H
O       0.3798   0.3911   0.6054     O
O       0.3798   0.3911   0.8946     O
H       0.3857   0.1864     0.25     H
C       0.3907   0.4989   0.6104     C
C       0.3907   0.4989   0.8896     C
O       0.3925   0.3066   0.0542     O
O       0.3925   0.3066   0.4458     O
C       0.4087   0.5079     0.75     C
C        0.429   0.2525   0.1075     C
C        0.429   0.2525   0.3925     C
O       0.4305   0.1489   0.1036     O
O       0.4305   0.1489   0.3964     O
C       0.4374    0.263     0.25     C
C       0.4462   0.5648   0.6802     C
C       0.4462   0.5648   0.8198     C
C       0.4758   0.3198   0.1805     C
C       0.4758   0.3198   0.3195     C
C       0.5242   0.6802   0.6805     C
C       0.5242   0.6802   0.8195     C
C       0.5538   0.4352   0.1802     C
C       0.5538   0.4352   0.3198     C
C       0.5626    0.737     0.75     C
O       0.5695   0.8511   0.6036     O
O       0.5695   0.8511   0.8964     O
C        0.571   0.7475   0.6075     C
C        0.571   0.7475   0.8925     C
C       0.5913   0.4921     0.25     C
O       0.6075   0.6934   0.5542     O
O       0.6075   0.6934   0.9458     O
C       0.6093   0.5011   0.1104     C
C       0.6093   0.5011   0.3896     C
H       0.6143   0.8136     0.75     H
O       0.6202   0.6089   0.1054     O
O       0.6202   0.6089   0.3946     O
H        0.642   0.5692     0.25     H
O       0.6539   0.4521   0.0574     O
O       0.6539   0.4521   0.4426     O
O       0.7199   0.5246   0.6101     O
O       0.7199   0.5246   0.8899     O
O       0.7477   0.0931   0.6122     O
O       0.7477   0.0931   0.8878     O
Tm     0.76145  0.64343  0.00175    Tm
Tm     0.76145  0.64343  0.49825    Tm
H       0.7661   0.5306     0.75     H
Tm     0.79431  0.16784   0.0128    Tm
Tm     0.79431  0.16784   0.4872    Tm
C       0.8242   0.4888     0.75     C
C       0.8246   0.5052     0.61     C
C       0.8246   0.5052     0.89     C
C        0.825   0.0229     0.75     C
C       0.8304    0.039   0.6102     C
C       0.8304    0.039   0.8898     C
C       0.8584   0.9833    0.681     C
C       0.8584   0.9833    0.819     C
C        0.867   0.4581   0.6804     C
C        0.867   0.4581   0.8196     C
O       0.8787   0.6142    0.103     O
O       0.8787   0.6142    0.397     O
O       0.8895   0.0359     0.55     O
O       0.8895   0.0359     0.95     O
O       0.8896   0.7748   0.5735     O
O       0.8896   0.7748   0.9265     O
O        0.893   0.5316   0.5519     O
O        0.893   0.5316   0.9481     O
O       0.9186   0.1219      0.1     O
O       0.9186   0.1219      0.4     O
C       0.9249   0.9006   0.6813     C
C       0.9249   0.9006   0.8187     C
O       0.9331   0.2932   0.5618     O
O       0.9331   0.2932   0.9382     O
H       0.9457    0.678     0.25     H
C       0.9545   0.3946   0.6809     C
C       0.9545   0.3946   0.8191     C
C       0.9554   0.8593     0.75     C
C       0.9668   0.8494   0.6114     C
C       0.9668   0.8494   0.8886     C
C       0.9931   0.6437   0.1088     C
C       0.9931   0.6437   0.3912     C
C       0.9965   0.3641     0.75     C
H       0.9974   0.8025     0.75     H
