data_I
_chemical_name_common  '/home/zhangsd/repos/MofS-CGCNN/ML/data/SSD/clean_cifs/VIXPUP01_clean'
_cell_length_a 18.66270
_cell_length_b 27.91610
_cell_length_c 32.36430
_cell_angle_alpha 112.65500
_cell_angle_beta  90.00000
_cell_angle_gamma 90.00000
_space_group_name_H-M_alt      'P 1'


loop_
_space_group_symop_operation_xyz
  'x, y, z' 

loop_
_atom_site_label
_atom_site_fract_x
_atom_site_fract_y
_atom_site_fract_z
_atom_site_type_symbol
Cu     0.00197  0.20176  0.23041    Cu
Cu     0.00715  0.28716  0.30476    Cu
C       0.0119   0.4735   0.9985     C
C       0.0129   0.9742   0.5006     C
H       0.0274    0.739   0.9939     H
H       0.0281    0.252   0.5327     H
C       0.0287   0.2171   0.5307     C
C       0.0292   0.7053   0.9946     C
C       0.0329   0.6067   0.9974     C
C       0.0332    0.319      0.0     C
C       0.0332   0.8586   0.4686     C
C       0.0333    0.116   0.5269     C
C       0.0338   0.3678   0.9991     C
C       0.0342   0.8077   0.4668     C
N       0.0368   0.0631   0.5223     N
N       0.0377   0.5556   0.9966     N
O       0.0563  0.74925  0.67002     O
O       0.0646  0.81962  0.73303     O
O       0.0692   0.9678   0.5138     O
O       0.0697  0.23921  0.20696     O
O       0.0697   0.3116  0.26899     O
H       0.0731   0.0537   0.5349     H
O       0.0732   0.4625   0.9935     O
O       0.0746  0.69269  0.72273     O
H       0.0764   0.8757   0.4668     H
O       0.0768  0.76298  0.78632     O
H       0.0774   0.3839   0.9961     H
C       0.0793   0.7931  0.69242     C
H        0.081    0.542   0.9922     H
O       0.0825  0.17969  0.25751     O
C       0.0872   0.2858  0.23007     C
O       0.0883  0.25249  0.31891     O
C       0.0925   0.1903   0.5251     C
C       0.0938   0.6798   0.9902     C
C       0.0959   0.6292   0.9913     C
C        0.096   0.1405   0.5232     C
C       0.0972  0.71846   0.7616     C
O       0.1008  0.24697  0.99902     O
C       0.1039   0.2919  0.99876     C
O       0.1039  0.73493  0.45991     O
C       0.1051   0.7821  0.46339     C
C       0.1071   0.2065  0.29553     C
H       0.1268   0.7574   0.6082     H
C       0.1297   0.8175  0.66941     C
C       0.1303   0.3123   0.2061     C
H       0.1349   0.2529   0.1445     H
H       0.1395     0.38     0.26     H
H       0.1401   0.6112    0.988     H
H       0.1407   0.1231   0.5194     H
H        0.145   0.8843   0.7245     H
C       0.1462   0.7909  0.62447     C
C       0.1476   0.2882  0.16053     C
C       0.1505   0.3632    0.229     C
C       0.1516   0.6932  0.77944     C
C       0.1566   0.8667  0.69373     C
O        0.157   0.7474  0.98098     O
O       0.1583  0.26098  0.52108     O
H       0.1585   0.7502    0.842     H
O       0.1598   0.9732   0.7536     O
O       0.1601  0.31726  0.99927     O
O       0.1605  0.80875   0.4671     O
C       0.1614   0.2154   0.5196     C
C       0.1621    0.703   0.9823     C
C       0.1645   0.1828  0.31347     C
H       0.1681   0.6286   0.7215     H
H       0.1715    0.244   0.3746     H
H       0.1734   0.1158   0.2592     H
C       0.1755   0.7165  0.82383     C
O        0.178  0.24435  0.07036     O
O       0.1798  0.74394  0.53359     O
C       0.1803   0.6438  0.75233     C
C       0.1825   0.3148   0.1388     C
Cu     0.18589  0.20974  0.00486    Cu
C       0.1861   0.3898   0.2077     C
C       0.1883   0.2098  0.35772     C
C       0.1903   0.1341   0.2888     C
Cu     0.19087  0.70301  0.46817    Cu
C       0.1911   0.8139  0.60403     C
H       0.1935   0.0544   0.7962     H
C        0.198     0.29  0.08996     C
C       0.2015   0.8899   0.6718     C
H       0.2027   0.1216   0.8642     H
O       0.2048   0.1869  0.94168     O
O       0.2052   0.0306   0.2214     O
N       0.2052    0.443   0.2334     N
C       0.2058   0.3658   0.1625     C
H       0.2067   0.4526   0.2627     H
C       0.2076   0.7872  0.55472     C
C       0.2083   0.9759   0.7314     C
H       0.2161   0.6244   0.3262     H
C       0.2172   0.8634   0.6271     C
O       0.2177  0.18758  0.51309     O
O       0.2179   0.6777  0.97928     O
C       0.2202   0.4779    0.218     C
O       0.2209  0.68719  0.40422     O
O       0.2213   0.4738   0.1804     O
C       0.2223   0.6924   0.8417     C
C       0.2243   0.6185   0.7698     C
O       0.2245  0.76104  0.91075     O
O       0.2282   0.5369   0.2944     O
N        0.229   0.9401   0.6935     N
O       0.2309  0.31716   0.0728     O
N       0.2311   0.0624   0.7837     N
O       0.2311  0.25701  0.44579     O
H       0.2339   0.3836   0.1484     H
H       0.2353   0.9486   0.1799     H
C       0.2357   0.1864  0.37616     C
C       0.2365   0.1372   0.8512     C
C        0.237   0.5318   0.2556     C
Cu     0.23832  0.78963  0.97474    Cu
C       0.2413   0.1115   0.3072     C
C       0.2437   0.2135  0.92525     C
Cu     0.24459  0.29473   0.5096    Cu
C       0.2447   0.7141   0.8892     C
O       0.2453  0.81293  0.53758     O
N       0.2456   0.5663  0.74218     N
H       0.2462   0.5581   0.7131     H
H       0.2464   0.8794    0.612     H
C        0.248    0.025   0.2452     C
C       0.2498   0.6416   0.3147     C
C       0.2502   0.6416   0.8147     C
C        0.252    0.025   0.7452     C
H       0.2536   0.8794    0.112     H
H       0.2538   0.5581   0.2131     H
N       0.2544   0.5663  0.24218     N
O       0.2547  0.81293  0.03758     O
C       0.2553   0.7141   0.3892     C
Cu     0.25541  0.29473   0.0096    Cu
C       0.2563   0.2135  0.42525     C
C       0.2587   0.1115   0.8072     C
Cu     0.26168  0.78963  0.47474    Cu
C        0.263   0.5318   0.7556     C
C       0.2635   0.1372   0.3512     C
C       0.2643   0.1864  0.87616     C
H       0.2647   0.9486   0.6799     H
H       0.2661   0.3836   0.6484     H
N       0.2689   0.0624   0.2837     N
O       0.2689  0.25701  0.94579     O
O       0.2691  0.31716   0.5728     O
N        0.271   0.9401   0.1935     N
O       0.2718   0.5369   0.7944     O
O       0.2755  0.76104  0.41075     O
C       0.2757   0.6185   0.2698     C
C       0.2777   0.6924   0.3417     C
O       0.2787   0.4738   0.6804     O
O       0.2791  0.68719  0.90422     O
C       0.2798   0.4779    0.718     C
O       0.2821   0.6777  0.47928     O
O       0.2823  0.18758  0.01309     O
C       0.2828   0.8634   0.1271     C
H       0.2839   0.6244   0.8262     H
C       0.2917   0.9759   0.2314     C
C       0.2924   0.7872  0.05472     C
H       0.2933   0.4526   0.7627     H
C       0.2942   0.3658   0.6625     C
O       0.2948   0.0306   0.7214     O
N       0.2948    0.443   0.7334     N
O       0.2952   0.1869  0.44168     O
H       0.2973   0.1216   0.3642     H
C       0.2985   0.8899   0.1718     C
C        0.302     0.29  0.58996     C
H       0.3065   0.0544   0.2962     H
C       0.3089   0.8139  0.10403     C
Cu     0.30913  0.70301  0.96817    Cu
C       0.3097   0.1341   0.7888     C
C       0.3117   0.2098  0.85772     C
C       0.3139   0.3898   0.7077     C
Cu     0.31411  0.20974  0.50486    Cu
C       0.3175   0.3148   0.6388     C
C       0.3197   0.6438  0.25233     C
O       0.3202  0.74394  0.03359     O
O        0.322  0.24435  0.57036     O
C       0.3245   0.7165  0.32383     C
H       0.3266   0.1158   0.7592     H
H       0.3285    0.244   0.8746     H
H       0.3319   0.6286   0.2215     H
C       0.3355   0.1828  0.81347     C
C       0.3379    0.703   0.4823     C
C       0.3386   0.2154   0.0196     C
O       0.3395  0.80875   0.9671     O
O       0.3399  0.31726  0.49927     O
O       0.3402   0.9732   0.2536     O
H       0.3415   0.7502    0.342     H
O       0.3417  0.26098  0.02108     O
O        0.343   0.7474  0.48098     O
C       0.3434   0.8667  0.19373     C
C       0.3484   0.6932  0.27944     C
C       0.3495   0.3632    0.729     C
C       0.3524   0.2882  0.66053     C
C       0.3538   0.7909  0.12447     C
H        0.355   0.8843   0.2245     H
H       0.3593   0.1231   0.0194     H
H       0.3599   0.6112    0.488     H
H       0.3605     0.38     0.76     H
H       0.3651   0.2529   0.6445     H
C       0.3697   0.3123   0.7061     C
C       0.3703   0.8175  0.16941     C
H       0.3732   0.7574   0.1082     H
C       0.3929   0.2065  0.79553     C
C       0.3949   0.7821  0.96339     C
C       0.3961   0.2919  0.49876     C
O       0.3961  0.73493  0.95991     O
O       0.3992  0.24697  0.49902     O
C       0.4028  0.71846   0.2616     C
C        0.404   0.1405   0.0232     C
C       0.4041   0.6292   0.4913     C
C       0.4062   0.6798   0.4902     C
C       0.4075   0.1903   0.0251     C
O       0.4117  0.25249  0.81891     O
C       0.4128   0.2858  0.73007     C
O       0.4175  0.17969  0.75751     O
H        0.419    0.542   0.4922     H
C       0.4207   0.7931  0.19242     C
H       0.4226   0.3839   0.4961     H
O       0.4232  0.76298  0.28632     O
H       0.4236   0.8757   0.9668     H
O       0.4254  0.69269  0.22273     O
O       0.4268   0.4625   0.4935     O
H       0.4269   0.0537   0.0349     H
O       0.4303  0.23921  0.70696     O
O       0.4303   0.3116  0.76899     O
O       0.4308   0.9678   0.0138     O
O       0.4354  0.81962  0.23303     O
O       0.4437  0.74925  0.17002     O
N       0.4623   0.5556   0.4966     N
N       0.4632   0.0631   0.0223     N
C       0.4658   0.8077   0.9668     C
C       0.4662   0.3678   0.4991     C
C       0.4667    0.116   0.0269     C
C       0.4668    0.319      0.5     C
C       0.4668   0.8586   0.9686     C
C       0.4671   0.6067   0.4974     C
C       0.4708   0.7053   0.4946     C
C       0.4713   0.2171   0.0307     C
H       0.4719    0.252   0.0327     H
H       0.4726    0.739   0.4939     H
C       0.4871   0.9742   0.0006     C
C       0.4881   0.4735   0.4985     C
Cu     0.49285  0.28716  0.80476    Cu
Cu     0.49803  0.20176  0.73041    Cu
Cu     0.50197  0.79824  0.26959    Cu
Cu     0.50715  0.71284  0.19524    Cu
C       0.5119   0.5265   0.5015     C
C       0.5129   0.0258   0.9994     C
H       0.5274    0.261   0.5061     H
H       0.5281    0.748   0.9673     H
C       0.5287   0.7829   0.9693     C
C       0.5292   0.2947   0.5054     C
C       0.5329   0.3933   0.5026     C
C       0.5332   0.1414   0.0314     C
C       0.5332    0.681      0.5     C
C       0.5333    0.884   0.9731     C
C       0.5338   0.6322   0.5009     C
C       0.5342   0.1923   0.0332     C
N       0.5368   0.9369   0.9777     N
N       0.5377   0.4444   0.5034     N
O       0.5563  0.25075  0.82998     O
O       0.5646  0.18038  0.76697     O
O       0.5692   0.0322   0.9862     O
O       0.5697   0.6884  0.23101     O
O       0.5697  0.76079  0.29304     O
H       0.5731   0.9463   0.9651     H
O       0.5732   0.5375   0.5065     O
O       0.5746  0.30731  0.77727     O
H       0.5764   0.1243   0.0332     H
O       0.5768  0.23702  0.71368     O
H       0.5774   0.6161   0.5039     H
C       0.5793   0.2069  0.80758     C
H        0.581    0.458   0.5078     H
O       0.5825  0.82031  0.24249     O
C       0.5872   0.7142  0.26993     C
O       0.5883  0.74751  0.18109     O
C       0.5925   0.8097   0.9749     C
C       0.5938   0.3202   0.5098     C
C       0.5959   0.3708   0.5087     C
C        0.596   0.8595   0.9768     C
C       0.5972  0.28154   0.7384     C
O       0.6008  0.75303  0.50098     O
O       0.6039  0.26507  0.04009     O
C       0.6039   0.7081  0.50124     C
C       0.6051   0.2179  0.03661     C
C       0.6071   0.7935  0.20447     C
H       0.6268   0.2426   0.8918     H
C       0.6297   0.1825  0.83059     C
C       0.6303   0.6877   0.2939     C
H       0.6349   0.7471   0.3555     H
H       0.6395     0.62     0.24     H
H       0.6401   0.3888    0.512     H
H       0.6407   0.8769   0.9806     H
H        0.645   0.1157   0.7755     H
C       0.6462   0.2091  0.87553     C
C       0.6476   0.7118  0.33947     C
C       0.6505   0.6368    0.271     C
C       0.6516   0.3068  0.72056     C
C       0.6566   0.1333  0.80627     C
O        0.657   0.2526  0.51902     O
O       0.6583  0.73902  0.97892     O
H       0.6585   0.2498    0.658     H
O       0.6598   0.0268   0.7464     O
O       0.6601  0.68274  0.50073     O
O       0.6605  0.19125   0.0329     O
C       0.6614   0.7846   0.9804     C
C       0.6621    0.297   0.5177     C
C       0.6645   0.8172  0.18653     C
H       0.6681   0.3714   0.7785     H
H       0.6715    0.756   0.1254     H
H       0.6734   0.8842   0.2408     H
C       0.6755   0.2835  0.67617     C
O        0.678  0.75565  0.42964     O
O       0.6798  0.25606  0.96641     O
C       0.6803   0.3562  0.74767     C
C       0.6825   0.6852   0.3612     C
Cu     0.68589  0.79026  0.49514    Cu
C       0.6861   0.6102   0.2923     C
C       0.6883   0.7902  0.14228     C
C       0.6903   0.8659   0.2112     C
Cu     0.69087  0.29699  0.03183    Cu
C       0.6911   0.1861  0.89597     C
H       0.6935   0.9456   0.7038     H
C        0.698     0.71  0.41004     C
C       0.7015   0.1101   0.8282     C
H       0.7027   0.8784   0.6358     H
O       0.7048   0.8131  0.55832     O
N       0.7052    0.557   0.2666     N
O       0.7052   0.9694   0.2786     O
C       0.7058   0.6342   0.3375     C
H       0.7067   0.5474   0.2373     H
C       0.7076   0.2128  0.94528     C
C       0.7083   0.0241   0.7686     C
H       0.7161   0.3756   0.1738     H
C       0.7172   0.1366   0.8729     C
O       0.7177  0.81242  0.98691     O
O       0.7179   0.3223  0.52072     O
C       0.7202   0.5221    0.282     C
O       0.7209  0.31281  0.09578     O
O       0.7213   0.5262   0.3196     O
C       0.7223   0.3076   0.6583     C
C       0.7243   0.3815   0.7302     C
O       0.7245  0.23896  0.58925     O
O       0.7282   0.4631   0.2056     O
N        0.729   0.0599   0.8065     N
O       0.7309  0.68284   0.4272     O
O       0.7311  0.74299  0.05421     O
N       0.7311   0.9376   0.7163     N
H       0.7339   0.6164   0.3516     H
H       0.7353   0.0514   0.3201     H
C       0.7357   0.8136  0.12384     C
C       0.7365   0.8628   0.6488     C
C        0.737   0.4682   0.2444     C
Cu     0.73832  0.21037  0.52526    Cu
C       0.7413   0.8885   0.1928     C
C       0.7437   0.7865  0.57475     C
Cu     0.74459  0.70527   0.9904    Cu
C       0.7447   0.2859   0.6108     C
O       0.7453  0.18707  0.96242     O
N       0.7456   0.4337  0.75782     N
H       0.7462   0.4419   0.7869     H
H       0.7464   0.1206    0.888     H
C        0.748    0.975   0.2548     C
C       0.7498   0.3584   0.1853     C
C       0.7502   0.3584   0.6853     C
C        0.752    0.975   0.7548     C
H       0.7536   0.1206    0.388     H
H       0.7538   0.4419   0.2869     H
N       0.7544   0.4337  0.25782     N
O       0.7547  0.18707  0.46242     O
C       0.7553   0.2859   0.1108     C
Cu     0.75541  0.70527   0.4904    Cu
C       0.7563   0.7865  0.07475     C
C       0.7587   0.8885   0.6928     C
Cu     0.76168  0.21037  0.02526    Cu
C        0.763   0.4682   0.7444     C
C       0.7635   0.8628   0.1488     C
C       0.7643   0.8136  0.62384     C
H       0.7647   0.0514   0.8201     H
H       0.7661   0.6164   0.8516     H
O       0.7689  0.74299  0.55421     O
N       0.7689   0.9376   0.2163     N
O       0.7691  0.68284   0.9272     O
N        0.771   0.0599   0.3065     N
O       0.7718   0.4631   0.7056     O
O       0.7755  0.23896  0.08925     O
C       0.7757   0.3815   0.2302     C
C       0.7777   0.3076   0.1583     C
O       0.7787   0.5262   0.8196     O
O       0.7791  0.31281  0.59578     O
C       0.7798   0.5221    0.782     C
O       0.7821   0.3223  0.02072     O
O       0.7823  0.81242  0.48691     O
C       0.7828   0.1366   0.3729     C
H       0.7839   0.3756   0.6738     H
C       0.7917   0.0241   0.2686     C
C       0.7924   0.2128  0.44528     C
H       0.7933   0.5474   0.7373     H
C       0.7942   0.6342   0.8375     C
N       0.7948    0.557   0.7666     N
O       0.7948   0.9694   0.7786     O
O       0.7952   0.8131  0.05832     O
H       0.7973   0.8784   0.1358     H
C       0.7985   0.1101   0.3282     C
C        0.802     0.71  0.91004     C
H       0.8065   0.9456   0.2038     H
C       0.8089   0.1861  0.39597     C
Cu     0.80913  0.29699  0.53183    Cu
C       0.8097   0.8659   0.7112     C
C       0.8117   0.7902  0.64228     C
C       0.8139   0.6102   0.7923     C
Cu     0.81411  0.79026  0.99514    Cu
C       0.8175   0.6852   0.8612     C
C       0.8197   0.3562  0.24767     C
O       0.8202  0.25606  0.46641     O
O        0.822  0.75565  0.92964     O
C       0.8245   0.2835  0.17617     C
H       0.8266   0.8842   0.7408     H
H       0.8285    0.756   0.6254     H
H       0.8319   0.3714   0.2785     H
C       0.8355   0.8172  0.68653     C
C       0.8379    0.297   0.0177     C
C       0.8386   0.7846   0.4804     C
O       0.8395  0.19125   0.5329     O
O       0.8399  0.68274  0.00073     O
O       0.8402   0.0268   0.2464     O
H       0.8415   0.2498    0.158     H
O       0.8417  0.73902  0.47892     O
O        0.843   0.2526  0.01902     O
C       0.8434   0.1333  0.30627     C
C       0.8484   0.3068  0.22056     C
C       0.8495   0.6368    0.771     C
C       0.8524   0.7118  0.83947     C
C       0.8538   0.2091  0.37553     C
H        0.855   0.1157   0.2755     H
H       0.8593   0.8769   0.4806     H
H       0.8599   0.3888    0.012     H
H       0.8605     0.62     0.74     H
H       0.8651   0.7471   0.8555     H
C       0.8697   0.6877   0.7939     C
C       0.8703   0.1825  0.33059     C
H       0.8732   0.2426   0.3918     H
C       0.8929   0.7935  0.70447     C
C       0.8949   0.2179  0.53661     C
O       0.8961  0.26507  0.54009     O
C       0.8961   0.7081  0.00124     C
O       0.8992  0.75303  0.00098     O
C       0.9028  0.28154   0.2384     C
C        0.904   0.8595   0.4768     C
C       0.9041   0.3708   0.0087     C
C       0.9062   0.3202   0.0098     C
C       0.9075   0.8097   0.4749     C
O       0.9117  0.74751  0.68109     O
C       0.9128   0.7142  0.76993     C
O       0.9175  0.82031  0.74249     O
H        0.919    0.458   0.0078     H
C       0.9207   0.2069  0.30758     C
H       0.9226   0.6161   0.0039     H
O       0.9232  0.23702  0.21368     O
H       0.9236   0.1243   0.5332     H
O       0.9254  0.30731  0.27727     O
O       0.9268   0.5375   0.0065     O
H       0.9269   0.9463   0.4651     H
O       0.9303   0.6884  0.73101     O
O       0.9303  0.76079  0.79304     O
O       0.9308   0.0322   0.4862     O
O       0.9354  0.18038  0.26697     O
O       0.9437  0.25075  0.32998     O
N       0.9623   0.4444   0.0034     N
N       0.9632   0.9369   0.4777     N
C       0.9658   0.1923   0.5332     C
C       0.9662   0.6322   0.0009     C
C       0.9667    0.884   0.4731     C
C       0.9668   0.1414   0.5314     C
C       0.9668    0.681     -0.0     C
C       0.9671   0.3933   0.0026     C
C       0.9708   0.2947   0.0054     C
C       0.9713   0.7829   0.4693     C
H       0.9719    0.748   0.4673     H
H       0.9726    0.261   0.0061     H
C       0.9871   0.0258   0.4994     C
C       0.9881   0.5265   0.0015     C
Cu     0.99285  0.71284  0.69524    Cu
Cu     0.99803  0.79824  0.76959    Cu
