data_I
_chemical_name_common  '/home/zhangsd/repos/MofS-CGCNN/ML/data/SSD/clean_cifs/VODSEM_clean'
_cell_length_a  6.72400
_cell_length_b 14.09600
_cell_length_c 23.98400
_cell_angle_alpha 90.00000
_cell_angle_beta  90.00000
_cell_angle_gamma 90.00000
_space_group_name_H-M_alt      'P 1'


loop_
_space_group_symop_operation_xyz
  'x, y, z' 

loop_
_atom_site_label
_atom_site_fract_x
_atom_site_fract_y
_atom_site_fract_z
_atom_site_type_symbol
O       0.0059   0.1094   0.7142     O
O       0.0059   0.6094   0.7858     O
C       0.0106   0.0129   0.2095     C
C       0.0106   0.5129   0.2905     C
O       0.0124   0.2941   0.0292     O
O       0.0124   0.7941   0.4708     O
C       0.0152   0.0269   0.7338     C
C       0.0152   0.5269   0.7662     C
C       0.0245   0.3911   0.7325     C
C       0.0245   0.8911   0.7675     C
O       0.0248   0.3086   0.7134     O
O       0.0248   0.8086   0.7866     O
O       0.0449   0.4794   0.3374     O
O       0.0449   0.9794   0.1626     O
C       0.0566   0.4336   0.7876     C
C       0.0566   0.9336   0.7124     C
O       0.1048   0.4035   0.8353     O
O       0.1048   0.9035   0.6647     O
O       0.1057   0.3006  0.93975     O
O       0.1057   0.8006  0.56025     O
La     0.11769  0.29411  0.13399    La
La     0.11769  0.79411  0.36601    La
C       0.1404   0.2965   0.9914     C
C       0.1404   0.7965   0.5086     C
C       0.3596   0.2965   0.0086     C
C       0.3596   0.7965   0.4914     C
La     0.38231  0.29411  0.86601    La
La     0.38231  0.79411  0.63399    La
O       0.3943   0.3006  0.06025     O
O       0.3943   0.8006  0.43975     O
O       0.3952   0.4035   0.1647     O
O       0.3952   0.9035   0.3353     O
C       0.4434   0.4336   0.2124     C
C       0.4434   0.9336   0.2876     C
O       0.4551   0.4794   0.6626     O
O       0.4551   0.9794   0.8374     O
O       0.4752   0.3086   0.2866     O
O       0.4752   0.8086   0.2134     O
C       0.4755   0.3911   0.2675     C
C       0.4755   0.8911   0.2325     C
C       0.4848   0.0269   0.2662     C
C       0.4848   0.5269   0.2338     C
O       0.4876   0.2941   0.9708     O
O       0.4876   0.7941   0.5292     O
C       0.4894   0.0129   0.7905     C
C       0.4894   0.5129   0.7095     C
O       0.4941   0.1094   0.2858     O
O       0.4941   0.6094   0.2142     O
O       0.5059   0.3906   0.7858     O
O       0.5059   0.8906   0.7142     O
C       0.5106   0.4871   0.2905     C
C       0.5106   0.9871   0.2095     C
O       0.5124   0.2059   0.4708     O
O       0.5124   0.7059   0.0292     O
C       0.5152   0.4731   0.7662     C
C       0.5152   0.9731   0.7338     C
C       0.5245   0.1089   0.7675     C
C       0.5245   0.6089   0.7325     C
O       0.5248   0.1914   0.7866     O
O       0.5248   0.6914   0.7134     O
O       0.5449   0.0206   0.1626     O
O       0.5449   0.5206   0.3374     O
C       0.5566   0.0664   0.7124     C
C       0.5566   0.5664   0.7876     C
O       0.6048   0.0965   0.6647     O
O       0.6048   0.5965   0.8353     O
O       0.6057   0.1994  0.56025     O
O       0.6057   0.6994  0.93975     O
La     0.61769  0.20589  0.36601    La
La     0.61769  0.70589  0.13399    La
C       0.6404   0.2035   0.5086     C
C       0.6404   0.7035   0.9914     C
C       0.8596   0.2035   0.4914     C
C       0.8596   0.7035   0.0086     C
La     0.88231  0.20589  0.63399    La
La     0.88231  0.70589  0.86601    La
O       0.8943   0.1994  0.43975     O
O       0.8943   0.6994  0.06025     O
O       0.8952   0.0965   0.3353     O
O       0.8952   0.5965   0.1647     O
C       0.9434   0.0664   0.2876     C
C       0.9434   0.5664   0.2124     C
O       0.9551   0.0206   0.8374     O
O       0.9551   0.5206   0.6626     O
O       0.9752   0.1914   0.2134     O
O       0.9752   0.6914   0.2866     O
C       0.9755   0.1089   0.2325     C
C       0.9755   0.6089   0.2675     C
C       0.9848   0.4731   0.2338     C
C       0.9848   0.9731   0.2662     C
O       0.9876   0.2059   0.5292     O
O       0.9876   0.7059   0.9708     O
C       0.9894   0.4871   0.7095     C
C       0.9894   0.9871   0.7905     C
O       0.9941   0.3906   0.2142     O
O       0.9941   0.8906   0.2858     O
