data_I
_chemical_name_common  '/home/zhangsd/repos/MofS-CGCNN/ML/data/SSD/clean_cifs/VOJGOS_clean'
_cell_length_a 11.87700
_cell_length_b 13.85500
_cell_length_c 13.92100
_cell_angle_alpha 90.00000
_cell_angle_beta  114.40300
_cell_angle_gamma 90.00000
_space_group_name_H-M_alt      'P 1'


loop_
_space_group_symop_operation_xyz
  'x, y, z' 

loop_
_atom_site_label
_atom_site_fract_x
_atom_site_fract_y
_atom_site_fract_z
_atom_site_type_symbol
C       0.0014  0.56824   0.6427     C
C       0.0014  0.93176   0.1427     C
H        0.035   0.2036   0.3434     H
H        0.035   0.2964   0.8434     H
C       0.0369  0.66461  0.65771     C
C       0.0369  0.83539  0.15771     C
C       0.0545  0.23118   0.8542     C
C       0.0545  0.26882   0.3542     C
H       0.0599   0.5206   0.6513     H
H       0.0599   0.9794   0.1513     H
C       0.1192  0.04346   0.8845     C
C       0.1192  0.45654   0.3845     C
H       0.1408   0.5215   0.3941     H
H       0.1408   0.9785   0.8941     H
C       0.1676  0.69219  0.68492     C
C       0.1676  0.80781  0.18492     C
C       0.1741  0.20128  0.88203     C
C       0.1741  0.29872  0.38203     C
H       0.1783   0.6931   0.2782     H
H       0.1783   0.8069   0.7782     H
H       0.1989   0.5896   0.5962     H
H       0.1989   0.9104   0.0962     H
N      0.20819  0.10894  0.89797     N
N      0.20819  0.39106  0.39797     N
C        0.224   0.7312   0.2524     C
C        0.224   0.7688   0.7524     C
H        0.234   0.2476   0.8901     H
H        0.234   0.2524   0.3901     H
C       0.2363  0.63987  0.64282     C
C       0.2363  0.86013  0.14282     C
O      0.34662  0.55809  0.35318     O
O      0.34662  0.94191  0.85318     O
C       0.3489  0.71144  0.28141     C
C       0.3489  0.78856  0.78141     C
C       0.3597  0.66107  0.66884     C
C       0.3597  0.83893  0.16884     C
O      0.37033  0.53607  0.55868     O
O      0.37033  0.96393  0.05868     O
Zn     0.38482  0.05975  0.95038    Zn
Zn     0.38482  0.44025  0.45038    Zn
C         0.41  0.63242  0.35957     C
C         0.41  0.86758  0.85957     C
C       0.4164  0.73419  0.74037     C
C       0.4164  0.76581  0.24037     C
C       0.4282  0.60435  0.61732     C
C       0.4282  0.89565  0.11732     C
O      0.46351  0.12984  0.86519     O
O      0.46351  0.37016  0.36519     O
O      0.48104  0.14698  0.07517     O
O      0.48104  0.35302  0.57517     O
H       0.4999   0.2468   0.7391     H
H       0.4999   0.2532   0.2391     H
H       0.5001   0.7468   0.7609     H
H       0.5001   0.7532   0.2609     H
O      0.51896  0.64698  0.42483     O
O      0.51896  0.85302  0.92483     O
O      0.53649  0.62984  0.63481     O
O      0.53649  0.87016  0.13481     O
C       0.5718  0.10435  0.88268     C
C       0.5718  0.39565  0.38268     C
C       0.5836  0.23419  0.75963     C
C       0.5836  0.26581  0.25963     C
C         0.59  0.13242  0.14043     C
C         0.59  0.36758  0.64043     C
Zn     0.61518  0.55975  0.54962    Zn
Zn     0.61518  0.94025  0.04962    Zn
O      0.62967  0.03607  0.94132     O
O      0.62967  0.46393  0.44132     O
C       0.6403  0.16107  0.83116     C
C       0.6403  0.33893  0.33116     C
C       0.6511  0.21144  0.21859     C
C       0.6511  0.28856  0.71859     C
O      0.65338  0.05809  0.14682     O
O      0.65338  0.44191  0.64682     O
C       0.7637  0.13987  0.85718     C
C       0.7637  0.36013  0.35718     C
H        0.766   0.7476   0.6099     H
H        0.766   0.7524   0.1099     H
C        0.776   0.2312   0.2476     C
C        0.776   0.2688   0.7476     C
N      0.79181  0.60894  0.60203     N
N      0.79181  0.89106  0.10203     N
H       0.8011   0.0896   0.9038     H
H       0.8011   0.4104   0.4038     H
H       0.8217   0.1931   0.2218     H
H       0.8217   0.3069   0.7218     H
C       0.8259  0.70128  0.61797     C
C       0.8259  0.79872  0.11797     C
C       0.8324  0.19219  0.81508     C
C       0.8324  0.30781  0.31508     C
H       0.8592   0.0215   0.1059     H
H       0.8592   0.4785   0.6059     H
C       0.8808  0.54346   0.6155     C
C       0.8808  0.95654   0.1155     C
H       0.9401   0.0206   0.8487     H
H       0.9401   0.4794   0.3487     H
C       0.9455  0.73118   0.6458     C
C       0.9455  0.76882   0.1458     C
C       0.9631  0.16461  0.84229     C
C       0.9631  0.33539  0.34229     C
H        0.965   0.7036   0.1566     H
H        0.965   0.7964   0.6566     H
C       0.9986  0.06824   0.8573     C
C       0.9986  0.43176   0.3573     C
