data_I
_chemical_name_common  '/home/zhangsd/repos/MofS-CGCNN/ML/data/SSD/clean_cifs/VOLQOD_clean'
_cell_length_a 19.37760
_cell_length_b 19.37760
_cell_length_c 31.61390
_cell_angle_alpha 105.79600
_cell_angle_beta  105.79600
_cell_angle_gamma 94.18290
_space_group_name_H-M_alt      'P 1'


loop_
_space_group_symop_operation_xyz
  'x, y, z' 

loop_
_atom_site_label
_atom_site_fract_x
_atom_site_fract_y
_atom_site_fract_z
_atom_site_type_symbol
C       0.0048   0.5602   0.6874     C
C       0.0049   0.4479   0.6304     C
H        0.019   0.5916   0.3964     H
H       0.0213   0.4031   0.3013     H
C       0.0255   0.6777   0.0332     C
H       0.0256   0.6332   0.0854     H
C       0.0326   0.5018   0.3519     C
H        0.041   0.3734   0.0571     H
H       0.0526   0.7344   0.9925     H
C       0.0534   0.3452    0.992     C
C       0.0561   0.6575   0.0732     C
C       0.0723   0.7175   0.0181     C
C        0.076   0.3726    0.041     C
C       0.0774   0.5666   0.7085     C
C       0.0788   0.4548   0.6518     C
H       0.0909   0.3271   0.9373     H
H       0.1012    0.607   0.7348     H
H       0.1052    0.419   0.6397     H
C       0.1055   0.3449   0.9701     C
C       0.1152   0.5156   0.3733     C
C       0.1163   0.5143   0.6917     C
H       0.1199   0.3373   0.1267     H
C       0.1269   0.6721   0.0937     C
O      0.14383  0.57017  0.40635     O
C       0.1448   0.7322   0.0394     C
H       0.1466   0.6562   0.1196     H
O      0.14666  0.46546  0.35208     O
C       0.1476   0.3978   0.0653     C
C       0.1499   0.3833   0.1416     C
H       0.1634   0.3824   0.2091     H
C       0.1693   0.4235   0.1165     C
C       0.1721   0.7091   0.0789     C
C       0.1753   0.4111   0.1912     C
H       0.1765   0.7571   0.0283     H
C       0.1777   0.3693   0.9934     C
H       0.1842   0.2684   0.9167     H
H       0.1851   0.5613   0.7809     H
C       0.1944   0.5186   0.7165     C
C        0.198   0.3958   0.0407     C
C       0.2124   0.4934   0.1393     C
C       0.2169   0.4791   0.2131     C
C       0.2186   0.5448   0.7647     C
C       0.2256   0.3054   0.9283     C
H       0.2257   0.5221   0.1219     H
H       0.2262   0.4754   0.6597     H
C       0.2328    0.365   0.9695     C
O      0.23413  0.45567  0.28472     O
C       0.2349   0.5191   0.1873     C
C       0.2408   0.5004   0.2646     C
O      0.24191  0.70989  0.41918     O
C       0.2423   0.4937   0.6925     C
H       0.2429   0.8235   0.4717     H
Zn     0.24407  0.61189  0.42649    Zn
Zn     0.24504  0.46864   0.3498    Zn
H       0.2479   0.4133   0.0572     H
C       0.2515   0.7223   0.0968     C
H       0.2603   0.6601   0.8494     H
H       0.2628   0.2706   0.3785     H
H       0.2634   0.5658   0.2024     H
H       0.2656   0.9474   0.5075     H
O      0.26665  0.56915  0.28277     O
C       0.2678   0.8552   0.4606     C
H       0.2684   0.1842   0.4167     H
H       0.2706   0.2628   0.8785     H
C       0.2773   0.3015   0.9059     C
C       0.2777   0.7485   0.4032     C
O      0.28061  0.69581  0.13007     O
C       0.2825   0.9277   0.4819     C
O      0.28513  0.39007  0.36846     O
C       0.2898   0.5472   0.7891     C
O      0.29011  0.75809  0.08082     O
C       0.2909   0.8279   0.4211     C
C       0.2914    0.634   0.8657     C
H       0.2947   0.6975   0.9275     H
C       0.2959   0.4177   0.9853     C
O      0.29605  0.63295  0.49123     O
O      0.29987  0.56405   0.3877     O
C       0.3015   0.2773   0.4059     C
H       0.3025   0.7053   0.5725     H
H       0.3027   0.4579    0.012     H
O      0.30419  0.71939  0.36993     O
C       0.3054   0.2256   0.4283     C
C       0.3116   0.6564   0.9118     C
C       0.3141   0.5737   0.8406     C
C       0.3154    0.496   0.7174     C
Zn     0.31613  0.62057  0.34785    Zn
C       0.3223   0.9745   0.4668     C
H       0.3271   0.0909   0.4373     H
H       0.3277   0.5015   0.6359     H
C       0.3279   0.8731   0.4063     C
H       0.3373   0.1199   0.6267     H
C       0.3383   0.3529   0.9226     C
C       0.3396   0.5226   0.7663     C
H       0.3399   0.7397   0.6506     H
C       0.3425   0.9439   0.4268     C
C       0.3431   0.3969      0.4     C
C       0.3436   0.6884   0.5882     C
H       0.3438   0.8534   0.3804     H
C       0.3449   0.1055   0.4701     C
C       0.3452   0.0534    0.492     C
C       0.3478   0.4114   0.9627     C
C       0.3529   0.3383   0.4226     C
C       0.3584   0.6188   0.9373     C
C       0.3598    0.535   0.8656     C
C       0.3606   0.6214   0.5115     C
C        0.365   0.2328   0.4695     C
C       0.3653   0.4789   0.6501     C
C        0.366   0.7086   0.6343     C
H       0.3668   0.9744   0.4146     H
O      0.36705  0.70395  0.00877     O
C       0.3693   0.1777   0.4934     C
C       0.3693   0.4697   0.6925     C
C       0.3726    0.076    0.541     C
H       0.3734    0.041   0.5571     H
H       0.3768   0.4938     0.85     H
C       0.3786   0.6394   0.9885     C
C        0.379   0.5582   0.9131     C
O      0.37925  0.58395  0.15241     O
Zn     0.37943  0.68387  0.15215    Zn
C       0.3812   0.6416   0.5627     C
H       0.3824   0.1634   0.7091     H
H       0.3832   0.5098   0.2034     H
C       0.3833   0.1499   0.6416     C
Zn     0.38811  0.75593  0.07351    Zn
H       0.3886   0.5234   0.7831     H
O      0.39007  0.28513  0.86846     O
H       0.3903   0.4469   0.9742     H
Zn     0.39121  0.55379  0.42686    Zn
H        0.393   0.8988   0.7652     H
O      0.39517  0.45083  0.41606     O
C       0.3958    0.198   0.5407     C
C       0.3969   0.3431      0.9     C
C       0.3978   0.1476   0.5653     C
C       0.4021   0.5315   0.1306     C
H       0.4031   0.0213   0.8013     H
O      0.40343  0.59487  0.49194     O
O      0.40513  0.59657  0.00806     O
H       0.4077   0.5309   0.9297     H
C       0.4084   0.4738   0.1902     C
H       0.4084    0.981   0.1036     H
C       0.4111   0.1753   0.6912     C
C       0.4114   0.3478   0.4627     C
O       0.4128  0.52574  0.09091     O
H       0.4133   0.2479   0.5572     H
H       0.4136   0.4618   0.5997     H
C       0.4159   0.4551   0.6287     C
O      0.41605  0.62075  0.34759     O
C       0.4177   0.2959   0.4853     C
H        0.419   0.1052   0.1397     H
C        0.421   0.4706   0.1497     C
C       0.4226   0.4332   0.7119     C
C       0.4235   0.1693   0.6165     C
H        0.424    0.425   0.7404     H
H        0.425    0.424   0.2404     H
C       0.4263   0.6859   0.6594     C
O      0.42983  0.85617  0.09365     O
O      0.43085  0.73335  0.21723     O
C       0.4332   0.4226   0.2119     C
C       0.4334   0.9226   0.7915     C
H       0.4342   0.7366   0.2976     H
O      0.43595  0.70013   0.1123     O
H       0.4387   0.8149   0.7191     H
C       0.4398   0.9952   0.8126     C
C       0.4418    0.621   0.5869     C
Zn     0.44621  0.60879  0.07314    Zn
H       0.4469   0.3903   0.4742     H
C       0.4479   0.0049   0.1304     C
O      0.45083  0.39517  0.91606     O
C       0.4528   0.7102   0.7109     C
C       0.4548   0.0788   0.1518     C
C       0.4551   0.4159   0.1287     C
C       0.4552   0.7814   0.7353     C
O      0.45567  0.23413  0.78472     O
H       0.4579   0.3027    0.512     H
H       0.4618   0.4136   0.0997     H
C        0.465   0.6402   0.6344     C
O      0.46546  0.14666  0.85208     O
C       0.4685   0.5979   0.3694     C
Zn     0.46864  0.24504   0.8498    Zn
H       0.4691   0.5923   0.5703     H
C       0.4697   0.3693   0.1925     C
C       0.4706    0.421   0.6497     C
C       0.4738   0.4084   0.6902     C
O      0.47426   0.5872  0.40909     O
H       0.4754   0.2262   0.1597     H
H       0.4766   0.6114   0.7169     H
C       0.4774   0.6604   0.7337     C
H       0.4779   0.7743   0.3781     H
C       0.4789   0.3653   0.1501     C
C       0.4791   0.2169   0.7131     C
C       0.4809   0.7651   0.3127     C
C       0.4814   0.8056   0.7835     C
C       0.4844   0.8848   0.1267     C
C       0.4857   0.8837   0.8083     C
H       0.4902   0.6168   0.2966     H
C       0.4934   0.2124   0.6393     C
C       0.4937   0.2423   0.1925     C
H       0.4938   0.3768     0.35     H
C        0.496   0.3154   0.2174     C
C       0.4982   0.9674   0.1481     C
H       0.4985   0.6723   0.8641     H
C       0.4996   0.7592   0.2354     C
C       0.5004   0.2408   0.7646     C
H       0.5015   0.3277   0.1359     H
C       0.5018   0.0326   0.8519     C
C        0.504   0.6846   0.7826     C
H       0.5062   0.6232     0.65     H
C       0.5063   0.7577   0.8075     C
C       0.5066   0.7876   0.3607     C
H       0.5098   0.3832   0.7034     H
C       0.5143   0.1163   0.1917     C
C       0.5156   0.1152   0.8733     C
C       0.5186   0.1944   0.2165     C
C       0.5191   0.2349   0.6873     C
C       0.5209   0.7831   0.2869     C
C       0.5211   0.6347   0.8499     C
H       0.5221   0.2257   0.6219     H
C       0.5226   0.3396   0.2663     C
H       0.5234   0.3886   0.2831     H
H       0.5246   0.7738   0.8403     H
O      0.52574   0.4128  0.59091     O
C       0.5262   0.5916   0.3098     C
C       0.5294    0.579   0.3503     C
C       0.5303   0.6307   0.8075     C
H       0.5309   0.4077   0.4297     H
Zn     0.53136  0.75496   0.1502    Zn
C       0.5315   0.4021   0.6306     C
O      0.53454  0.85334  0.14792     O
C        0.535   0.3598   0.3656     C
H       0.5382   0.5864   0.9003     H
H       0.5421   0.6973    0.488     H
O      0.54433  0.76587  0.21528     O
C       0.5448   0.2186   0.2647     C
C       0.5449   0.5841   0.8713     C
C       0.5452   0.9212   0.8482     C
C       0.5472   0.2898   0.2891     C
O      0.54917  0.60483  0.08394     O
C       0.5521   0.9951   0.8696     C
H       0.5531   0.6097   0.5258     H
Zn     0.55379  0.39121  0.92686    Zn
C       0.5582    0.379   0.4131     C
C       0.5602   0.0048   0.1874     C
H       0.5613   0.1851   0.2809     H
O      0.56405  0.29987   0.8877     O
H       0.5658   0.2634   0.7024     H
C       0.5666   0.0774   0.2085     C
C       0.5668   0.5774   0.7881     C
O      0.56915  0.26665  0.78277     O
O      0.57017  0.14383  0.90635     O
C       0.5737   0.3141   0.3406     C
H        0.575    0.576   0.7596     H
H        0.576    0.575   0.2596     H
C       0.5765   0.8307   0.3835     C
C       0.5774   0.5668   0.2881     C
C        0.579   0.5294   0.8503     C
H        0.581   0.8948   0.8603     H
C       0.5823   0.7041   0.5147     C
O      0.58395  0.37925  0.65241     O
C       0.5841   0.5449   0.3713     C
H       0.5864   0.5382   0.4003     H
H       0.5867   0.7521   0.4428     H
O       0.5872  0.47426  0.90909     O
C       0.5886   0.6522   0.5373     C
C       0.5889   0.8247   0.3088     C
H       0.5916    0.019   0.8964     H
C       0.5916   0.5262   0.8098     C
H       0.5923   0.4691   0.0703     H
O      0.59487  0.40343  0.99194     O
O      0.59657  0.40513  0.50806     O
H       0.5969   0.9787   0.1987     H
C       0.5979   0.4685   0.8694     C
C       0.6022   0.8524   0.4347     C
C       0.6031   0.6569      0.1     C
C       0.6042    0.802   0.4593     C
O      0.60483  0.54917  0.58394     O
H        0.607   0.1012   0.2348     H
Zn     0.60879  0.44621  0.57314    Zn
H       0.6097   0.5531   0.0258     H
O      0.60993  0.71487  0.13154     O
H       0.6114   0.4766   0.2169     H
Zn     0.61189  0.24407  0.92649    Zn
C       0.6167   0.8501   0.3584     C
H       0.6168   0.4902   0.7966     H
H       0.6176   0.8366   0.2909     H
C       0.6188   0.3584   0.4373     C
Zn     0.62057  0.31613  0.84785    Zn
O      0.62075  0.41605  0.84759     O
C        0.621   0.4418   0.0869     C
C       0.6214   0.3606   0.0115     C
H       0.6232   0.5062     0.15     H
H       0.6266    0.959   0.4429     H
C       0.6274    0.924    0.459     C
C       0.6307   0.5303   0.3075     C
C       0.6307   0.8223   0.5066     C
O      0.63295  0.29605  0.99123     O
H       0.6332   0.0256   0.5854     H
C        0.634   0.2914   0.3657     C
C       0.6347   0.5211   0.3499     C
C        0.635   0.7672   0.5305     C
C       0.6394   0.3786   0.4885     C
C       0.6402    0.465   0.1344     C
C       0.6416   0.3812   0.0627     C
C       0.6471   0.6617   0.5774     C
C       0.6522   0.5886   0.0373     C
C       0.6548   0.9466    0.508     C
C       0.6551   0.8945   0.5299     C
H       0.6562   0.1466   0.6196     H
C       0.6564   0.3116   0.4118     C
C       0.6569   0.6031      0.6     C
C       0.6575   0.0561   0.5732     C
H       0.6601   0.2603   0.3494     H
C       0.6604   0.4774   0.2337     C
C       0.6617   0.6471   0.0774     C
H       0.6627   0.8801   0.3733     H
C       0.6721   0.1269   0.5937     C
H       0.6723   0.4985   0.3641     H
H       0.6729   0.9091   0.5627     H
C       0.6777   0.0255   0.5332     C
Zn     0.68387  0.37943  0.65215    Zn
C       0.6846    0.504   0.2826     C
C       0.6859   0.4263   0.1594     C
C       0.6884   0.3436   0.0882     C
C       0.6946   0.7744   0.5717     C
O      0.69581  0.28061  0.63007     O
H       0.6973   0.5421    0.988     H
H       0.6975   0.2947   0.4275     H
C       0.6985   0.7227   0.5941     C
O      0.70013  0.43595   0.6123     O
O      0.70395  0.36705  0.50877     O
C       0.7041   0.5823   0.0147     C
H       0.7053   0.3025   0.0725     H
C       0.7086    0.366   0.1343     C
C       0.7091   0.1721   0.5789     C
O      0.70989  0.24191  0.91918     O
C       0.7102   0.4528   0.2109     C
O      0.71487  0.60993  0.63154     O
C       0.7175   0.0723   0.5181     C
O      0.71939  0.30419  0.86993     O
C       0.7223   0.2515   0.5968     C
C       0.7227   0.6985   0.0941     C
H       0.7294   0.7372   0.1215     H
H       0.7316   0.8158   0.5833     H
C       0.7322   0.1448   0.5394     C
O      0.73335  0.43085  0.71723     O
H       0.7344   0.0526   0.4925     H
H       0.7366   0.4342   0.7976     H
H       0.7372   0.7294   0.6215     H
H       0.7397   0.3399   0.1506     H
C       0.7485   0.2777   0.9032     C
H       0.7521   0.5867   0.9428     H
Zn     0.75496  0.53136   0.6502    Zn
Zn     0.75593  0.38811  0.57351    Zn
H       0.7571   0.1765   0.5283     H
C       0.7577   0.5063   0.3075     C
O      0.75809  0.29011  0.58082     O
C       0.7592   0.4996   0.7354     C
C       0.7651   0.4809   0.8127     C
O      0.76587  0.54433  0.71528     O
C       0.7672    0.635   0.0305     C
H       0.7738   0.5246   0.3403     H
H       0.7743   0.4779   0.8781     H
C       0.7744   0.6946   0.0717     C
C       0.7814   0.4552   0.2353     C
C       0.7831   0.5209   0.7869     C
C       0.7876   0.5066   0.8607     C
C        0.802   0.6042   0.9593     C
C       0.8056   0.4814   0.2835     C
H       0.8149   0.4387   0.2191     H
H       0.8158   0.7316   0.0833     H
C       0.8223   0.6307   0.0066     C
H       0.8235   0.2429   0.9717     H
C       0.8247   0.5889   0.8088     C
C       0.8279   0.2909   0.9211     C
C       0.8307   0.5765   0.8835     C
H       0.8366   0.6176   0.7909     H
C       0.8501   0.6167   0.8584     C
C       0.8524   0.6022   0.9347     C
O      0.85334  0.53454  0.64792     O
H       0.8534   0.3438   0.8804     H
C       0.8552   0.2678   0.9606     C
O      0.85617  0.42983  0.59365     O
C       0.8731   0.3279   0.9063     C
H       0.8801   0.6627   0.8733     H
C       0.8837   0.4857   0.3083     C
C       0.8848   0.4844   0.6267     C
C       0.8945   0.6551   0.0299     C
H       0.8948    0.581   0.3603     H
H       0.8988    0.393   0.2652     H
H       0.9091   0.6729   0.0627     H
C       0.9212   0.5452   0.3482     C
C       0.9226   0.4334   0.2915     C
C        0.924   0.6274    0.959     C
C       0.9277   0.2825   0.9819     C
C       0.9439   0.3425   0.9268     C
C       0.9466   0.6548    0.008     C
H       0.9474   0.2656   0.0075     H
H        0.959   0.6266   0.9429     H
C       0.9674   0.4982   0.6481     C
H       0.9744   0.3668   0.9146     H
C       0.9745   0.3223   0.9668     C
H       0.9787   0.5969   0.6987     H
H        0.981   0.4084   0.6036     H
C       0.9951   0.5521   0.3696     C
C       0.9952   0.4398   0.3126     C
