data_I
_chemical_name_common  '/home/zhangsd/repos/MofS-CGCNN/ML/data/SSD/clean_cifs/VUMCEM_clean'
_cell_length_a  8.09600
_cell_length_b 21.50700
_cell_length_c 13.93500
_cell_angle_alpha 90.00000
_cell_angle_beta  111.81000
_cell_angle_gamma 90.00000
_space_group_name_H-M_alt      'P 1'


loop_
_space_group_symop_operation_xyz
  'x, y, z' 

loop_
_atom_site_label
_atom_site_fract_x
_atom_site_fract_y
_atom_site_fract_z
_atom_site_type_symbol
Co         0.0      0.0      0.0    Co
Co         0.0      0.5      0.5    Co
C       0.0116  0.50526  0.73051     C
C       0.0116  0.99474  0.23051     C
C       0.0253  0.04436   0.4344     C
C       0.0253  0.45564   0.9344     C
C        0.031  0.01518  0.60143     C
C        0.031  0.48482  0.10143     C
H       0.0419   0.0739   0.3901     H
H       0.0419   0.4261   0.8901     H
N        0.054  0.02862  0.86376     N
N        0.054  0.47138  0.36376     N
C       0.0569  0.05964   0.5363     C
C       0.0569  0.44036   0.0363     C
N       0.0644  0.03108   0.7072     N
N       0.0644  0.46892   0.2072     N
H       0.0951   0.0994   0.5608     H
H       0.0951   0.4006   0.0608     H
H       0.0993   0.0252   0.2516     H
H       0.0993   0.4748   0.7516     H
H       0.1334   0.6314     0.63     H
H       0.1334   0.8686     0.13     H
N       0.1486   0.5844  0.51008     N
N       0.1486   0.9156  0.01008     N
H       0.1533   0.7447   0.6599     H
H       0.1533   0.7553   0.1599     H
H       0.1683   0.1314   0.1186     H
H       0.1683   0.3686   0.6186     H
C       0.1776  0.07231   0.8611     C
C       0.1776  0.42769   0.3611     C
C       0.1844  0.07469   0.7659     C
C       0.1844  0.42531   0.2659     C
C       0.1849  0.62855   0.5806     C
C       0.1849  0.87145   0.0806     C
N       0.2396  0.04506  0.10006     N
N       0.2396  0.45494  0.60006     N
H       0.2462   0.0966   0.9169     H
H       0.2462   0.4034   0.4169     H
C       0.2533  0.59794   0.4538     C
C       0.2533  0.90206   0.9538     C
H       0.2557   0.1006   0.7442     H
H       0.2557   0.3994   0.2442     H
H       0.2565   0.5746   0.3983     H
H       0.2565   0.9254   0.8983     H
C       0.2589  0.10195   0.1365     C
C       0.2589  0.39805   0.6365     C
H       0.2645   0.6649   0.2527     H
H       0.2645   0.8351   0.7527     H
C       0.2687  0.74233   0.1715     C
C       0.2687  0.75767   0.6715     C
H        0.272   0.1905   0.2852     H
H        0.272   0.3095   0.7852     H
N       0.3062  0.66926  0.57222     N
N       0.3062  0.83074  0.07222     N
C       0.3348  0.68828   0.2265     C
C       0.3348  0.81172   0.7265     C
C       0.3503  0.64977   0.4904     C
C       0.3503  0.85023   0.9904     C
H       0.3596   0.5517   0.2505     H
H       0.3596   0.9483   0.7505     H
C       0.3757  0.72334   0.6342     C
C       0.3757  0.77666   0.1342     C
H       0.3801   0.2171   0.8722     H
H       0.3801   0.2829   0.3722     H
C       0.3866  0.20385   0.2955     C
C       0.3866  0.29615   0.7955     C
C        0.406   0.0178   0.1453     C
C        0.406   0.4822   0.6453     C
N       0.4268  0.11258  0.20335     N
N       0.4268  0.38742  0.70335     N
H       0.4302   0.6685   0.4657     H
H       0.4302   0.8315   0.9657     H
H        0.434   0.5227   0.6333     H
H        0.434   0.9773   0.1333     H
C       0.4519   0.2415   0.8484     C
C       0.4519   0.2585   0.3484     C
C       0.4788  0.55866   0.2906     C
C       0.4788  0.94134   0.7906     C
C       0.4938  0.16929    0.258     C
C       0.4938  0.33071    0.758     C
C       0.5062  0.66929    0.242     C
C       0.5062  0.83071    0.742     C
C       0.5212  0.05866   0.2094     C
C       0.5212  0.44134   0.7094     C
C       0.5481   0.7415   0.6516     C
C       0.5481   0.7585   0.1516     C
H        0.566   0.0227   0.8667     H
H        0.566   0.4773   0.3667     H
H       0.5698   0.1685   0.0343     H
H       0.5698   0.3315   0.5343     H
N       0.5732  0.61258  0.29665     N
N       0.5732  0.88742  0.79665     N
C        0.594   0.5178   0.3547     C
C        0.594   0.9822   0.8547     C
C       0.6134  0.70385   0.2045     C
C       0.6134  0.79615   0.7045     C
H       0.6199   0.7171   0.6278     H
H       0.6199   0.7829   0.1278     H
C       0.6243  0.22334   0.8658     C
C       0.6243  0.27666   0.3658     C
H       0.6404   0.0517   0.2495     H
H       0.6404   0.4483   0.7495     H
C       0.6497  0.14977   0.0096     C
C       0.6497  0.35023   0.5096     C
C       0.6652  0.18828   0.2735     C
C       0.6652  0.31172   0.7735     C
N       0.6938  0.16926  0.92778     N
N       0.6938  0.33074  0.42778     N
H        0.728   0.6905   0.2148     H
H        0.728   0.8095   0.7148     H
C       0.7313  0.24233   0.3285     C
C       0.7313  0.25767   0.8285     C
H       0.7355   0.1649   0.2473     H
H       0.7355   0.3351   0.7473     H
C       0.7411  0.60195   0.3635     C
C       0.7411  0.89805   0.8635     C
H       0.7435   0.0746   0.1017     H
H       0.7435   0.4254   0.6017     H
H       0.7443   0.6006   0.7558     H
H       0.7443   0.8994   0.2558     H
C       0.7467  0.09794   0.0462     C
C       0.7467  0.40206   0.5462     C
H       0.7538   0.5966   0.5831     H
H       0.7538   0.9034   0.0831     H
N       0.7604  0.54506  0.39994     N
N       0.7604  0.95494  0.89994     N
C       0.8151  0.12855   0.9194     C
C       0.8151  0.37145   0.4194     C
C       0.8156  0.57469   0.7341     C
C       0.8156  0.92531   0.2341     C
C       0.8224  0.57231   0.6389     C
C       0.8224  0.92769   0.1389     C
H       0.8317   0.6314   0.3814     H
H       0.8317   0.8686   0.8814     H
H       0.8467   0.2447   0.8401     H
H       0.8467   0.2553   0.3401     H
N       0.8514   0.0844  0.98992     N
N       0.8514   0.4156  0.48992     N
H       0.8666   0.1314     0.87     H
H       0.8666   0.3686     0.37     H
H       0.9007   0.5252   0.2484     H
H       0.9007   0.9748   0.7484     H
H       0.9049   0.5994   0.9392     H
H       0.9049   0.9006   0.4392     H
N       0.9356  0.53108   0.7928     N
N       0.9356  0.96892   0.2928     N
C       0.9431  0.55964   0.9637     C
C       0.9431  0.94036   0.4637     C
N        0.946  0.52862  0.63624     N
N        0.946  0.97138  0.13624     N
H       0.9581   0.5739   0.1099     H
H       0.9581   0.9261   0.6099     H
C        0.969  0.51518  0.89857     C
C        0.969  0.98482  0.39857     C
C       0.9747  0.54436   0.0656     C
C       0.9747  0.95564   0.5656     C
C       0.9884  0.00526  0.76949     C
C       0.9884  0.49474  0.26949     C
