data_I
_chemical_name_common  '/home/zhangsd/repos/MofS-CGCNN/ML/data/SSD/clean_cifs/VUNXUY_clean'
_cell_length_a 20.27600
_cell_length_b 20.27600
_cell_length_c 20.27600
_cell_angle_alpha 90.00000
_cell_angle_beta  90.00000
_cell_angle_gamma 90.00000
_space_group_name_H-M_alt      'P 1'


loop_
_space_group_symop_operation_xyz
  'x, y, z' 

loop_
_atom_site_label
_atom_site_fract_x
_atom_site_fract_y
_atom_site_fract_z
_atom_site_type_symbol
Cu     0.00424  0.55222  0.27044    Cu
Cu     0.00424  0.94778  0.77044    Cu
H       0.0084    0.667   0.6917     H
H       0.0084    0.833   0.1917     H
C       0.0106   0.6977   0.2512     C
C       0.0106   0.8023   0.7512     C
O      0.01283  0.14857  0.22194     O
O      0.01283  0.35143  0.72194     O
O       0.0141  0.04763   0.7697     O
O       0.0141  0.45237   0.2697     O
C       0.0166   0.2336   0.7324     C
C       0.0166   0.2664   0.2324     C
H       0.0168   0.7106    0.794     H
H       0.0168   0.7894    0.294     H
C       0.0313   0.1905   0.7938     C
C       0.0313   0.3095   0.2938     C
O       0.0403   0.2375   0.0901     O
O       0.0403   0.2625   0.5901     O
O      0.04763   0.7303   0.5141     O
O      0.04763   0.7697   0.0141     O
Cu     0.05222  0.22956  0.99576    Cu
Cu     0.05222  0.27044  0.49576    Cu
O       0.0545  0.20156  0.90616     O
O       0.0545  0.29844  0.40616     O
C       0.0559   0.0792   0.7369     C
C       0.0559   0.4208   0.2369     C
O      0.05842  0.69936    0.211     O
O      0.05842  0.80064    0.711     O
O      0.06065  0.68257  0.07888     O
O      0.06065  0.81743  0.57888     O
C       0.0627   0.2283   0.8513     C
C       0.0627   0.2717   0.3513     C
C       0.0705   0.2182   0.6208     C
C       0.0705   0.2818   0.1208     C
O      0.07888  0.06065  0.68257     O
O      0.07888  0.43935  0.18257     O
C       0.0792   0.7369   0.0559     C
C       0.0792   0.7631   0.5559     C
C       0.0818   0.2317   0.6934     C
C       0.0818   0.2683   0.1934     C
C       0.0833   0.1421   0.7681     C
C       0.0833   0.3579   0.2681     C
O       0.0901   0.0403   0.2375     O
O       0.0901   0.4597   0.7375     O
O      0.09028  0.16534  0.59526     O
O      0.09028  0.33466  0.09526     O
O      0.09384   0.5545  0.29844     O
O      0.09384   0.9455  0.79844     O
O      0.09453  0.22074   0.3386     O
O      0.09453  0.27926   0.8386     O
O      0.09526  0.09028  0.33466     O
O      0.09526  0.40972  0.83466     O
H       0.1046   0.2259   0.1984     H
H       0.1046   0.2741   0.6984     H
Cu     0.10641   0.6391  0.15493    Cu
Cu     0.10641   0.8609  0.65493    Cu
H       0.1119   0.1295    0.805     H
H       0.1119   0.3705    0.305     H
C       0.1208   0.0705   0.2818     C
C       0.1208   0.4295   0.7818     C
O      0.12161  0.18027   0.7222     O
O      0.12161  0.31973   0.2222     O
H       0.1295    0.695   0.6119     H
H       0.1295    0.805   0.1119     H
Cu      0.1391  0.15493  0.39359    Cu
Cu      0.1391  0.34507  0.89359    Cu
C       0.1421   0.7319   0.5833     C
C       0.1421   0.7681   0.0833     C
O      0.14857  0.22194  0.01283     O
O      0.14857  0.27806  0.51283     O
C       0.1487   0.5627   0.2717     C
C       0.1487   0.9373   0.7717     C
Cu     0.15493  0.10641   0.6391    Cu
Cu     0.15493  0.39359   0.1391    Cu
O       0.1614  0.59453  0.22074     O
O       0.1614  0.90547  0.72074     O
O      0.16534  0.59526  0.09028     O
O      0.16534  0.90474  0.59028     O
H        0.167   0.6917   0.4916     H
H        0.167   0.8083   0.9916     H
O      0.18027   0.7222  0.12161     O
O      0.18027   0.7778  0.62161     O
O      0.18257  0.07888  0.43935     O
O      0.18257  0.42112  0.93935     O
C       0.1905   0.7062   0.5313     C
C       0.1905   0.7938   0.0313     C
H       0.1917   0.0084    0.833     H
H       0.1917   0.4916    0.333     H
C       0.1934   0.0818   0.2683     C
C       0.1934   0.4182   0.7683     C
H        0.195   0.6119   0.3705     H
H        0.195   0.8881   0.8705     H
C       0.1977   0.2488   0.9894     C
C       0.1977   0.2512   0.4894     C
H       0.1984   0.1046   0.2259     H
H       0.1984   0.3954   0.7259     H
O      0.19936    0.211  0.44158     O
O      0.19936    0.289  0.94158     O
O      0.20156  0.59384   0.5545     O
O      0.20156  0.90616   0.0545     O
H        0.206   0.5168   0.7894     H
H        0.206   0.9832   0.2894     H
C       0.2062   0.5313   0.3095     C
C       0.2062   0.9687   0.8095     C
H       0.2106    0.706   0.9832     H
H       0.2106    0.794   0.4832     H
O        0.211  0.05842  0.69936     O
O        0.211  0.44158  0.19936     O
C       0.2182   0.6208   0.0705     C
C       0.2182   0.8792   0.5705     C
O      0.22074   0.1614  0.59453     O
O      0.22074   0.3386  0.09453     O
O      0.22194  0.01283  0.14857     O
O      0.22194  0.48717  0.64857     O
O       0.2222  0.12161  0.31973     O
O       0.2222  0.37839  0.81973     O
H       0.2259   0.1984   0.1046     H
H       0.2259   0.3016   0.6046     H
C       0.2283   0.6487   0.5627     C
C       0.2283   0.8513   0.0627     C
Cu     0.22956  0.50424  0.55222    Cu
Cu     0.22956  0.99576  0.05222    Cu
O       0.2303   0.5141  0.45237     O
O       0.2303   0.9859  0.95237     O
C       0.2317   0.6934   0.0818     C
C       0.2317   0.8066   0.5818     C
C       0.2319   0.5833   0.3579     C
C       0.2319   0.9167   0.8579     C
C       0.2324   0.0166   0.2664     C
C       0.2324   0.4834   0.7664     C
C       0.2336   0.7324   0.0166     C
C       0.2336   0.7676   0.5166     C
C       0.2369   0.0559   0.4208     C
C       0.2369   0.4441   0.9208     C
O       0.2375   0.0901   0.0403     O
O       0.2375   0.4099   0.5403     O
C       0.2488   0.5106   0.6977     C
C       0.2488   0.9894   0.1977     C
C       0.2512   0.0106   0.6977     C
C       0.2512   0.4894   0.1977     C
O       0.2625   0.5901   0.0403     O
O       0.2625   0.9099   0.5403     O
C       0.2631   0.5559   0.4208     C
C       0.2631   0.9441   0.9208     C
C       0.2664   0.2324   0.0166     C
C       0.2664   0.2676   0.5166     C
C       0.2676   0.5166   0.2664     C
C       0.2676   0.9834   0.7664     C
C       0.2681   0.0833   0.3579     C
C       0.2681   0.4167   0.8579     C
C       0.2683   0.1934   0.0818     C
C       0.2683   0.3066   0.5818     C
O       0.2697   0.0141  0.45237     O
O       0.2697   0.4859  0.95237     O
Cu     0.27044  0.00424  0.55222    Cu
Cu     0.27044  0.49576  0.05222    Cu
C       0.2717   0.1487   0.5627     C
C       0.2717   0.3513   0.0627     C
H       0.2741   0.6984   0.1046     H
H       0.2741   0.8016   0.6046     H
O       0.2778  0.62161  0.31973     O
O       0.2778  0.87839  0.81973     O
O      0.27806  0.51283  0.14857     O
O      0.27806  0.98717  0.64857     O
O      0.27926   0.6614  0.59453     O
O      0.27926   0.8386  0.09453     O
C       0.2818   0.1208   0.0705     C
C       0.2818   0.3792   0.5705     C
O        0.289  0.55842  0.69936     O
O        0.289  0.94158  0.19936     O
H       0.2894    0.206   0.9832     H
H       0.2894    0.294   0.4832     H
C       0.2938   0.0313   0.3095     C
C       0.2938   0.4687   0.8095     C
H        0.294   0.0168   0.7894     H
H        0.294   0.4832   0.2894     H
O      0.29844  0.09384   0.5545     O
O      0.29844  0.40616   0.0545     O
O      0.30064    0.711  0.44158     O
O      0.30064    0.789  0.94158     O
H       0.3016   0.6046   0.2259     H
H       0.3016   0.8954   0.7259     H
C       0.3023   0.7488   0.9894     C
C       0.3023   0.7512   0.4894     C
H        0.305   0.1119   0.3705     H
H        0.305   0.3881   0.8705     H
C       0.3066   0.5818   0.2683     C
C       0.3066   0.9182   0.7683     C
H       0.3083   0.5084    0.833     H
H       0.3083   0.9916    0.333     H
C       0.3095   0.2062   0.5313     C
C       0.3095   0.2938   0.0313     C
O      0.31743  0.57888  0.43935     O
O      0.31743  0.92112  0.93935     O
O      0.31973   0.2222  0.12161     O
O      0.31973   0.2778  0.62161     O
H        0.333   0.1917   0.4916     H
H        0.333   0.3083   0.9916     H
O      0.33466  0.09526  0.09028     O
O      0.33466  0.40474  0.59028     O
O       0.3386  0.09453  0.22074     O
O       0.3386  0.40547  0.72074     O
Cu     0.34507  0.60641   0.6391    Cu
Cu     0.34507  0.89359   0.1391    Cu
C       0.3513   0.0627   0.2717     C
C       0.3513   0.4373   0.7717     C
O      0.35143  0.72194  0.01283     O
O      0.35143  0.77806  0.51283     O
C       0.3579   0.2319   0.5833     C
C       0.3579   0.2681   0.0833     C
Cu      0.3609  0.65493  0.39359    Cu
Cu      0.3609  0.84507  0.89359    Cu
H       0.3705    0.195   0.6119     H
H       0.3705    0.305   0.1119     H
O      0.37839  0.68027   0.7222     O
O      0.37839  0.81973   0.2222     O
C       0.3792   0.5705   0.2818     C
C       0.3792   0.9295   0.7818     C
H       0.3881   0.6295    0.805     H
H       0.3881   0.8705    0.305     H
Cu     0.39359   0.1391  0.15493    Cu
Cu     0.39359   0.3609  0.65493    Cu
H       0.3954   0.7259   0.1984     H
H       0.3954   0.7741   0.6984     H
O      0.40474  0.59028  0.33466     O
O      0.40474  0.90972  0.83466     O
O      0.40547  0.72074   0.3386     O
O      0.40547  0.77926   0.8386     O
O      0.40616   0.0545  0.29844     O
O      0.40616   0.4455  0.79844     O
O      0.40972  0.66534  0.59526     O
O      0.40972  0.83466  0.09526     O
O       0.4099   0.5403   0.2375     O
O       0.4099   0.9597   0.7375     O
C       0.4167   0.6421   0.7681     C
C       0.4167   0.8579   0.2681     C
C       0.4182   0.7317   0.6934     C
C       0.4182   0.7683   0.1934     C
C       0.4208   0.2369   0.0559     C
C       0.4208   0.2631   0.5559     C
O      0.42112  0.56065  0.68257     O
O      0.42112  0.93935  0.18257     O
C       0.4295   0.7182   0.6208     C
C       0.4295   0.7818   0.1208     C
C       0.4373   0.7283   0.8513     C
C       0.4373   0.7717   0.3513     C
O      0.43935  0.18257  0.07888     O
O      0.43935  0.31743  0.57888     O
O      0.44158  0.19936    0.211     O
O      0.44158  0.30064    0.711     O
C       0.4441   0.5792   0.7369     C
C       0.4441   0.9208   0.2369     C
O       0.4455  0.70156  0.90616     O
O       0.4455  0.79844  0.40616     O
Cu     0.44778  0.72956  0.99576    Cu
Cu     0.44778  0.77044  0.49576    Cu
O      0.45237   0.2303   0.5141     O
O      0.45237   0.2697   0.0141     O
O       0.4597   0.7375   0.0901     O
O       0.4597   0.7625   0.5901     O
C       0.4687   0.6905   0.7938     C
C       0.4687   0.8095   0.2938     C
H       0.4832   0.2106    0.794     H
H       0.4832   0.2894    0.294     H
C       0.4834   0.7336   0.7324     C
C       0.4834   0.7664   0.2324     C
O       0.4859  0.54763   0.7697     O
O       0.4859  0.95237   0.2697     O
O      0.48717  0.64857  0.22194     O
O      0.48717  0.85143  0.72194     O
C       0.4894   0.1977   0.2512     C
C       0.4894   0.3023   0.7512     C
H       0.4916    0.167   0.6917     H
H       0.4916    0.333   0.1917     H
Cu     0.49576  0.05222  0.27044    Cu
Cu     0.49576  0.44778  0.77044    Cu
Cu     0.50424  0.55222  0.22956    Cu
Cu     0.50424  0.94778  0.72956    Cu
H       0.5084    0.667   0.8083     H
H       0.5084    0.833   0.3083     H
C       0.5106   0.6977   0.2488     C
C       0.5106   0.8023   0.7488     C
O      0.51283  0.14857  0.27806     O
O      0.51283  0.35143  0.77806     O
O       0.5141  0.04763   0.7303     O
O       0.5141  0.45237   0.2303     O
C       0.5166   0.2336   0.7676     C
C       0.5166   0.2664   0.2676     C
H       0.5168   0.7106    0.706     H
H       0.5168   0.7894    0.206     H
C       0.5313   0.1905   0.7062     C
C       0.5313   0.3095   0.2062     C
O       0.5403   0.2375   0.4099     O
O       0.5403   0.2625   0.9099     O
O      0.54763   0.7303   0.9859     O
O      0.54763   0.7697   0.4859     O
Cu     0.55222  0.22956  0.50424    Cu
Cu     0.55222  0.27044  0.00424    Cu
O       0.5545  0.20156  0.59384     O
O       0.5545  0.29844  0.09384     O
C       0.5559   0.0792   0.7631     C
C       0.5559   0.4208   0.2631     C
O      0.55842  0.69936    0.289     O
O      0.55842  0.80064    0.789     O
O      0.56065  0.68257  0.42112     O
O      0.56065  0.81743  0.92112     O
C       0.5627   0.2283   0.6487     C
C       0.5627   0.2717   0.1487     C
C       0.5705   0.2182   0.8792     C
C       0.5705   0.2818   0.3792     C
O      0.57888  0.06065  0.81743     O
O      0.57888  0.43935  0.31743     O
C       0.5792   0.7369   0.4441     C
C       0.5792   0.7631   0.9441     C
C       0.5818   0.2317   0.8066     C
C       0.5818   0.2683   0.3066     C
C       0.5833   0.1421   0.7319     C
C       0.5833   0.3579   0.2319     C
O       0.5901   0.0403   0.2625     O
O       0.5901   0.4597   0.7625     O
O      0.59028  0.16534  0.90474     O
O      0.59028  0.33466  0.40474     O
O      0.59384   0.5545  0.20156     O
O      0.59384   0.9455  0.70156     O
O      0.59453  0.22074   0.1614     O
O      0.59453  0.27926   0.6614     O
O      0.59526  0.09028  0.16534     O
O      0.59526  0.40972  0.66534     O
H       0.6046   0.2259   0.3016     H
H       0.6046   0.2741   0.8016     H
Cu     0.60641   0.6391  0.34507    Cu
Cu     0.60641   0.8609  0.84507    Cu
H       0.6119   0.1295    0.695     H
H       0.6119   0.3705    0.195     H
C       0.6208   0.0705   0.2182     C
C       0.6208   0.4295   0.7182     C
O      0.62161  0.18027   0.7778     O
O      0.62161  0.31973   0.2778     O
H       0.6295    0.695   0.8881     H
H       0.6295    0.805   0.3881     H
Cu      0.6391  0.15493  0.10641    Cu
Cu      0.6391  0.34507  0.60641    Cu
C       0.6421   0.7319   0.9167     C
C       0.6421   0.7681   0.4167     C
O      0.64857  0.22194  0.48717     O
O      0.64857  0.27806  0.98717     O
C       0.6487   0.5627   0.2283     C
C       0.6487   0.9373   0.7283     C
Cu     0.65493  0.10641   0.8609    Cu
Cu     0.65493  0.39359   0.3609    Cu
O       0.6614  0.59453  0.27926     O
O       0.6614  0.90547  0.77926     O
O      0.66534  0.59526  0.40972     O
O      0.66534  0.90474  0.90972     O
H        0.667   0.6917   0.0084     H
H        0.667   0.8083   0.5084     H
O      0.68027   0.7222  0.37839     O
O      0.68027   0.7778  0.87839     O
O      0.68257  0.07888  0.06065     O
O      0.68257  0.42112  0.56065     O
C       0.6905   0.7062   0.9687     C
C       0.6905   0.7938   0.4687     C
H       0.6917   0.0084    0.667     H
H       0.6917   0.4916    0.167     H
C       0.6934   0.0818   0.2317     C
C       0.6934   0.4182   0.7317     C
H        0.695   0.6119   0.1295     H
H        0.695   0.8881   0.6295     H
C       0.6977   0.2488   0.5106     C
C       0.6977   0.2512   0.0106     C
H       0.6984   0.1046   0.2741     H
H       0.6984   0.3954   0.7741     H
O      0.69936    0.211  0.05842     O
O      0.69936    0.289  0.55842     O
O      0.70156  0.59384   0.9455     O
O      0.70156  0.90616   0.4455     O
H        0.706   0.5168   0.7106     H
H        0.706   0.9832   0.2106     H
C       0.7062   0.5313   0.1905     C
C       0.7062   0.9687   0.6905     C
H       0.7106    0.706   0.5168     H
H       0.7106    0.794   0.0168     H
O        0.711  0.05842  0.80064     O
O        0.711  0.44158  0.30064     O
C       0.7182   0.6208   0.4295     C
C       0.7182   0.8792   0.9295     C
O      0.72074   0.1614  0.90547     O
O      0.72074   0.3386  0.40547     O
O      0.72194  0.01283  0.35143     O
O      0.72194  0.48717  0.85143     O
O       0.7222  0.12161  0.18027     O
O       0.7222  0.37839  0.68027     O
H       0.7259   0.1984   0.3954     H
H       0.7259   0.3016   0.8954     H
C       0.7283   0.6487   0.9373     C
C       0.7283   0.8513   0.4373     C
Cu     0.72956  0.50424  0.94778    Cu
Cu     0.72956  0.99576  0.44778    Cu
O       0.7303   0.5141  0.04763     O
O       0.7303   0.9859  0.54763     O
C       0.7317   0.6934   0.4182     C
C       0.7317   0.8066   0.9182     C
C       0.7319   0.5833   0.1421     C
C       0.7319   0.9167   0.6421     C
C       0.7324   0.0166   0.2336     C
C       0.7324   0.4834   0.7336     C
C       0.7336   0.7324   0.4834     C
C       0.7336   0.7676   0.9834     C
C       0.7369   0.0559   0.0792     C
C       0.7369   0.4441   0.5792     C
O       0.7375   0.0901   0.4597     O
O       0.7375   0.4099   0.9597     O
C       0.7488   0.5106   0.8023     C
C       0.7488   0.9894   0.3023     C
C       0.7512   0.0106   0.8023     C
C       0.7512   0.4894   0.3023     C
O       0.7625   0.5901   0.4597     O
O       0.7625   0.9099   0.9597     O
C       0.7631   0.5559   0.0792     C
C       0.7631   0.9441   0.5792     C
C       0.7664   0.2324   0.4834     C
C       0.7664   0.2676   0.9834     C
C       0.7676   0.5166   0.2336     C
C       0.7676   0.9834   0.7336     C
C       0.7681   0.0833   0.1421     C
C       0.7681   0.4167   0.6421     C
C       0.7683   0.1934   0.4182     C
C       0.7683   0.3066   0.9182     C
O       0.7697   0.0141  0.04763     O
O       0.7697   0.4859  0.54763     O
Cu     0.77044  0.00424  0.94778    Cu
Cu     0.77044  0.49576  0.44778    Cu
C       0.7717   0.1487   0.9373     C
C       0.7717   0.3513   0.4373     C
H       0.7741   0.6984   0.3954     H
H       0.7741   0.8016   0.8954     H
O       0.7778  0.62161  0.18027     O
O       0.7778  0.87839  0.68027     O
O      0.77806  0.51283  0.35143     O
O      0.77806  0.98717  0.85143     O
O      0.77926   0.6614  0.90547     O
O      0.77926   0.8386  0.40547     O
C       0.7818   0.1208   0.4295     C
C       0.7818   0.3792   0.9295     C
O        0.789  0.55842  0.80064     O
O        0.789  0.94158  0.30064     O
H       0.7894    0.206   0.5168     H
H       0.7894    0.294   0.0168     H
C       0.7938   0.0313   0.1905     C
C       0.7938   0.4687   0.6905     C
H        0.794   0.0168   0.7106     H
H        0.794   0.4832   0.2106     H
O      0.79844  0.09384   0.9455     O
O      0.79844  0.40616   0.4455     O
O      0.80064    0.711  0.05842     O
O      0.80064    0.789  0.55842     O
H       0.8016   0.6046   0.2741     H
H       0.8016   0.8954   0.7741     H
C       0.8023   0.7488   0.5106     C
C       0.8023   0.7512   0.0106     C
H        0.805   0.1119   0.1295     H
H        0.805   0.3881   0.6295     H
C       0.8066   0.5818   0.2317     C
C       0.8066   0.9182   0.7317     C
H       0.8083   0.5084    0.667     H
H       0.8083   0.9916    0.167     H
C       0.8095   0.2062   0.9687     C
C       0.8095   0.2938   0.4687     C
O      0.81743  0.57888  0.06065     O
O      0.81743  0.92112  0.56065     O
O      0.81973   0.2222  0.37839     O
O      0.81973   0.2778  0.87839     O
H        0.833   0.1917   0.0084     H
H        0.833   0.3083   0.5084     H
O      0.83466  0.09526  0.40972     O
O      0.83466  0.40474  0.90972     O
O       0.8386  0.09453  0.27926     O
O       0.8386  0.40547  0.77926     O
Cu     0.84507  0.60641   0.8609    Cu
Cu     0.84507  0.89359   0.3609    Cu
C       0.8513   0.0627   0.2283     C
C       0.8513   0.4373   0.7283     C
O      0.85143  0.72194  0.48717     O
O      0.85143  0.77806  0.98717     O
C       0.8579   0.2319   0.9167     C
C       0.8579   0.2681   0.4167     C
Cu      0.8609  0.65493  0.10641    Cu
Cu      0.8609  0.84507  0.60641    Cu
H       0.8705    0.195   0.8881     H
H       0.8705    0.305   0.3881     H
O      0.87839  0.68027   0.7778     O
O      0.87839  0.81973   0.2778     O
C       0.8792   0.5705   0.2182     C
C       0.8792   0.9295   0.7182     C
H       0.8881   0.6295    0.695     H
H       0.8881   0.8705    0.195     H
Cu     0.89359   0.1391  0.34507    Cu
Cu     0.89359   0.3609  0.84507    Cu
H       0.8954   0.7259   0.3016     H
H       0.8954   0.7741   0.8016     H
O      0.90474  0.59028  0.16534     O
O      0.90474  0.90972  0.66534     O
O      0.90547  0.72074   0.1614     O
O      0.90547  0.77926   0.6614     O
O      0.90616   0.0545  0.20156     O
O      0.90616   0.4455  0.70156     O
O      0.90972  0.66534  0.90474     O
O      0.90972  0.83466  0.40474     O
O       0.9099   0.5403   0.2625     O
O       0.9099   0.9597   0.7625     O
C       0.9167   0.6421   0.7319     C
C       0.9167   0.8579   0.2319     C
C       0.9182   0.7317   0.8066     C
C       0.9182   0.7683   0.3066     C
C       0.9208   0.2369   0.4441     C
C       0.9208   0.2631   0.9441     C
O      0.92112  0.56065  0.81743     O
O      0.92112  0.93935  0.31743     O
C       0.9295   0.7182   0.8792     C
C       0.9295   0.7818   0.3792     C
C       0.9373   0.7283   0.6487     C
C       0.9373   0.7717   0.1487     C
O      0.93935  0.18257  0.42112     O
O      0.93935  0.31743  0.92112     O
O      0.94158  0.19936    0.289     O
O      0.94158  0.30064    0.789     O
C       0.9441   0.5792   0.7631     C
C       0.9441   0.9208   0.2631     C
O       0.9455  0.70156  0.59384     O
O       0.9455  0.79844  0.09384     O
Cu     0.94778  0.72956  0.50424    Cu
Cu     0.94778  0.77044  0.00424    Cu
O      0.95237   0.2303   0.9859     O
O      0.95237   0.2697   0.4859     O
O       0.9597   0.7375   0.4099     O
O       0.9597   0.7625   0.9099     O
C       0.9687   0.6905   0.7062     C
C       0.9687   0.8095   0.2062     C
H       0.9832   0.2106    0.706     H
H       0.9832   0.2894    0.206     H
C       0.9834   0.7336   0.7676     C
C       0.9834   0.7664   0.2676     C
O       0.9859  0.54763   0.7303     O
O       0.9859  0.95237   0.2303     O
O      0.98717  0.64857  0.27806     O
O      0.98717  0.85143  0.77806     O
C       0.9894   0.1977   0.2488     C
C       0.9894   0.3023   0.7488     C
H       0.9916    0.167   0.8083     H
H       0.9916    0.333   0.3083     H
Cu     0.99576  0.05222  0.22956    Cu
Cu     0.99576  0.44778  0.72956    Cu
