data_I
_chemical_name_common  '/home/zhangsd/repos/MofS-CGCNN/ML/data/SSD/clean_cifs/VUWSAJ_clean'
_cell_length_a  9.83200
_cell_length_b 21.32180
_cell_length_c 13.79490
_cell_angle_alpha 90.00000
_cell_angle_beta  105.60200
_cell_angle_gamma 90.00000
_space_group_name_H-M_alt      'P 1'


loop_
_space_group_symop_operation_xyz
  'x, y, z' 

loop_
_atom_site_label
_atom_site_fract_x
_atom_site_fract_y
_atom_site_fract_z
_atom_site_type_symbol
C       0.0006   0.3422   0.8574     C
C       0.0015    0.021   0.1315     C
C       0.0016    0.106   0.5559     C
C       0.0271   0.8424   0.3774     C
C        0.031   0.6042   0.0801     C
C       0.0439   0.9838   0.9748     C
C       0.0539   0.2471   0.7305     C
H       0.0558   0.9574   0.8339     H
O       0.0607    0.438   0.9481     O
C       0.0751   0.1994   0.6656     C
C       0.0768   0.7502   0.2461     C
O        0.089   0.0292   0.3415     O
O       0.0982  0.93004   0.4853     O
C       0.0991   0.7014   0.1815     C
O       0.1236   0.1025   0.5452     O
C       0.1246   0.9956   0.1845     C
C       0.1309   0.3395   0.8336     C
O       0.1485  0.60503   0.0609     O
C       0.1562   0.2931    0.772     C
C        0.159   0.8387   0.3545     C
H       0.1642   0.1964   0.6514     H
C       0.1691    0.002    0.297     C
C       0.1719   0.9568   0.0334     C
C       0.1796   0.7951   0.2899     C
H       0.1869   0.6995   0.1651     H
H       0.2016   0.3699   0.8604     H
H       0.2018   0.4453    0.327     H
C       0.2116    0.963    0.135     C
O       0.2128   0.4802   0.1535     O
H       0.2305   0.9342    0.001     H
H       0.2326   0.8671   0.3848     H
H       0.2329   0.2946    0.227     H
Nd     0.23876  0.51561  0.98514    Nd
H       0.2449   0.2918   0.7569     H
H       0.2551   0.7918   0.7431     H
Nd     0.26124  0.01561  0.51486    Nd
H       0.2671   0.7946    0.273     H
H       0.2674   0.3671   0.1152     H
H       0.2695   0.4342    0.499     H
O       0.2872   0.9802   0.3465     O
C       0.2884    0.463    0.365     C
H       0.2982   0.9453    0.173     H
H       0.2984   0.8699   0.6396     H
H       0.3131   0.1995   0.3349     H
C       0.3204   0.2951   0.2101     C
C       0.3281   0.4568   0.4666     C
C       0.3309    0.502    0.203     C
H       0.3358   0.6964   0.8486     H
C        0.341   0.3387   0.1455     C
C       0.3438   0.7931    0.728     C
O       0.3515  0.10503   0.4391     O
C       0.3691   0.8395   0.6664     C
C       0.3754   0.4956   0.3155     C
O       0.3764   0.6025   0.9548     O
C       0.4009   0.2014   0.3185     C
O       0.4018  0.43004   0.0147     O
O        0.411   0.5292   0.1585     O
C       0.4232   0.2502   0.2539     C
C       0.4249   0.6994   0.8344     C
O       0.4393    0.938   0.5519     O
H       0.4442   0.4574   0.6661     H
C       0.4461   0.7471   0.7695     C
C       0.4561   0.4838   0.5252     C
C        0.469   0.1042   0.4199     C
C       0.4729   0.3424   0.1226     C
C       0.4984    0.606   0.9441     C
C       0.4985    0.521   0.3685     C
C       0.4994   0.8422   0.6426     C
C       0.5006   0.1578   0.3574     C
C       0.5015    0.479   0.6315     C
C       0.5016    0.394   0.0559     C
C       0.5271   0.6576   0.8774     C
C        0.531   0.8958   0.5801     C
C       0.5439   0.5162   0.4748     C
C       0.5539   0.2529   0.2305     C
H       0.5558   0.5426   0.3339     H
O       0.5607    0.062   0.4481     O
C       0.5751   0.3006   0.1656     C
C       0.5768   0.7498   0.7461     C
O        0.589   0.4708   0.8415     O
O       0.5982  0.56996   0.9853     O
C       0.5991   0.7986   0.6815     C
O       0.6236   0.3975   0.0452     O
C       0.6246   0.5044   0.6845     C
C       0.6309   0.1605   0.3336     C
O       0.6485  0.89497   0.5609     O
C       0.6562   0.2069    0.272     C
C        0.659   0.6613   0.8545     C
H       0.6642   0.3036   0.1514     H
C       0.6691    0.498    0.797     C
C       0.6719   0.5432   0.5334     C
C       0.6796   0.7049   0.7899     C
H       0.6869   0.8005   0.6651     H
H       0.7016   0.1301   0.3604     H
H       0.7018   0.0547    0.827     H
C       0.7116    0.537    0.635     C
O       0.7128   0.0198   0.6535     O
H       0.7305   0.5658    0.501     H
H       0.7326   0.6329   0.8848     H
H       0.7329   0.2054    0.727     H
Nd     0.73876  0.98438  0.48514    Nd
H       0.7449   0.2082   0.2569     H
H       0.7551   0.7082   0.2431     H
Nd     0.76124  0.48438  0.01486    Nd
H       0.7671   0.7054    0.773     H
H       0.7674   0.1329   0.6152     H
H       0.7695   0.0658    0.999     H
O       0.7872   0.5198   0.8465     O
C       0.7884    0.037    0.865     C
H       0.7982   0.5547    0.673     H
H       0.7984   0.6301   0.1396     H
H       0.8131   0.3005   0.8349     H
C       0.8204   0.2049   0.7101     C
C       0.8281   0.0432   0.9666     C
C       0.8309    0.998    0.703     C
H       0.8358   0.8036   0.3486     H
C        0.841   0.1613   0.6455     C
C       0.8438   0.7069    0.228     C
O       0.8515  0.39497   0.9391     O
C       0.8691   0.6605   0.1664     C
C       0.8754   0.0044   0.8155     C
O       0.8764   0.8975   0.4548     O
C       0.9009   0.2986   0.8185     C
O       0.9018  0.06996   0.5147     O
O        0.911   0.9708   0.6585     O
C       0.9232   0.2498   0.7539     C
C       0.9249   0.8006   0.3344     C
O       0.9393    0.562   0.0519     O
H       0.9442   0.0426   0.1661     H
C       0.9461   0.7529   0.2695     C
C       0.9561   0.0162   0.0252     C
C        0.969   0.3958   0.9199     C
C       0.9729   0.1576   0.6226     C
C       0.9984    0.894   0.4441     C
C       0.9985    0.979   0.8685     C
C       0.9994   0.6578   0.1426     C
