data_I
_chemical_name_common  '/home/zhangsd/repos/MofS-CGCNN/ML/data/SSD/clean_cifs/WAFKAQ_clean'
_cell_length_a 14.35470
_cell_length_b 14.35470
_cell_length_c 14.35470
_cell_angle_alpha 63.29200
_cell_angle_beta  84.19680
_cell_angle_gamma 116.70800
_space_group_name_H-M_alt      'P 1'


loop_
_space_group_symop_operation_xyz
  'x, y, z' 

loop_
_atom_site_label
_atom_site_fract_x
_atom_site_fract_y
_atom_site_fract_z
_atom_site_type_symbol
O      0.00198  0.82395  0.06279     O
H       0.0442   0.3908   0.8626     H
O      0.06279  0.06477  0.11326     O
H        0.075    0.833    0.852     H
Zn     0.07669     -0.0  0.92331    Zn
C      0.07878  0.22924  0.84954     C
H        0.086    0.917    0.765     H
C      0.10958   0.4348   0.7994     C
O      0.11326  0.17605  0.82197     O
C       0.1331   0.8775   0.8384     C
H       0.1374   0.0932   0.2534     H
C      0.14088  0.36957  0.77131     C
H        0.148    0.073    0.685     H
C      0.15046  0.07168  0.07878     C
H       0.1534   0.6092   0.7534     H
C       0.1616   0.0285   0.7159     C
H        0.169    0.851    0.914     H
C      0.17478   0.5652   0.7342     C
O      0.17803  0.06477  0.99802     O
H        0.182    0.851    0.735     H
N      0.18289     -0.0  0.81711     N
H        0.185    0.927    0.648     H
C       0.2006  0.09102   0.2342     C
C       0.2159   0.9715   0.6616     C
C      0.22869  0.08781  0.14088     C
C       0.2342   0.4348  0.67478     C
H        0.235    0.149    0.682     H
H        0.242    0.927    0.925     H
C       0.2444   0.8775   0.7841     C
H       0.2466   0.0932   0.3626     H
H       0.2534   0.3908   0.6534     H
C       0.2556   0.9715   0.8669     C
H        0.258    0.833    0.815     H
H        0.265    0.083    0.586     H
C       0.2658  0.09102   0.2994     C
C      0.27131  0.63043  0.64088     C
C       0.2841   0.1225   0.7444     C
C       0.2994   0.5652  0.60958     C
H        0.315    0.167    0.758     H
N      0.31711     -0.0  0.68289     N
H        0.318    0.083    0.831     H
O      0.32197  0.82395  0.61326     O
C      0.32522  0.09102  0.10958     C
H        0.331    0.917    0.818     H
C       0.3384   0.1225   0.6331     C
H       0.3466   0.0932   0.0442     H
C      0.34954  0.77076  0.57878     C
H        0.352    0.167    0.575     H
C      0.35912  0.08781  0.27131     C
H       0.3626   0.6092   0.5442     H
C       0.3669   0.0285   0.7556     C
O      0.38674  0.06477  0.43721     O
C      0.39042  0.09102  0.17478     C
H        0.414    0.149    0.669     H
C      0.42122  0.07168  0.34954     C
Zn     0.42331      0.0  0.57669    Zn
H        0.425    0.073    0.742     H
O      0.43721  0.82395  0.49802     O
H       0.4558   0.0932   0.1534     H
O      0.49802  0.93523  0.67803     O
O      0.50198  0.06477  0.32197     O
H       0.5442   0.9068   0.8466     H
O      0.56279  0.17605  0.50198     O
H        0.575    0.927    0.258     H
Zn     0.57669      0.0  0.42331    Zn
C      0.57878  0.92832  0.65046     C
H        0.586    0.851    0.331     H
C      0.60958  0.90898  0.82522     C
O      0.61326  0.93523  0.56279     O
C       0.6331   0.9715   0.2444     C
H       0.6374   0.3908   0.4558     H
C      0.64088  0.91219  0.72869     C
H        0.648    0.833    0.425     H
C      0.65046  0.22924  0.42122     C
H       0.6534   0.9068   0.9558     H
C       0.6616   0.8775   0.3669     C
H        0.669    0.083    0.182     H
C      0.67478  0.90898  0.89042     C
O      0.67803  0.17605  0.38674     O
H        0.682    0.917    0.169     H
N      0.68289     -0.0  0.31711     N
H        0.685    0.833    0.242     H
C       0.7006   0.4348  0.39042     C
C       0.7159   0.8775   0.2556     C
C      0.72869  0.36957  0.35912     C
C       0.7342  0.90898   0.7006     C
H        0.735    0.917    0.414     H
H        0.742    0.167    0.185     H
C       0.7444   0.0285   0.1331     C
H       0.7466   0.6092   0.3466     H
H       0.7534   0.9068   0.6374     H
C       0.7556   0.1225   0.2159     C
H        0.758    0.073    0.075     H
H        0.765    0.851    0.318     H
C       0.7658   0.5652  0.32522     C
C      0.77131  0.91219  0.85912     C
C       0.7841   0.0285   0.3384     C
C       0.7994  0.90898   0.7658     C
H        0.815    0.073    0.352     H
N      0.81711     -0.0  0.18289     N
H        0.818    0.149    0.265     H
O      0.82197  0.93523  0.00198     O
C      0.82522   0.4348   0.2658     C
H        0.831    0.149    0.086     H
C       0.8384   0.9715   0.2841     C
H       0.8466   0.3908   0.2466     H
C      0.84954  0.92832  0.92122     C
H        0.852    0.927    0.315     H
C      0.85912  0.63043  0.22869     C
H       0.8626   0.9068   0.7466     H
C       0.8669   0.1225   0.1616     C
O      0.88674  0.82395  0.17803     O
C      0.89042   0.5652   0.2006     C
H        0.914    0.083    0.235     H
C      0.92122  0.77076  0.15046     C
Zn     0.92331      0.0  0.07669    Zn
H        0.925    0.167    0.148     H
O      0.93721  0.93523  0.88674     O
H       0.9558   0.6092   0.1374     H
O      0.99802  0.17605  0.93721     O
