data_I
_chemical_name_common  '/home/zhangsd/repos/MofS-CGCNN/ML/data/SSD/clean_cifs/WAQDOJ_charged'
_cell_length_a 18.88320
_cell_length_b 18.88320
_cell_length_c 18.88320
_cell_angle_alpha 62.09840
_cell_angle_beta  62.09840
_cell_angle_gamma 62.09840
_space_group_name_H-M_alt      'P 1'


loop_
_space_group_symop_operation_xyz
  'x, y, z' 

loop_
_atom_site_label
_atom_site_fract_x
_atom_site_fract_y
_atom_site_fract_z
_atom_site_type_symbol
H       0.0029   0.9647   0.4322     H
C      0.00322  0.30413  0.50683     C
C      0.00671  0.35173  0.17867     C
C      0.00683  0.80413  0.50322     C
H       0.0119   0.1593   0.4671     H
C      0.02024  0.38658  0.09102     C
H       0.0329   0.3407   0.4881     H
N      0.03343     0.25  0.46657     N
H       0.0353   0.5678   0.9971     H
C      0.04486  0.59005  0.93904     C
H       0.0536   0.0721   0.3938     H
C      0.06096  0.95514  0.40995     C
O      0.06717  0.28924  0.28672     O
H       0.0678   0.5353   0.4971     H
C      0.07112  0.65732  0.76952     C
C      0.07174  0.68952  0.42306     C
H       0.0721   0.3938   0.0536     H
C      0.07236  0.33713  0.21183     C
C      0.07694  0.81048  0.42826     C
H       0.0815   0.6805   0.7113     H
C      0.09005  0.54486  0.43904     C
C      0.09102  0.02024  0.38658     C
C      0.09892  0.62424  0.38466     C
H       0.1062   0.4279   0.4464     H
C      0.10965     0.75  0.39035     C
C      0.11342  0.47976  0.40898     C
C      0.11534  0.87576  0.40108     C
C      0.12424  0.59892  0.88466     C
O      0.12823  0.37087  0.16203     O
O      0.12913  0.37177  0.33797     O
C      0.13254  0.63614  0.30194     C
C      0.13614  0.63254  0.80194     C
H       0.1398   0.6881   0.2648     H
Mg     0.14826     0.25  0.35174    Mg
C      0.14827  0.49329  0.32133     C
C      0.15732  0.57112  0.26952     C
H      0.15735     0.75  0.34265     H
H       0.1593   0.4671   0.0119     H
O      0.16203  0.12823  0.37087     O
C      0.16287  0.42764  0.28817     C
C      0.17867  0.00671  0.35173     C
H       0.1805   0.5815   0.2113     H
H       0.1881   0.6398   0.7648     H
C      0.18952  0.57174  0.92306     C
C      0.19587  0.49678  0.99317     C
C      0.19806  0.86386  0.36746     C
O      0.21076  0.43283  0.21328     O
H       0.2113   0.1805   0.5815     H
C      0.21183  0.07236  0.33713     C
O      0.21328  0.21076  0.43283     O
C      0.23048  0.92888  0.34268     C
H       0.2352   0.8119   0.3602     H
O         0.25     0.25     0.25     O
Mg        0.25  0.35174  0.14826    Mg
N         0.25  0.46657  0.03343     N
C         0.25  0.60965  0.89035     C
H         0.25  0.65735  0.84265     H
H       0.2648   0.1398   0.6881     H
C      0.26952  0.15732  0.57112     C
O      0.28672  0.06717  0.28924     O
C      0.28817  0.16287  0.42764     C
H       0.2887   0.9185   0.3195     H
O      0.28924  0.28672  0.06717     O
C      0.30194  0.13254  0.63614     C
C      0.30413  0.50683  0.00322     C
C      0.31048  0.57694  0.92826     C
H       0.3119   0.7352   0.8602     H
H       0.3195   0.2887   0.9185     H
C      0.32133  0.14827  0.49329     C
C      0.33713  0.21183  0.07236     C
O      0.33797  0.12913  0.37177     O
H       0.3407   0.4881   0.0329     H
H      0.34265  0.15735     0.75     H
C      0.34268  0.23048  0.92888     C
C      0.35173  0.17867  0.00671     C
Mg     0.35174  0.14826     0.25    Mg
H       0.3602   0.2352   0.8119     H
C      0.36386  0.69806  0.86746     C
C      0.36746  0.19806  0.86386     C
O      0.37087  0.16203  0.12823     O
O      0.37177  0.33797  0.12913     O
C      0.37576  0.61534  0.90108     C
C      0.38466  0.09892  0.62424     C
C      0.38658  0.09102  0.02024     C
C      0.39035  0.10965     0.75     C
H       0.3938   0.0536   0.0721     H
C      0.40108  0.11534  0.87576     C
C      0.40898  0.11342  0.47976     C
C      0.40995  0.06096  0.95514     C
H       0.4185   0.7887   0.8195     H
C      0.42306  0.07174  0.68952     C
C      0.42764  0.28817  0.16287     C
H       0.4279   0.4464   0.1062     H
C      0.42826  0.07694  0.81048     C
C      0.42888  0.73048  0.84268     C
H       0.4322   0.0029   0.9647     H
O      0.43283  0.21328  0.21076     O
C      0.43904  0.09005  0.54486     C
H       0.4464   0.1062   0.4279     H
C      0.45514  0.56096  0.90995     C
H       0.4647   0.5029   0.9322     H
N      0.46657  0.03343     0.25     N
H       0.4671   0.0119   0.1593     H
C      0.47976  0.40898  0.11342     C
H       0.4881   0.0329   0.3407     H
C      0.49317  0.99678  0.69587     C
C      0.49329  0.32133  0.14827     C
C      0.49678  0.99317  0.19587     C
H       0.4971   0.0678   0.5353     H
H       0.5029   0.9322   0.4647     H
C      0.50322  0.00683  0.80413     C
C      0.50671  0.67867  0.85173     C
C      0.50683  0.00322  0.30413     C
H       0.5119   0.9671   0.6593     H
C      0.52024  0.59102  0.88658     C
H       0.5329   0.9881   0.8407     H
N      0.53343  0.96657     0.75     N
H       0.5353   0.4971   0.0678     H
C      0.54486  0.43904  0.09005     C
H       0.5536   0.8938   0.5721     H
C      0.56096  0.90995  0.45514     C
O      0.56717  0.78672  0.78924     O
H       0.5678   0.9971   0.0353     H
C      0.57112  0.26952  0.15732     C
C      0.57174  0.92306  0.18952     C
H       0.5721   0.5536   0.8938     H
C      0.57236  0.71183  0.83713     C
C      0.57694  0.92826  0.31048     C
H       0.5815   0.2113   0.1805     H
C      0.59005  0.93904  0.04486     C
C      0.59102  0.88658  0.52024     C
C      0.59892  0.88466  0.12424     C
H       0.6062   0.9464   0.9279     H
C      0.60965  0.89035     0.25     C
C      0.61342  0.90898  0.97976     C
C      0.61534  0.90108  0.37576     C
C      0.62424  0.38466  0.09892     C
O      0.62823  0.66203  0.87087     O
O      0.62913  0.83797  0.87177     O
C      0.63254  0.80194  0.13614     C
C      0.63614  0.30194  0.13254     C
H       0.6398   0.7648   0.1881     H
Mg     0.64826  0.85174     0.75    Mg
C      0.64827  0.82133  0.99329     C
C      0.65732  0.76952  0.07112     C
H      0.65735  0.84265     0.25     H
H       0.6593   0.5119   0.9671     H
O      0.66203  0.87087  0.62823     O
C      0.66287  0.78817  0.92764     C
C      0.67867  0.85173  0.50671     C
H       0.6805   0.7113   0.0815     H
H       0.6881   0.2648   0.1398     H
C      0.68952  0.42306  0.07174     C
C      0.69587  0.49317  0.99678     C
C      0.69806  0.86746  0.36386     C
O      0.71076  0.71328  0.93283     O
H       0.7113   0.0815   0.6805     H
C      0.71183  0.83713  0.57236     C
O      0.71328  0.93283  0.71076     O
C      0.73048  0.84268  0.42888     C
H       0.7352   0.8602   0.3119     H
H         0.75  0.34265  0.15735     H
C         0.75  0.39035  0.10965     C
N         0.75  0.53343  0.96657     N
Mg        0.75  0.64826  0.85174    Mg
O         0.75     0.75     0.75     O
H       0.7648   0.1881   0.6398     H
C      0.76952  0.07112  0.65732     C
O      0.78672  0.78924  0.56717     O
C      0.78817  0.92764  0.66287     C
H       0.7887   0.8195   0.4185     H
O      0.78924  0.56717  0.78672     O
C      0.80194  0.13614  0.63254     C
C      0.80413  0.50322  0.00683     C
C      0.81048  0.42826  0.07694     C
H       0.8119   0.3602   0.2352     H
H       0.8195   0.4185   0.7887     H
C      0.82133  0.99329  0.64827     C
C      0.83713  0.57236  0.71183     C
O      0.83797  0.87177  0.62913     O
H       0.8407   0.5329   0.9881     H
H      0.84265     0.25  0.65735     H
C      0.84268  0.42888  0.73048     C
C      0.85173  0.50671  0.67867     C
Mg     0.85174     0.75  0.64826    Mg
H       0.8602   0.3119   0.7352     H
C      0.86386  0.36746  0.19806     C
C      0.86746  0.36386  0.69806     C
O      0.87087  0.62823  0.66203     O
O      0.87177  0.62913  0.83797     O
C      0.87576  0.40108  0.11534     C
C      0.88466  0.12424  0.59892     C
C      0.88658  0.52024  0.59102     C
C      0.89035     0.25  0.60965     C
H       0.8938   0.5721   0.5536     H
C      0.90108  0.37576  0.61534     C
C      0.90898  0.97976  0.61342     C
C      0.90995  0.45514  0.56096     C
H       0.9185   0.3195   0.2887     H
C      0.92306  0.18952  0.57174     C
C      0.92764  0.66287  0.78817     C
H       0.9279   0.6062   0.9464     H
C      0.92826  0.31048  0.57694     C
C      0.92888  0.34268  0.23048     C
H       0.9322   0.4647   0.5029     H
O      0.93283  0.71076  0.71328     O
C      0.93904  0.04486  0.59005     C
H       0.9464   0.9279   0.6062     H
C      0.95514  0.40995  0.06096     C
H       0.9647   0.4322   0.0029     H
N      0.96657     0.75  0.53343     N
H       0.9671   0.6593   0.5119     H
C      0.97976  0.61342  0.90898     C
H       0.9881   0.8407   0.5329     H
C      0.99317  0.19587  0.49678     C
C      0.99329  0.64827  0.82133     C
C      0.99678  0.69587  0.49317     C
H       0.9971   0.0353   0.5678     H
