data_I
_chemical_name_common  '/home/zhangsd/repos/MofS-CGCNN/ML/data/SSD/clean_cifs/WAQFAX_clean'
_cell_length_a 22.04660
_cell_length_b 22.04660
_cell_length_c 36.77200
_cell_angle_alpha 90.00000
_cell_angle_beta  90.00000
_cell_angle_gamma 90.00000
_space_group_name_H-M_alt      'P 1'


loop_
_space_group_symop_operation_xyz
  'x, y, z' 

loop_
_atom_site_label
_atom_site_fract_x
_atom_site_fract_y
_atom_site_fract_z
_atom_site_type_symbol
In     0.00059   0.7132  0.84925    In
O       0.0018    0.724   0.7945     O
In     0.00425  0.34861  0.26064    In
H       0.0043     0.69   0.6508     H
C       0.0051   0.7135   0.5642     C
C       0.0062   0.3151   0.1265     C
C       0.0076   0.2858   0.5725     C
In     0.00955   0.8078  0.77216    In
H       0.0099   0.2043    0.668     H
H       0.0099   0.7996   0.6573     H
C         0.01   0.2687   0.6094     C
C       0.0189   0.7237    0.601     C
H       0.0222   0.7378   0.5463     H
O       0.0262   0.8981   0.7522     O
H       0.0286   0.6557   0.0378     H
C       0.0298   0.6688   0.0618     C
H       0.0316   0.2658   0.5555     H
C       0.0325   0.7058   0.1316     C
C       0.0336   0.3324   0.0549     C
H       0.0357   0.7203   0.1553     H
H       0.0417   0.3399   0.0305     H
C       0.0435   0.1928   0.6543     C
C       0.0443   0.3591   0.1179     C
C       0.0448   0.8085   0.6441     C
O       0.0495   0.2049  0.22575     O
C       0.0523   0.2203   0.6223     C
C       0.0597   0.7747   0.6119     C
H       0.0601   0.3842   0.1359     H
C       0.0608   0.3677   0.0813     C
O       0.0627   0.2121   0.3564     O
O       0.0638   0.6369   0.8452     O
O       0.0645    0.601   0.7891     O
O       0.0647   0.6855   0.7239     O
O        0.065   0.1594   0.3035     O
O       0.0662    0.839  0.81616     O
C       0.0695   0.6416   0.0857     C
O       0.0705   0.3038   0.2274     O
C       0.0711   0.6598   0.1208     C
H        0.072   0.1303   0.6908     H
H       0.0726   0.8757   0.6758     H
O       0.0734   0.7758   0.8627     O
O       0.0745   0.3512   0.3468     O
O       0.0751   0.3932   0.2918     O
C       0.0758    0.252   0.2149     C
C       0.0811   0.1479   0.6685     C
C       0.0818   0.1706   0.3357     C
C       0.0827   0.8536   0.6551     C
C       0.0836   0.6032    0.821     C
C       0.0853   0.9147     0.75     C
C       0.0876   0.8237   0.8467     C
O       0.0889   0.7793  0.74172     O
C       0.0932   0.3877   0.3241     C
H       0.0975   0.6418   0.1373     H
C       0.0984   0.1978   0.6027     C
C       0.0984   0.7307   0.7241     C
O        0.101   0.4355   0.0391     O
O       0.1019   0.9738   0.7478     O
C       0.1032   0.4164    0.071     C
H       0.1044   0.2124   0.5792     H
O       0.1068   0.5751   0.0418     O
C       0.1107   0.7934    0.593     C
H       0.1109   0.1541   0.1761     H
C       0.1123   0.5932   0.0741     C
H       0.1158   0.5601   0.8859     H
H       0.1197   0.7751   0.5708     H
C       0.1201   0.2447   0.1838     C
H       0.1243   0.9274   0.8242     H
C       0.1294   0.1318   0.3504     C
H       0.1303    0.072   0.3092     H
C       0.1308   0.1886   0.1678     C
C       0.1318   0.1294   0.6496     C
C       0.1323   0.5608   0.8313     C
C       0.1324    0.866   0.8626     C
C        0.134   0.8676   0.6374     C
H       0.1351    0.648   0.6764     H
O       0.1369   0.4362   0.0952     O
C       0.1376   0.1535    0.616     C
H         0.14    0.169   0.3989     H
H       0.1407   0.3333     0.18     H
C       0.1409   0.5443   0.8679     C
C       0.1416   0.4305   0.3357     C
H       0.1418   0.4025   0.3873     H
C       0.1464   0.9173   0.8449     C
H       0.1475    0.179   0.8718     H
C       0.1475   0.8369   0.6056     C
C       0.1479   0.0811   0.3315     C
H        0.148   0.3649   0.9264     H
C       0.1487   0.2955   0.1699     C
O       0.1488   0.5745   0.0968     O
H        0.149   0.2797   0.8888     H
In     0.15139  0.50425  0.01064    In
C       0.1534   0.7289   0.7004     C
H       0.1534   0.8175   0.9072     H
C       0.1535   0.1376    0.384     C
H       0.1541   0.1109   0.8239     H
H       0.1557   0.4714   0.2878     H
O       0.1594    0.065   0.6965     O
C       0.1598   0.4289   0.3708     C
H       0.1601   0.5417   0.7805     H
O        0.161   0.9338  0.68384     O
C       0.1619   0.6806   0.6768     C
C       0.1631   0.8525   0.8944     C
H       0.1667   0.6407     0.93     H
C       0.1676   0.5336   0.8049     C
C       0.1688   0.4702   0.3118     C
H        0.169     0.14   0.6011     H
C       0.1706   0.0818   0.6643     C
C       0.1717   0.1848   0.1391     C
H       0.1746   0.7073   0.8819     H
C       0.1763   0.9124   0.6533     C
H        0.179   0.1475   0.1282     H
C       0.1806   0.3381   0.9268     C
C       0.1824   0.2877   0.9035     C
H       0.1825   0.8466   0.5928     H
C       0.1848   0.1717   0.8609     C
C       0.1849   0.5062   0.8765     C
O       0.1855   0.4353   0.9739     O
C       0.1886   0.1308   0.8322     C
C       0.1888   0.2908   0.1413     C
H         0.19   0.4957   0.9008     H
H        0.191   0.7276   0.8234     H
C       0.1915   0.9552   0.8559     C
H       0.1916   0.8079    0.718     H
H       0.1921   0.8084    0.782     H
In      0.1922  0.99045  0.72784    In
C       0.1928   0.0435   0.3457     C
C       0.1957   0.7767   0.7011     C
O       0.1962   0.5705   0.9774     O
C       0.1978   0.0984   0.3973     C
H       0.2004   0.9901   0.8427     H
C       0.2013   0.2355   0.1269     C
H       0.2043   0.0099    0.332     H
C       0.2045   0.6487   0.9199     C
O       0.2049   0.0495  0.77425     O
C       0.2058   0.4675   0.3816     C
C       0.2066   0.8893    0.907     C
H       0.2073   0.3254   0.1319     H
C       0.2092   0.6888   0.8913     C
O       0.2121   0.0627   0.6436     O
C       0.2123   0.6824   0.6535     C
H       0.2124   0.1044   0.4208     H
In      0.2132  0.49941  0.09925    In
C       0.2135   0.4949   0.8142     C
C       0.2142   0.5076   0.3225     C
C       0.2203   0.0523   0.3777     C
H       0.2203   0.4643   0.4053     H
H       0.2203    0.649   0.6388     H
O       0.2207   0.9111  0.75828     O
C       0.2226   0.7555   0.8238     C
C       0.2233   0.8043   0.7989     C
C       0.2237   0.4811    0.851     C
O        0.224   0.4982   0.0445     O
O       0.2242   0.9266   0.6373     O
H       0.2249   0.8803   0.9292     H
C       0.2253   0.9403   0.8881     C
H       0.2276    0.309   0.0734     H
C       0.2289   0.3466   0.9504     C
C       0.2307   0.4016   0.9741     C
C       0.2313     0.51   0.3594     C
C       0.2317   0.2494   0.9016     C
H       0.2342   0.5316   0.3055     H
C       0.2355   0.2013   0.8731     C
H       0.2378   0.4778   0.7963     H
C       0.2445   0.7774   0.6762     C
C       0.2447   0.1201   0.8162     C
C        0.248   0.5758   0.9649     C
C       0.2494   0.2317   0.0984     C
C       0.2506   0.7317   0.6516     C
C        0.252   0.0758   0.7851     C
C       0.2553   0.6201   0.9338     C
C       0.2555   0.2774   0.0738     C
H       0.2622   0.9778   0.9537     H
C       0.2645   0.7013   0.8769     C
H       0.2658   0.0316   0.4445     H
C       0.2683   0.7494   0.8484     C
C       0.2687     0.01   0.3906     C
C       0.2693   0.9016   0.7759     C
C       0.2711   0.8466   0.7996     C
H       0.2724    0.809   0.6766     H
C       0.2747   0.4403   0.8619     C
H       0.2751   0.3803   0.8208     H
O       0.2758   0.4266   0.1127     O
O        0.276   0.9982   0.7055     O
C       0.2763   0.9811    0.899     C
C       0.2767   0.3043   0.9511     C
C       0.2774   0.2555   0.9262     C
O       0.2793   0.4111  0.99172     O
H       0.2797    0.149   0.1112     H
C       0.2797   0.5523   0.3723     C
H       0.2797   0.9643   0.3447     H
C       0.2858   0.0076   0.4275     C
C       0.2865   0.9949   0.9358     C
In      0.2868  0.99941  0.65075    In
H       0.2876   0.6044   0.3292     H
C       0.2877   0.1824   0.0965     C
O       0.2879   0.5627   0.1064     O
C       0.2908   0.1888   0.8587     C
H       0.2927   0.8254   0.6181     H
C       0.2934   0.3893    0.843     C
C       0.2942   0.9675   0.3684     C
O       0.2951   0.5495  0.97575     O
C       0.2955   0.1487   0.8301     C
H       0.2957   0.5099    0.418     H
C       0.2987   0.7355   0.6231     C
H       0.2996   0.4901   0.9073     H
C       0.3022   0.5984   0.3527     C
O       0.3038   0.0705   0.7726     O
C       0.3043   0.2767   0.0489     C
C       0.3072   0.5435   0.4043     C
In      0.3078  0.49045  0.02216    In
H       0.3079   0.3084    0.968     H
H       0.3084   0.3079    0.032     H
C       0.3085   0.4552   0.8941     C
H        0.309   0.2276   0.9266     H
H         0.31   0.9957   0.8492     H
C       0.3112   0.7908   0.6087     C
C       0.3114   0.6308   0.9178     C
O       0.3145   0.9353   0.7761     O
C       0.3151   0.0062   0.8735     C
C       0.3152   0.6717   0.8891     C
H       0.3175   0.3466   0.1572     H
C       0.3176   0.7877   0.8465     C
C       0.3194   0.8381   0.8232     C
H        0.321   0.6475   0.6218     H
C       0.3237   0.4124   0.0967     C
H       0.3254   0.2073   0.8681     H
C       0.3283   0.6848   0.6109     C
C       0.3294   0.5818   0.0857     C
H        0.331     0.64   0.1489     H
C       0.3312   0.9702   0.4382     C
C       0.3324   0.0336   0.9451     C
H       0.3333   0.1407     0.82     H
C       0.3369   0.3525   0.8556     C
C       0.3381   0.1806   0.0732     C
O        0.339   0.4338  0.06616     O
H       0.3399   0.0417   0.9695     H
C       0.3402   0.9289   0.3792     C
O       0.3406    0.565   0.0535     O
H       0.3443   0.9714   0.4622     H
H       0.3459   0.6109   0.9261     H
C       0.3465   0.6376    0.366     C
C       0.3466   0.2289   0.0496     C
H       0.3466   0.3175   0.8428     H
In     0.34861  0.00425  0.73936    In
H        0.351   0.7797   0.8612     H
O       0.3512   0.0745   0.6532     O
C       0.3513   0.7955   0.5801     C
H        0.352   0.8649   0.8236     H
C       0.3521   0.5811   0.4185     C
C       0.3525   0.3369   0.1444     C
H       0.3525    0.679   0.8782     H
C       0.3536   0.4173   0.9051     C
H       0.3582   0.9025   0.3627     H
C       0.3584   0.9305   0.4143     C
C       0.3591   0.0443   0.8821     C
H       0.3593   0.8333     0.57     H
H         0.36    0.669   0.3511     H
C       0.3624   0.6535    0.134     C
O       0.3631   0.9362   0.6548     O
H       0.3649    0.148   0.0736     H
C        0.366   0.3676   0.1126     C
C       0.3676    0.366   0.8874     C
C       0.3677   0.0608   0.9187     C
C       0.3682   0.6294   0.1004     C
C       0.3692   0.6886   0.5822     C
H       0.3697    0.572   0.4408     H
C       0.3706   0.6318   0.3996     C
H       0.3757   0.4274   0.9258     H
C       0.3799   0.7447   0.5662     C
H       0.3803   0.2751   0.1792     H
H       0.3842   0.0601   0.8641     H
C       0.3877   0.0932   0.6759     C
H       0.3891   0.6541   0.5739     H
C       0.3893   0.2934    0.157     C
O       0.3932   0.0751   0.7082     O
H       0.3956   0.7124   0.1708     H
C       0.3968   0.9164    0.679     C
O       0.3981   0.4738   0.0022     O
O        0.399   0.9355   0.7109     O
C       0.4016   0.2307   0.0259     C
C       0.4016   0.6978   0.1473     C
H       0.4025   0.1418   0.6127     H
C       0.4068   0.8877   0.4259     C
O       0.4111   0.2793  0.00828     O
C       0.4124   0.3237   0.9033     C
C       0.4147   0.4147      0.0     C
C       0.4164   0.1032    0.929     C
C       0.4173   0.3536   0.0949     C
C       0.4182   0.6706   0.4143     C
C       0.4189   0.6479   0.0815     C
C       0.4242    0.752   0.5351     C
O       0.4249   0.8932   0.4582     O
O       0.4255   0.8512   0.4032     O
O       0.4266   0.2758   0.8873     O
H       0.4274   0.3757   0.0742     H
H        0.428   0.6303   0.0592     H
C       0.4289   0.1598   0.6292     C
O       0.4295   0.8038   0.5226     O
C       0.4305   0.1416   0.6643     C
O       0.4338    0.339  0.93384     O
O        0.435   0.6594   0.4465     O
O       0.4353   0.1855   0.0261     O
O       0.4355    0.101   0.9609     O
O       0.4362   0.1369   0.9048     O
O       0.4373   0.7121   0.3936     O
C       0.4392   0.8677   0.6687     C
H       0.4399   0.8842   0.6141     H
C       0.4403   0.2747   0.1381     C
C       0.4477   0.7203   0.1277     C
O       0.4505   0.7049  0.52425     O
C       0.4552   0.3085   0.1059     C
C       0.4557   0.8591   0.6321     C
C       0.4565   0.6928   0.0957     C
H       0.4583   0.8399   0.7195     H
H       0.4643   0.2203   0.5947     H
C       0.4664   0.8324   0.6951     C
C       0.4675   0.2058   0.6184     C
H       0.4684   0.7658   0.1945     H
C       0.4702   0.1688   0.6882     C
H       0.4714   0.1557   0.7122     H
O       0.4738   0.3981   0.9978     O
H       0.4778   0.2378   0.2037     H
C       0.4811   0.2237    0.149     C
C         0.49   0.7687   0.1406     C
H       0.4901   0.2996   0.0927     H
H       0.4901   0.7043    0.082     H
In     0.49045   0.3078  0.97784    In
C       0.4924   0.7858   0.1775     C
C       0.4938   0.8151   0.6235     C
C       0.4949   0.2135   0.1858     C
H       0.4957     0.19   0.0992     H
In     0.49575  0.84861  0.48936    In
O       0.4982    0.224   0.9555     O
In     0.49941   0.2132  0.90075    In
In     0.50059   0.7868  0.40075    In
O       0.5018    0.776   0.4555     O
In     0.50425  0.15139  0.98936    In
H       0.5043     0.81   0.5992     H
C       0.5051   0.7865   0.6858     C
C       0.5062   0.1849   0.1235     C
C       0.5076   0.2142   0.6775     C
In     0.50955   0.6922  0.47784    In
H       0.5099   0.2957    0.582     H
H       0.5099   0.7004   0.5927     H
C         0.51   0.2313   0.6406     C
C       0.5189   0.7763    0.649     C
H       0.5222   0.7622   0.7037     H
O       0.5262   0.6019   0.4978     O
H       0.5286   0.8443   0.2122     H
C       0.5298   0.8312   0.1882     C
H       0.5316   0.2342   0.6945     H
C       0.5325   0.7942   0.1184     C
C       0.5336   0.1676   0.1951     C
H       0.5357   0.7797   0.0947     H
H       0.5417   0.1601   0.2195     H
C       0.5435   0.3072   0.5957     C
C       0.5443   0.1409   0.1321     C
C       0.5448   0.6915   0.6059     C
O       0.5495   0.2951  0.02425     O
C       0.5523   0.2797   0.6277     C
C       0.5597   0.7253   0.6381     C
H       0.5601   0.1158   0.1141     H
C       0.5608   0.1323   0.1687     C
O       0.5627   0.2879   0.8936     O
O       0.5638   0.8631   0.4048     O
O       0.5645    0.899   0.4609     O
O       0.5647   0.8145   0.5261     O
O        0.565   0.3406   0.9465     O
O       0.5662    0.661  0.43384     O
C       0.5695   0.8584   0.1643     C
O       0.5705   0.1962   0.0226     O
C       0.5711   0.8402   0.1292     C
H        0.572   0.3697   0.5592     H
H       0.5726   0.6243   0.5742     H
O       0.5734   0.7242   0.3873     O
O       0.5745   0.1488   0.9032     O
O       0.5751   0.1068   0.9582     O
C       0.5758    0.248   0.0351     C
C       0.5811   0.3521   0.5815     C
C       0.5818   0.3294   0.9143     C
C       0.5827   0.6464   0.5949     C
C       0.5836   0.8968    0.429     C
C       0.5853   0.5853      0.5     C
C       0.5876   0.6763   0.4033     C
O       0.5889   0.7207  0.50828     O
C       0.5932   0.1123   0.9259     C
H       0.5975   0.8582   0.1127     H
C       0.5984   0.3022   0.6473     C
C       0.5984   0.7693   0.5259     C
O        0.601   0.0645   0.2109     O
O       0.6019   0.5262   0.5022     O
C       0.6032   0.0836    0.179     C
H       0.6044   0.2876   0.6708     H
O       0.6068   0.9249   0.2082     O
C       0.6107   0.7066    0.657     C
H       0.6109   0.3459   0.0739     H
C       0.6123   0.9068   0.1759     C
H       0.6158   0.9399   0.3641     H
H       0.6197   0.7249   0.6792     H
C       0.6201   0.2553   0.0662     C
H       0.6243   0.5726   0.4258     H
C       0.6294   0.3682   0.8996     C
H       0.6303    0.428   0.9408     H
C       0.6308   0.3114   0.0822     C
C       0.6318   0.3706   0.6004     C
C       0.6323   0.9392   0.4187     C
C       0.6324    0.634   0.3874     C
C        0.634   0.6324   0.6126     C
H       0.6351    0.852   0.5736     H
O       0.6369   0.0638   0.1548     O
C       0.6376   0.3465    0.634     C
H         0.64    0.331   0.8511     H
H       0.6407   0.1667     0.07     H
C       0.6409   0.9557   0.3821     C
C       0.6416   0.0695   0.9143     C
H       0.6418   0.0975   0.8627     H
C       0.6464   0.5827   0.4051     C
H       0.6475    0.321   0.3782     H
C       0.6475   0.6631   0.6444     C
C       0.6479   0.4189   0.9185     C
H        0.648   0.1351   0.3236     H
C       0.6487   0.2045   0.0801     C
O       0.6488   0.9255   0.1532     O
H        0.649   0.2203   0.3612     H
In     0.65139  0.99575  0.23936    In
H       0.6534   0.6825   0.3428     H
C       0.6534   0.7711   0.5496     C
C       0.6535   0.3624    0.866     C
H       0.6541   0.3891   0.4261     H
H       0.6557   0.0286   0.9622     H
O       0.6594    0.435   0.5535     O
C       0.6598   0.0711   0.8792     C
H       0.6601   0.9583   0.4695     H
O        0.661   0.5662  0.56616     O
C       0.6619   0.8194   0.5732     C
C       0.6631   0.6475   0.3556     C
H       0.6667   0.8593     0.32     H
C       0.6676   0.9664   0.4451     C
C       0.6688   0.0298   0.9382     C
H        0.669     0.36   0.6489     H
C       0.6706   0.4182   0.5857     C
C       0.6717   0.3152   0.1109     C
H       0.6746   0.7927   0.3681     H
C       0.6763   0.5876   0.5967     C
H        0.679   0.3525   0.1218     H
C       0.6806   0.1619   0.3232     C
C       0.6824   0.2123   0.3465     C
H       0.6825   0.6534   0.6572     H
C       0.6848   0.3283   0.3891     C
C       0.6849   0.9938   0.3735     C
O       0.6855   0.0647   0.2761     O
C       0.6886   0.3692   0.4178     C
C       0.6888   0.2092   0.1087     C
H         0.69   0.0043   0.3492     H
H        0.691   0.7724   0.4266     H
C       0.6915   0.5448   0.3941     C
H       0.6916   0.6921    0.532     H
H       0.6921   0.6916    0.468     H
In      0.6922  0.50955  0.52216    In
C       0.6928   0.4565   0.9043     C
C       0.6957   0.7233   0.5489     C
O       0.6962   0.9295   0.2726     O
C       0.6978   0.4016   0.8527     C
H       0.7004   0.5099   0.4073     H
C       0.7013   0.2645   0.1231     C
H       0.7043   0.4901    0.918     H
C       0.7045   0.8513   0.3301     C
O       0.7049   0.4505  0.47575     O
C       0.7058   0.0325   0.8684     C
C       0.7066   0.6107    0.343     C
H       0.7073   0.1746   0.1181     H
C       0.7092   0.8112   0.3587     C
O       0.7121   0.4373   0.6064     O
C       0.7123   0.8176   0.5965     C
H       0.7124   0.3956   0.8292     H
In      0.7132  0.00059  0.15075    In
C       0.7135   0.0051   0.4358     C
C       0.7142   0.9924   0.9275     C
H       0.7203   0.0357   0.8447     H
C       0.7203   0.4477   0.8723     C
H       0.7203    0.851   0.6112     H
O       0.7207   0.5889  0.49172     O
C       0.7226   0.7445   0.4262     C
C       0.7233   0.6957   0.4511     C
C       0.7237   0.0189    0.399     C
O        0.724   0.0018   0.2055     O
O       0.7242   0.5734   0.6127     O
H       0.7249   0.6197   0.3208     H
C       0.7253   0.5597   0.3619     C
H       0.7276    0.191   0.1766     H
C       0.7289   0.1534   0.2996     C
C       0.7307   0.0984   0.2759     C
C       0.7313     0.99   0.8906     C
C       0.7317   0.2506   0.3484     C
H       0.7342   0.9684   0.9445     H
C       0.7355   0.2987   0.3769     C
H       0.7378   0.0222   0.4537     H
C       0.7445   0.7226   0.5738     C
C       0.7447   0.3799   0.4338     C
C        0.748   0.9242   0.2851     C
C       0.7494   0.2683   0.1516     C
C       0.7506   0.7683   0.5984     C
C        0.752   0.4242   0.4649     C
C       0.7553   0.8799   0.3162     C
C       0.7555   0.2226   0.1762     C
H       0.7622   0.5222   0.2963     H
C       0.7645   0.7987   0.3731     C
H       0.7658   0.4684   0.8055     H
C       0.7683   0.7506   0.4016     C
C       0.7687     0.49   0.8594     C
C       0.7693   0.5984   0.4741     C
C       0.7711   0.6534   0.4504     C
H       0.7724    0.691   0.5734     H
C       0.7747   0.0597   0.3881     C
H       0.7751   0.1197   0.4292     H
O       0.7758   0.0734   0.1373     O
O        0.776   0.5018   0.5445     O
C       0.7763   0.5189    0.351     C
C       0.7767   0.1957   0.2989     C
C       0.7774   0.2445   0.3238     C
O       0.7793   0.0889  0.25828     O
H       0.7797    0.351   0.1388     H
H       0.7797   0.5357   0.9053     H
C       0.7797   0.9477   0.8777     C
C       0.7858   0.4924   0.8225     C
C       0.7865   0.5051   0.3142     C
In      0.7868  0.50059  0.59925    In
H       0.7876   0.8956   0.9208     H
C       0.7877   0.3176   0.1535     C
O       0.7879   0.9373   0.1436     O
C       0.7908   0.3112   0.3913     C
H       0.7927   0.6746   0.6319     H
C       0.7934   0.1107    0.407     C
C       0.7942   0.5325   0.8816     C
O       0.7951   0.9505  0.27425     O
C       0.7955   0.3513   0.4199     C
H       0.7957   0.9901    0.832     H
C       0.7987   0.7645   0.6269     C
H       0.7996   0.0099   0.3427     H
C       0.8022   0.9016   0.8973     C
O       0.8038   0.4295   0.4774     O
C       0.8043   0.2233   0.2011     C
C       0.8072   0.9565   0.8457     C
In      0.8078  0.00955  0.22784    In
H       0.8079   0.1916    0.282     H
H       0.8084   0.1921    0.218     H
C       0.8085   0.0448   0.3559     C
H        0.809   0.2724   0.3234     H
H         0.81   0.5043   0.4008     H
C       0.8112   0.7092   0.6413     C
C       0.8114   0.8692   0.3322     C
O       0.8145   0.5647   0.4739     O
C       0.8151   0.4938   0.3765     C
C       0.8152   0.8283   0.3609     C
H       0.8175   0.1534   0.0928     H
C       0.8176   0.7123   0.4035     C
C       0.8194   0.6619   0.4268     C
H        0.821   0.8525   0.6282     H
C       0.8237   0.0876   0.1533     C
H       0.8254   0.2927   0.3819     H
C       0.8283   0.8152   0.6391     C
C       0.8294   0.9182   0.1643     C
H        0.831     0.86   0.1011     H
C       0.8312   0.5298   0.8118     C
C       0.8324   0.4664   0.3049     C
H       0.8333   0.3593     0.43     H
C       0.8369   0.1475   0.3944     C
C       0.8381   0.3194   0.1768     C
O        0.839   0.0662  0.18384     O
H       0.8399   0.4583   0.2805     H
C       0.8402   0.5711   0.8708     C
O       0.8406    0.935   0.1965     O
H       0.8443   0.5286   0.7878     H
H       0.8459   0.8891   0.3239     H
C       0.8465   0.8624    0.884     C
H       0.8466   0.1825   0.4072     H
C       0.8466   0.2711   0.2004     C
In     0.84861  0.49575  0.51064    In
H        0.851   0.7203   0.3888     H
O       0.8512   0.4255   0.5968     O
C       0.8513   0.7045   0.6699     C
H        0.852   0.6351   0.4264     H
C       0.8521   0.9189   0.8315     C
C       0.8525   0.1631   0.1056     C
H       0.8525    0.821   0.3718     H
C       0.8536   0.0827   0.3449     C
H       0.8582   0.5975   0.8873     H
C       0.8584   0.5695   0.8357     C
C       0.8591   0.4557   0.3679     C
H       0.8593   0.6667     0.68     H
H         0.86    0.831   0.8989     H
C       0.8624   0.8465    0.116     C
O       0.8631   0.5638   0.5952     O
H       0.8649    0.352   0.1764     H
C        0.866   0.1324   0.1374     C
C       0.8676    0.134   0.3626     C
C       0.8677   0.4392   0.3313     C
C       0.8682   0.8706   0.1496     C
C       0.8692   0.8114   0.6678     C
H       0.8697    0.928   0.8092     H
C       0.8706   0.8682   0.8504     C
H       0.8757   0.0726   0.3242     H
C       0.8799   0.7553   0.6838     C
H       0.8803   0.2249   0.0708     H
H       0.8842   0.4399   0.3859     H
C       0.8877   0.4068   0.5741     C
H       0.8891   0.8459   0.6761     H
C       0.8893   0.2066    0.093     C
O       0.8932   0.4249   0.5418     O
H       0.8956   0.7876   0.0792     H
C       0.8968   0.5836    0.571     C
O       0.8981   0.0262   0.2478     O
O        0.899   0.5645   0.5391     O
C       0.9016   0.2693   0.2241     C
C       0.9016   0.8022   0.1027     C
H       0.9025   0.3582   0.6373     H
C       0.9068   0.6123   0.8241     C
O       0.9111   0.2207  0.24172     O
C       0.9124   0.1763   0.3467     C
C       0.9147   0.0853     0.25     C
C       0.9164   0.3968    0.321     C
C       0.9173   0.1464   0.1551     C
C       0.9182   0.8294   0.8357     C
C       0.9189   0.8521   0.1685     C
C       0.9242    0.748   0.7149     C
O       0.9249   0.6068   0.7918     O
O       0.9255   0.6488   0.8468     O
O       0.9266   0.2242   0.3627     O
H       0.9274   0.1243   0.1758     H
H        0.928   0.8697   0.1908     H
C       0.9289   0.3402   0.6208     C
O       0.9295   0.6962   0.7274     O
C       0.9305   0.3584   0.5857     C
O       0.9338    0.161  0.31616     O
O        0.935   0.8406   0.8035     O
O       0.9353   0.3145   0.2239     O
O       0.9355    0.399   0.2891     O
O       0.9362   0.3631   0.3452     O
O       0.9373   0.7879   0.8564     O
C       0.9392   0.6323   0.5813     C
H       0.9399   0.6158   0.6359     H
C       0.9403   0.2253   0.1119     C
C       0.9477   0.7797   0.1223     C
O       0.9505   0.7951  0.72575     O
C       0.9552   0.1915   0.1441     C
C       0.9557   0.6409   0.6179     C
C       0.9565   0.8072   0.1543     C
H       0.9583   0.6601   0.5305     H
H       0.9643   0.2797   0.6553     H
C       0.9664   0.6676   0.5549     C
C       0.9675   0.2942   0.6316     C
H       0.9684   0.7342   0.0555     H
C       0.9702   0.3312   0.5618     C
H       0.9714   0.3443   0.5378     H
O       0.9738   0.1019   0.2522     O
H       0.9778   0.2622   0.0463     H
C       0.9811   0.2763    0.101     C
C         0.99   0.7313   0.1094     C
H       0.9901   0.2004   0.1573     H
H       0.9901   0.7957    0.168     H
In     0.99045   0.1922  0.27216    In
C       0.9924   0.7142   0.0725     C
C       0.9938   0.6849   0.6265     C
C       0.9949   0.2865   0.0642     C
H       0.9957     0.31   0.1508     H
In     0.99575  0.65139  0.76064    In
O       0.9982    0.276   0.2945     O
In     0.99941   0.2868  0.34925    In
