data_I
_chemical_name_common  '/home/zhangsd/repos/MofS-CGCNN/ML/data/SSD/clean_cifs/WAYMAM_clean'
_cell_length_a  6.79900
_cell_length_b 16.94600
_cell_length_c 12.74900
_cell_angle_alpha 90.00000
_cell_angle_beta  90.00000
_cell_angle_gamma 90.00000
_space_group_name_H-M_alt      'P 1'


loop_
_space_group_symop_operation_xyz
  'x, y, z' 

loop_
_atom_site_label
_atom_site_fract_x
_atom_site_fract_y
_atom_site_fract_z
_atom_site_type_symbol
C          0.0     0.06    0.957     C
C          0.0    0.129    0.883     C
O          0.0     0.25    0.693     O
C          0.0    0.371    0.883     C
C          0.0     0.44    0.957     C
C          0.0     0.56    0.043     C
C          0.0    0.629    0.117     C
O          0.0     0.75    0.307     O
C          0.0    0.871    0.117     C
C          0.0     0.94    0.043     C
O        0.156    0.167    0.842     O
O        0.156    0.333    0.842     O
O        0.156    0.667    0.158     O
O        0.156    0.833    0.158     O
C        0.196    0.036    0.974     C
C        0.196    0.464    0.974     C
C        0.196    0.536    0.026     C
C        0.196    0.964    0.026     C
V         0.25     0.25     0.75     V
V         0.25     0.75     0.25     V
C        0.304    0.036    0.526     C
C        0.304    0.464    0.526     C
C        0.304    0.536    0.474     C
C        0.304    0.964    0.474     C
O        0.344    0.167    0.658     O
O        0.344    0.333    0.658     O
O        0.344    0.667    0.342     O
O        0.344    0.833    0.342     O
C          0.5     0.06    0.543     C
C          0.5    0.129    0.617     C
O          0.5     0.25    0.807     O
C          0.5    0.371    0.617     C
C          0.5     0.44    0.543     C
C          0.5     0.56    0.457     C
C          0.5    0.629    0.383     C
O          0.5     0.75    0.193     O
C          0.5    0.871    0.383     C
C          0.5     0.94    0.457     C
O        0.656    0.167    0.658     O
O        0.656    0.333    0.658     O
O        0.656    0.667    0.342     O
O        0.656    0.833    0.342     O
C        0.696    0.036    0.526     C
C        0.696    0.464    0.526     C
C        0.696    0.536    0.474     C
C        0.696    0.964    0.474     C
V         0.75     0.25     0.75     V
V         0.75     0.75     0.25     V
C        0.804    0.036    0.974     C
C        0.804    0.464    0.974     C
C        0.804    0.536    0.026     C
C        0.804    0.964    0.026     C
O        0.844    0.167    0.842     O
O        0.844    0.333    0.842     O
O        0.844    0.667    0.158     O
O        0.844    0.833    0.158     O
