data_I
_chemical_name_common  '/home/zhangsd/repos/MofS-CGCNN/ML/data/SSD/clean_cifs/WEDWUZ_clean'
_cell_length_a  9.85100
_cell_length_b 14.82200
_cell_length_c 20.23300
_cell_angle_alpha 73.44800
_cell_angle_beta  82.98700
_cell_angle_gamma 77.72100
_space_group_name_H-M_alt      'P 1'


loop_
_space_group_symop_operation_xyz
  'x, y, z' 

loop_
_atom_site_label
_atom_site_fract_x
_atom_site_fract_y
_atom_site_fract_z
_atom_site_type_symbol
C       0.0047   0.3319   0.0489     C
C        0.005   0.7636   0.9263     C
Cu      0.0146  0.66865  0.67292    Cu
Br     0.01729  0.18481  0.43655    Br
C       0.0181    0.298   0.5778     C
C       0.0235   0.5204   0.1438     C
C       0.0267   0.2915   0.8596     C
Br     0.03741  0.49713  0.66214    Br
H         0.04    0.456   0.1445     H
O       0.0409   0.8329   0.2985     O
N       0.0415   0.3629   0.5188     N
C       0.0461    0.187    0.861     C
O       0.0557   0.8408   0.1513     O
O       0.0637   0.9507   0.8554     O
H       0.0695   0.7186   0.4127     H
H       0.0741   0.1886     0.08     H
C       0.0823   0.1839   0.6905     C
H       0.0912   0.3499   0.0366     H
Cu     0.09836  0.59986  0.55335    Cu
H       0.1043   0.5372   0.9733     H
C       0.1068   0.6562   0.1379     C
C       0.1104   0.4335   0.8517     C
C       0.1138    0.601   0.9573     C
C       0.1174   0.2537   0.6259     C
H       0.1179   0.1988   0.2448     H
Sm     0.12957   0.9478  0.20334    Sm
N       0.1342   0.5629   0.1385     N
C       0.1359   0.7852   0.9112     C
C       0.1382   0.3364   0.8548     C
C       0.1582   0.8867   0.8848     C
O       0.1661   0.1372   0.8738     O
C       0.1693    0.387   0.5067     C
N       0.1695   0.3009   0.2751     N
O       0.1752   0.1438   0.7328     O
H       0.1812   0.6866   0.1358     H
H       0.1831   0.4666   0.8467     H
H       0.1871   0.4326    0.466     H
C       0.1926   0.2275    0.246     C
Br     0.21626  0.67564  0.72796    Br
Cu     0.22612  0.74345  0.57154    Cu
O       0.2283   0.0857   0.1781     O
H       0.2293   0.3028   0.8536     H
H       0.2319   0.6991     0.28     H
H       0.2353   0.5427   0.3457     H
N       0.2426   0.6187   0.9424     N
C       0.2492   0.2784   0.6113     C
C        0.251   0.7112   0.9204     C
H       0.2563   0.8783   0.6458     H
Cu     0.25893  0.56095  0.65859    Cu
H        0.264   0.3942   0.2942     H
C       0.2725   0.3485   0.5507     C
O       0.2747    0.904    0.892     O
C       0.2785   0.3418   0.2758     C
O       0.3052   0.9521   0.7333     O
C       0.3159   0.6582   0.2924     C
C       0.3182   0.5652   0.3314     C
H       0.3196   0.2488   0.6414     H
C       0.3203   0.1924   0.2178     C
Br     0.32729  0.62675   0.5082    Br
Cu     0.32821  0.50302  0.11462    Cu
H       0.3313   0.1273   0.4843     H
C        0.336     0.11    0.187     C
Sm     0.33627  0.04701  0.81161    Sm
H        0.339   0.7271   0.9107     H
O       0.3393    0.839   0.2013     O
C        0.341   0.8766   0.6198     C
H       0.3532   0.3539   0.7219     H
H       0.3577   0.3685   0.5406     H
N       0.3654   0.8258   0.5734     N
H       0.3751   0.0418   0.4022     H
Br     0.37573  0.38309  0.05492    Br
C       0.4018   0.9774   0.6874     C
Cu     0.40638  0.51279  0.94702    Cu
C       0.4096   0.3101   0.2508     C
C        0.414   0.1258   0.4567     C
C       0.4342   0.2344   0.2208     C
N       0.4343   0.4663    0.672     N
C       0.4364   0.9277   0.6317     C
C       0.4374   0.3749   0.7087     C
O       0.4375   0.1837   0.7781     O
C       0.4409   0.0749   0.4081     C
C       0.4409   0.6898    0.272     C
H       0.4419    0.444   0.3764     H
C       0.4425    0.506   0.3489     C
C       0.4477   0.7897   0.2283     C
O       0.4563   0.0691   0.1732     O
O       0.4672   0.0388   0.6916     O
H       0.4772    0.788   0.7966     H
H       0.4825   0.3393   0.2538     H
C       0.4859   0.8251   0.5368     C
H       0.4953   0.2107   0.4954     H
Br     0.49768   0.4231  0.86421    Br
Br     0.50232   0.5769  0.13579    Br
H       0.5047   0.7893   0.5046     H
C       0.5141   0.1749   0.4632     C
H       0.5175   0.6607   0.7462     H
H       0.5228    0.212   0.2034     H
O       0.5328   0.9612   0.3084     O
O       0.5437   0.9309   0.8268     O
C       0.5523   0.2103   0.7717     C
C       0.5575    0.494   0.6511     C
H       0.5581    0.556   0.6236     H
C       0.5591   0.3102    0.728     C
C       0.5591   0.9251   0.5919     C
O       0.5625   0.8163   0.2219     O
C       0.5626   0.6251   0.2913     C
C       0.5636   0.0723   0.3683     C
N       0.5657   0.5337    0.328     N
C       0.5658   0.7656   0.7792     C
C        0.586   0.8742   0.5433     C
C       0.5904   0.6899   0.7492     C
Cu     0.59362  0.48721  0.05298    Cu
C       0.5982   0.0226   0.3126     C
Br     0.62427  0.61691  0.94508    Br
H       0.6249   0.9582   0.5978     H
N       0.6346   0.1742   0.4266     N
H       0.6423   0.6315   0.4594     H
H       0.6468   0.6461   0.2781     H
C        0.659   0.1234   0.3802     C
O       0.6607    0.161   0.7987     O
H        0.661   0.2729   0.0893     H
Sm     0.66373  0.95299  0.18839    Sm
C        0.664     0.89    0.813     C
H       0.6687   0.8727   0.5157     H
Cu     0.67179  0.49698  0.88538    Cu
Br     0.67271  0.37325   0.4918    Br
C       0.6797   0.8076   0.7822     C
H       0.6804   0.7512   0.3586     H
C       0.6818   0.4348   0.6686     C
C       0.6841   0.3418   0.7076     C
O       0.6948   0.0479   0.2667     O
C       0.7215   0.6582   0.7242     C
O       0.7253    0.096    0.108     O
C       0.7275   0.6515   0.4493     C
H        0.736   0.6058   0.7058     H
Cu     0.74107  0.43905  0.34141    Cu
H       0.7437   0.1217   0.3542     H
C        0.749   0.2888   0.0796     C
C       0.7508   0.7216   0.3887     C
N       0.7574   0.3813   0.0576     N
H       0.7647   0.4573   0.6543     H
H       0.7681   0.3009     0.72     H
H       0.7707   0.6972   0.1464     H
O       0.7717   0.9143   0.8219     O
Cu     0.77388  0.25655  0.42846    Cu
Br     0.78374  0.32436  0.27204    Br
C       0.8074   0.7725    0.754     C
H       0.8129   0.5674    0.534     H
H       0.8169   0.5334   0.1533     H
H       0.8188   0.3134   0.8642     H
O       0.8248   0.8562   0.2672     O
N       0.8305   0.6991   0.7249     N
C       0.8307    0.613   0.4933     C
O       0.8339   0.8628   0.1262     O
C       0.8418   0.1133   0.1152     C
C       0.8618   0.6636   0.1452     C
C       0.8641   0.2148   0.0888     C
N       0.8658   0.4371   0.8615     N
Sm     0.87043   0.0522  0.79666    Sm
H       0.8821   0.8012   0.7552     H
C       0.8826   0.7463   0.3741     C
C       0.8862    0.399   0.0427     C
C       0.8896   0.5665   0.1483     C
C       0.8932   0.3438   0.8621     C
H       0.8957   0.4628   0.0267     H
Cu     0.90164  0.40014  0.44665    Cu
H       0.9088   0.6501   0.9634     H
C       0.9177   0.8161   0.3095     C
H       0.9259   0.8114     0.92     H
H       0.9305   0.2814   0.5873     H
O       0.9363   0.0493   0.1446     O
O       0.9443   0.1592   0.8487     O
C       0.9539    0.813    0.139     C
N       0.9585   0.6371   0.4812     N
O       0.9591   0.1671   0.7015     O
H         0.96    0.544   0.8555     H
Br     0.96259  0.50287  0.33786    Br
C       0.9733   0.7085   0.1404     C
C       0.9765   0.4796   0.8562     C
C       0.9819    0.702   0.4222     C
Br     0.98271  0.81519  0.56345    Br
Cu      0.9854  0.33135  0.32708    Cu
C        0.995   0.2364   0.0737     C
C       0.9953   0.6681   0.9511     C
