data_I
_chemical_name_common  '/home/zhangsd/repos/MofS-CGCNN/ML/data/SSD/clean_cifs/WEDXAG_clean'
_cell_length_a  9.82570
_cell_length_b 14.79000
_cell_length_c 20.18200
_cell_angle_alpha 73.38600
_cell_angle_beta  82.82500
_cell_angle_gamma 77.75000
_space_group_name_H-M_alt      'P 1'


loop_
_space_group_symop_operation_xyz
  'x, y, z' 

loop_
_atom_site_label
_atom_site_fract_x
_atom_site_fract_y
_atom_site_fract_z
_atom_site_type_symbol
H        0.001   0.7076   0.4974     H
Br     0.00188  0.07818  0.13589    Br
H       0.0164   0.1597   0.7488     H
C       0.0177   0.6739   0.4638     C
H       0.0226   0.7114   0.2042     H
O       0.0314   0.4618    0.309     O
O       0.0422   0.4316   0.8267     O
C       0.0519   0.7099   0.7711     C
C       0.0565   0.9922   0.6507     C
H       0.0579   0.0537   0.6221     H
C       0.0583   0.8094   0.7278     C
C       0.0585   0.4254   0.5913     C
O       0.0613   0.3178   0.2224     O
C       0.0625   0.1266    0.291     C
C       0.0638   0.5732   0.3683     C
N       0.0662   0.0348   0.3278     N
C       0.0666   0.2657   0.7788     C
C       0.0843   0.3742   0.5441     C
C       0.0898   0.1896   0.7504     C
Cu     0.09141  0.98643  0.05345    Cu
C       0.0984   0.5227   0.3125     C
H        0.124   0.4596   0.5964     H
Br     0.12418  0.11661  0.94468    Br
N       0.1358   0.6738   0.4258     N
H       0.1408   0.1332   0.4588     H
H       0.1468    0.148   0.2775     H
O       0.1604     0.66   0.7983     O
C       0.1606   0.6239   0.3796     C
H       0.1616   0.7719    0.092     H
C       0.1628   0.3902   0.8119     C
Eu     0.16424  0.45324  0.18914    Eu
H       0.1684   0.3711   0.5172     H
Br     0.17226  0.87338  0.49172    Br
Cu     0.17289  0.99619  0.88516    Cu
C       0.1783   0.3085   0.7819     C
C       0.1809   0.9324   0.6692     C
H       0.1831   0.2505   0.3577     H
C       0.1845   0.8407    0.707     C
O       0.1973   0.5477   0.2664     O
C       0.2213   0.1572   0.7244     C
C       0.2271   0.1521   0.4487     C
O       0.2287   0.5945   0.1098     O
H       0.2353   0.1057    0.705     H
Cu     0.24132  0.93985  0.34139    Cu
H       0.2455   0.6222   0.3533     H
C       0.2496   0.7881   0.0811     C
C       0.2527   0.2211   0.3884     C
N       0.2576   0.8815    0.058     N
H       0.2638   0.9554   0.6555     H
H       0.2689   0.7997   0.7188     H
O       0.2691   0.4151   0.8212     O
H       0.2715   0.1987   0.1461     H
Cu     0.27428   0.7573  0.42757    Cu
Br     0.28284  0.82552  0.27198    Br
C       0.3085   0.2716    0.755     C
H       0.3114   0.0666   0.5331     H
H       0.3164   0.0354   0.1522     H
H        0.317   0.8132   0.8652     H
O       0.3252   0.3577   0.2675     O
C       0.3296   0.1128   0.4925     C
N       0.3301    0.198   0.7262     N
O       0.3359    0.365    0.126     O
C       0.3455    0.613   0.1159     C
C       0.3627    0.165   0.1448     C
C       0.3636   0.7155   0.0897     C
N       0.3674   0.9362   0.8617     N
Eu     0.36909  0.55188  0.79651    Eu
C       0.3836   0.2458   0.3743     C
H       0.3841   0.2991    0.757     H
C       0.3856   0.9013   0.0425     C
C       0.3895   0.0683   0.1474     C
C       0.3923   0.8432   0.8626     C
H        0.394   0.9655   0.0256     H
Cu      0.4021  0.89984  0.44654    Cu
H       0.4065   0.1487   0.9616     H
C       0.4166   0.3183   0.3086     C
H       0.4246   0.3107   0.9198     H
H         0.43   0.7797   0.5893     H
O       0.4413   0.5492   0.1459     O
O       0.4432   0.6588    0.847     O
C       0.4545   0.3147   0.1388     C
N       0.4589   0.1372   0.4807     N
O       0.4598   0.6664   0.7013     O
H       0.4624   0.0413   0.8565     H
Br     0.46308  0.00365  0.33769    Br
C        0.473     0.21   0.1401     C
C       0.4783   0.9769   0.8569     C
Br     0.48142  0.31471  0.56407    Br
C       0.4824   0.2032   0.4207     C
Cu     0.48543  0.83311  0.32588    Cu
C       0.4933   0.1668   0.9503     C
C       0.4962   0.7374   0.0742     C
C       0.5038   0.2626   0.9258     C
C       0.5067   0.8332   0.0497     C
Cu     0.51457  0.16689  0.67412    Cu
C       0.5176   0.7968   0.5793     C
Br     0.51858  0.68529  0.43593    Br
C       0.5217   0.0231   0.1431     C
C        0.527     0.79   0.8599     C
Br     0.53692  0.99635  0.66231    Br
H       0.5376   0.9587   0.1435     H
O       0.5402   0.3336   0.2987     O
N       0.5411   0.8628   0.5193     N
C       0.5455   0.6853   0.8612     C
O       0.5568   0.3412    0.153     O
O       0.5587   0.4508   0.8541     O
H         0.57   0.2203   0.4107     H
H       0.5754   0.6893   0.0802     H
C       0.5834   0.6817   0.6914     C
H       0.5935   0.8513   0.0384     H
Cu      0.5979  0.10016  0.55346    Cu
H        0.606   0.0345   0.9744     H
C       0.6077   0.1568   0.1374     C
C       0.6105   0.9317   0.8526     C
C       0.6144   0.0987   0.9575     C
H       0.6159   0.7009    0.243     H
C       0.6164   0.7542   0.6257     C
Eu     0.63091  0.44812  0.20349    Eu
N       0.6326   0.0638   0.1383     N
C       0.6364   0.2845   0.9103     C
C       0.6373    0.835   0.8552     C
C       0.6545    0.387   0.8841     C
O       0.6641    0.635    0.874     O
N       0.6699    0.802   0.2738     N
C       0.6704   0.8872   0.5075     C
O       0.6748   0.6423   0.7325     O
H        0.683   0.1868   0.1348     H
H       0.6836   0.9646   0.8478     H
H       0.6886   0.9334   0.4669     H
C       0.6915   0.7284    0.245     C
Br     0.71716  0.17448  0.72802    Br
Cu     0.72572   0.2427  0.57243    Cu
H       0.7285   0.8013   0.8539     H
O       0.7309   0.5849   0.1788     O
H       0.7311   0.2003   0.2812     H
H       0.7362   0.0446   0.3445     H
N       0.7424   0.1185    0.942     N
C       0.7473   0.7789   0.6116     C
C       0.7504   0.2119   0.9189     C
H       0.7545   0.3778   0.6467     H
Cu     0.75868  0.06015  0.65861    Cu
H       0.7647   0.8943    0.295     H
O       0.7713   0.4055   0.8902     O
C       0.7729   0.8479   0.5513     C
C       0.7787   0.8428   0.2756     C
O       0.8027   0.4523   0.7336     O
C       0.8155   0.1593    0.293     C
H       0.8169   0.7495   0.6423     H
C       0.8191   0.0676   0.3308     C
C       0.8217   0.6915   0.2181     C
Cu     0.82711  0.00381  0.11484    Cu
Br     0.82774  0.12662  0.50828    Br
H       0.8316   0.6289   0.4828     H
Eu     0.83576  0.54676  0.81086    Eu
C       0.8372   0.6098   0.1881     C
H       0.8384   0.2281    0.908     H
C       0.8394   0.3761   0.6204     C
O       0.8396     0.34   0.2017     O
H       0.8532    0.852   0.7225     H
H       0.8592   0.8668   0.5412     H
N       0.8642   0.3262   0.5742     N
Br     0.87582  0.88339  0.05532    Br
H        0.876   0.5404   0.4036     H
C       0.9016   0.4773   0.6875     C
Cu     0.90859  0.01357  0.94655    Cu
C       0.9102   0.8104   0.2496     C
C       0.9157   0.6258   0.4559     C
C       0.9334   0.7343   0.2212     C
N       0.9338   0.9652   0.6722     N
C       0.9362   0.4268   0.6317     C
C       0.9375   0.8734    0.709     C
O       0.9387   0.6822   0.7776     O
C       0.9415   0.5746   0.4087     C
C       0.9417   0.1906   0.2722     C
H       0.9421   0.9463   0.3779     H
C       0.9435   0.0078   0.3493     C
C       0.9481   0.2901   0.2289     C
O       0.9578   0.5684   0.1733     O
O       0.9686   0.5382    0.691     O
H       0.9774   0.2886   0.7958     H
C       0.9823   0.3261   0.5362     C
H       0.9836   0.8403   0.2512     H
Br     0.99812  0.92182  0.86411    Br
H        0.999   0.2924   0.5026     H
