data_I
_chemical_name_common  '/home/zhangsd/repos/MofS-CGCNN/ML/data/SSD/clean_cifs/WENKEH_clean'
_cell_length_a  9.33790
_cell_length_b 15.71000
_cell_length_c 22.43100
_cell_angle_alpha 102.47000
_cell_angle_beta  101.71000
_cell_angle_gamma 104.90000
_space_group_name_H-M_alt      'P 1'


loop_
_space_group_symop_operation_xyz
  'x, y, z' 

loop_
_atom_site_label
_atom_site_fract_x
_atom_site_fract_y
_atom_site_fract_z
_atom_site_type_symbol
H       0.0082   0.4344   0.2939     H
H       0.0093   0.6615   0.9076     H
H        0.015   0.6658   0.3161     H
C       0.0169   0.6036   0.3071     C
H       0.0226   0.1516   0.6296     H
C       0.0318   0.5382   0.9068     C
Pr     0.03597  0.91253  0.85751    Pr
H       0.0393   0.0958   0.7174     H
H       0.0394   0.5875   0.3461     H
H       0.0464   0.4798   0.0743     H
O        0.048   0.9962   0.2114     O
C       0.0566   0.9141   0.3098     C
C        0.065   0.6224    0.896     C
O       0.0662   0.6494   0.0788     O
C       0.0665   0.1254   0.4635     C
C       0.0665   0.8804   0.3622     C
C       0.0687   0.1478   0.3609     C
H       0.0722    0.303   0.2639     H
S       0.0742  0.37221  0.90464     S
H       0.0817   0.4368   0.7196     H
C       0.0867    0.435   0.2742     C
C       0.0921   0.8765   0.6579     C
C       0.0937   0.8993   0.5557     C
O       0.0951   0.8597   0.7608     O
O        0.097   0.3051   0.8573     O
O       0.1063   0.7631   0.4527     O
C       0.1142   0.4792   0.8898     C
O       0.1169   0.1542   0.0762     O
H       0.1244   0.1638   0.3327     H
C       0.1258   0.3568   0.2566     C
O       0.1276   0.1227    0.523     O
O       0.1319   0.5952   0.2758     O
H        0.134   0.2753   0.0231     H
O       0.1405   0.7919   0.8742     O
C       0.1458   0.1486   0.4202     C
C       0.1636    0.515   0.2625     C
C       0.1721   0.8978   0.6149     C
C       0.1738   0.8754   0.7219     C
C        0.175   0.9988   0.2416     C
O       0.1773   0.9253   0.5137     O
C       0.1811   0.6499   0.8677     C
C       0.1882    0.962   0.2981     C
C        0.208   0.8943   0.4019     C
O       0.2109      0.4   0.9679     O
C       0.2128   0.7414   0.8543     C
O       0.2178   0.1954   0.2109     O
S       0.2224  0.84961  0.46792     S
C       0.2275    0.278   0.0139     C
C       0.2292   0.5059   0.8612     C
H       0.2394   0.1595   0.8422     H
C       0.2453   0.3572   0.2281     C
C       0.2475   0.1598   0.0696     C
H       0.2527   0.1649   0.4315     H
C       0.2631   0.5912   0.8507     C
H       0.2658   0.2716   0.7906     H
H       0.2786   0.9112   0.6255     H
C       0.2815   0.5145   0.2347     C
O       0.2823   0.0199   0.8737     O
H       0.2837   0.4664    0.849     H
C       0.2848   0.3372   0.9821     C
C       0.2916   0.1485   0.5448     C
C       0.2986   0.2752   0.2117     C
O       0.2997    0.031   0.2279     O
H       0.3021   0.5717   0.0387     H
C       0.3093    0.222   0.0324     C
O       0.3097   0.7603   0.8235     O
C        0.316   0.1696   0.8213     C
O       0.3176   0.8909   0.7341     O
H       0.3203   0.1356   0.5847     H
C       0.3244   0.4378   0.2175     C
C       0.3282   0.9751   0.3381     C
H       0.3295   0.1143   0.5142     H
O       0.3311    0.115   0.0924     O
C       0.3323   0.2366   0.7911     C
H       0.3354    0.213   0.5502     H
H       0.3418   0.6094   0.8321     H
C       0.3436   0.9428   0.3917     C
H       0.3563   0.5338   0.0956     H
O       0.3613   0.5951   0.2222     O
O       0.3668   0.3893   0.7355     O
O       0.3792   0.8583   0.4949     O
C         0.38   0.5841   0.0775     C
H       0.3815   0.7903   0.2624     H
H       0.3831   0.6394   0.1069     H
C       0.4013    0.041   0.8551     C
H       0.4041   0.7128    0.026     H
H       0.4053   0.4396   0.1989     H
H       0.4057   0.9041   0.2118     H
C       0.4147   0.1162   0.8208     C
H       0.4168   0.0066   0.3293     H
C       0.4228   0.3424   0.9663     C
O        0.427   0.2867   0.1996     O
H       0.4395   0.9533   0.4192     H
O       0.4457   0.7594   0.6882     O
C       0.4478   0.2522   0.7613     C
C       0.4479    0.226   0.0174     C
C       0.4565   0.8005   0.2408     C
O       0.4707   0.4046   0.9355     O
C       0.4713   0.8684   0.2109     C
Pr     0.47746  0.13809   0.1981    Pr
S       0.4785  0.34373  0.72817     S
H       0.4789   0.8159   0.6905     H
H       0.4809   0.2628   0.3037     H
O       0.4925   0.9926   0.1364     O
O       0.4959   0.6823   0.3322     O
C       0.4962   0.7146   0.0157     C
H       0.4967   0.8116   0.9701     H
H       0.5033   0.1884   0.0299     H
C       0.5038   0.2854   0.9843     C
O       0.5041   0.3177   0.6678     O
O       0.5075   0.0074   0.8636     O
H       0.5191   0.7372   0.6963     H
H       0.5211   0.1841   0.3095     H
S       0.5215  0.65627  0.27183     S
Pr     0.52254  0.86191   0.8019    Pr
C       0.5287   0.1316   0.7891     C
O       0.5293   0.5954   0.0645     O
C       0.5435   0.1995   0.7592     C
C       0.5521    0.774   0.9826     C
C       0.5522   0.7478   0.2387     C
O       0.5543   0.2406   0.3118     O
H       0.5605   0.0467   0.5808     H
O        0.573   0.7133   0.8004     O
C       0.5772   0.6576   0.0337     C
H       0.5832   0.9934   0.6707     H
C       0.5853   0.8838   0.1792     C
H       0.5943   0.0959   0.7882     H
H       0.5947   0.5604   0.8011     H
H       0.5959   0.2872    0.974     H
C       0.5987    0.959   0.1449     C
H       0.6169   0.3606   0.8931     H
H       0.6185   0.2097   0.7376     H
C         0.62   0.4159   0.9225     C
O       0.6208   0.1417   0.5051     O
O       0.6332   0.6107   0.2645     O
O       0.6387   0.4049   0.7778     O
H       0.6437   0.4662   0.9044     H
C       0.6564   0.0572   0.6083     C
H       0.6582   0.3906   0.1679     H
H       0.6646    0.787   0.4498     H
C       0.6677   0.7634   0.2089     C
O       0.6689    0.885   0.9076     O
H       0.6705   0.8857   0.4858     H
C       0.6718   0.0249   0.6619     C
C       0.6756   0.5622   0.7825     C
H       0.6797   0.8644   0.4153     H
O       0.6824   0.1091   0.2659     O
C        0.684   0.8304   0.1787     C
O       0.6903   0.2397   0.1765     O
C       0.6907    0.778   0.9676     C
H       0.6979   0.4283   0.9613     H
O       0.7003    0.969   0.7721     O
C       0.7014   0.7248   0.7883     C
C       0.7084   0.8515   0.4552     C
C       0.7152   0.6628   0.0179     C
H       0.7163   0.5336    0.151     H
O       0.7177   0.9801   0.1263     O
C       0.7185   0.4855   0.7653     C
H       0.7214   0.0888   0.3745     H
H       0.7342   0.7284   0.2094     H
C       0.7369   0.4088   0.1493     C
H       0.7473   0.8351   0.5685     H
C       0.7525   0.8402   0.9304     C
C       0.7547   0.6428   0.7719     C
H       0.7606   0.8405   0.1578     H
C       0.7708   0.4941   0.1388     C
C       0.7725    0.722   0.9861     C
S       0.7776  0.15039  0.53208     S
O       0.7822   0.8046   0.7891     O
C       0.7872   0.2586   0.1457     C
O       0.7891      0.6   0.0321     O
C        0.792   0.1057   0.5981     C
C       0.8118    0.038   0.7019     C
C       0.8189   0.3501   0.1323     C
O       0.8227   0.0747   0.4863     O
C        0.825   0.0012   0.7584     C
C       0.8262   0.1246   0.2781     C
C       0.8279   0.1022   0.3851     C
C       0.8364    0.485   0.7375     C
C       0.8542   0.8514   0.5798     C
O       0.8595   0.2081   0.1258     O
H        0.866   0.7247   0.9769     H
O       0.8681   0.4048   0.7242     O
O       0.8724   0.8773    0.477     O
C       0.8742   0.6432   0.7434     C
H       0.8756   0.8362   0.6673     H
O       0.8831   0.8458   0.9238     O
C       0.8858   0.5208   0.1102     C
O       0.8937   0.2369   0.5473     O
O        0.903   0.6949   0.1427     O
O       0.9049   0.1403   0.2392     O
C       0.9063   0.1007   0.4443     C
C       0.9079   0.1235   0.3421     C
C       0.9133    0.565   0.7258     C
H       0.9183   0.5632   0.2804     H
S       0.9258  0.62779  0.09536     S
H       0.9278    0.697   0.7361     H
C       0.9313   0.8522   0.6391     C
C       0.9335   0.1196   0.6378     C
C       0.9335   0.8746   0.5365     C
O       0.9338   0.3506   0.9212     O
C        0.935   0.3776    0.104     C
C       0.9434   0.0859   0.6902     C
O        0.952   0.0038   0.7886     O
H       0.9536   0.5202   0.9257     H
H       0.9606   0.4125   0.6539     H
H       0.9607   0.9042   0.2826     H
Pr     0.96403  0.08747  0.14249    Pr
C       0.9682   0.4618   0.0932     C
H       0.9774   0.8484   0.3704     H
C       0.9831   0.3964   0.6929     C
H        0.985   0.3342   0.6839     H
H       0.9907   0.3385   0.0924     H
H       0.9918   0.5656   0.7061     H
