data_I
_chemical_name_common  '/home/zhangsd/repos/MofS-CGCNN/ML/data/SSD/clean_cifs/WENLAE_manual'
_cell_length_a  9.19990
_cell_length_b 15.57800
_cell_length_c 22.14200
_cell_angle_alpha 102.86000
_cell_angle_beta  101.55000
_cell_angle_gamma 104.52000
_space_group_name_H-M_alt      'P 1'


loop_
_space_group_symop_operation_xyz
  'x, y, z' 

loop_
_atom_site_label
_atom_site_fract_x
_atom_site_fract_y
_atom_site_fract_z
_atom_site_type_symbol
H       0.0014   0.3348   0.0915     H
H       0.0051   0.3364   0.6912     H
H       0.0101   0.4363   0.2946     H
C       0.0151   0.6058   0.3078     C
C       0.0157   0.5388   0.9061     C
H       0.0163    0.151   0.6319     H
Dy     0.02917  0.91285  0.85774    Dy
H       0.0326   0.0902   0.7194     H
S       0.0493   0.3678  0.90019     S
H        0.051   0.6034    0.351     H
C       0.0537   0.6247   0.8964     C
O       0.0585   0.0013    0.209     O
C        0.064   0.1237   0.4633     C
H        0.064   0.4785   0.0749     H
C       0.0643    0.918   0.3077     C
H       0.0726   0.3017   0.2663     H
C       0.0744   0.8821   0.3607     C
C       0.0762   0.1487   0.3618     C
H        0.079   0.4444   0.7143     H
O       0.0798   0.3018   0.8532     O
O       0.0881   0.8599   0.7625     O
C       0.0899   0.4359   0.2747     C
C       0.0904   0.8786   0.6591     C
C        0.096   0.4776   0.8875     C
C        0.099   0.9021   0.5564     C
O       0.0991   0.6521   0.0864     O
O       0.1077   0.7648   0.4523     O
H       0.1156   0.2606   0.0189     H
O       0.1175   0.1425   0.0747     O
O       0.1229   0.1203   0.5241     O
C       0.1263    0.355   0.2581     C
O       0.1291   0.7949   0.8753     O
O       0.1318   0.5982   0.2749     O
H       0.1344   0.1664   0.3344     H
C       0.1493   0.1488   0.4206     C
C       0.1655   0.5158   0.2634     C
C       0.1684   0.8767   0.7242     C
C       0.1723    0.651   0.8692     C
C       0.1747   0.9021   0.6182     C
O       0.1783   0.3918   0.9671     O
O       0.1857   0.9282   0.5151     O
C       0.1908   0.0043     0.24     C
C       0.1994   0.9654   0.2962     C
C       0.2057   0.7462   0.8558     C
O       0.2109   0.1928   0.2084     O
C       0.2123   0.2684   0.0103     C
C       0.2173   0.5021   0.8595     C
C       0.2174   0.8953   0.4022     C
H       0.2259   0.1574   0.8423     H
S       0.2288   0.8511  0.46785     S
C       0.2464   0.3559   0.2284     C
C       0.2518   0.1527   0.0677     C
C       0.2542   0.5898   0.8505     C
H       0.2575   0.2715   0.7916     H
H       0.2577   0.1657   0.4333     H
C       0.2615   0.3306    0.979     C
O       0.2674   0.0171   0.8734     O
H       0.2716   0.4612   0.8472     H
H        0.283   0.9183   0.6311     H
C       0.2848   0.5148   0.2329     C
C       0.2911   0.1473    0.547     C
C       0.2955   0.2703   0.2104     C
C       0.3055   0.1679   0.8222     C
C       0.3055   0.2155   0.0302     C
O       0.3097   0.7656   0.8265     O
O       0.3157   0.8935   0.7384     O
O       0.3164    0.036   0.2265     O
H       0.3201   0.1415   0.5897     H
H       0.3244   0.5528    0.035     H
C       0.3246   0.2357   0.7923     C
C       0.3262   0.4356   0.2159     C
H       0.3298   0.1079   0.5188     H
H       0.3345   0.6079   0.8318     H
H       0.3349   0.2104   0.5477     H
C       0.3417   0.9781   0.3382     C
O       0.3459   0.1136   0.0933     O
C       0.3541   0.9447   0.3911     C
O       0.3597   0.3905   0.7361     O
O       0.3618    0.594   0.2195     O
H       0.3773   0.7907    0.259     H
H       0.3845   0.5233   0.0962     H
O       0.3869   0.8568   0.4955     O
C         0.39   0.0384   0.8561     C
H       0.3921   0.6267   0.1027     H
C       0.4012   0.5719   0.0757     C
H       0.4031    0.701    0.023     H
H       0.4034    0.902   0.2056     H
H       0.4065   0.4353   0.1963     H
C       0.4069   0.1136   0.8225     C
C       0.4079   0.3434   0.9645     C
O       0.4288   0.2808   0.1982     O
H       0.4325   0.0105   0.3305     H
C       0.4453   0.2514   0.7628     C
O       0.4457   0.4092   0.9341     O
C       0.4483   0.2273   0.0165     C
H       0.4512   0.9547   0.4187     H
C       0.4551   0.8007    0.238     C
C        0.473   0.8679    0.207     C
S        0.475   0.3438  0.72928     S
Dy     0.48589  0.13777  0.19568    Dy
H       0.4896    0.808   0.9713     H
C       0.4995    0.291   0.9849     C
O       0.4997   0.0032   0.8656     O
O       0.4998    0.683   0.3319     O
O       0.5002    0.317   0.6681     O
O       0.5003   0.9968   0.1344     O
C       0.5005    0.709   0.0151     C
H       0.5104    0.192   0.0287     H
Dy     0.51411  0.86223  0.80432    Dy
S        0.525   0.6562  0.27072     S
C        0.527   0.1321    0.793     C
C       0.5449   0.1993    0.762     C
H       0.5488   0.0453   0.5813     H
C       0.5517   0.7727   0.9835     C
O       0.5543   0.5908   0.0659     O
C       0.5547   0.7486   0.2372     C
H       0.5675   0.9895   0.6695     H
O       0.5712   0.7192   0.8018     O
C       0.5921   0.6566   0.0355     C
C       0.5931   0.8864   0.1775     C
H       0.5935   0.5647   0.8037     H
H       0.5966    0.098   0.7944     H
H       0.5969    0.299    0.977     H
C       0.5988   0.4281   0.9243     C
H       0.6079   0.3733   0.8973     H
C         0.61   0.9616   0.1439     C
O       0.6131   0.1432   0.5045     O
H       0.6155   0.4767   0.9038     H
H       0.6227   0.2093    0.741     H
O       0.6382    0.406   0.7805     O
O       0.6403   0.6095   0.2639     O
C       0.6459   0.0553   0.6089     C
O       0.6541   0.8864   0.9067     O
C       0.6583   0.0219   0.6618     C
H       0.6651   0.7896   0.4523     H
H       0.6655   0.3921   0.1682     H
H       0.6702   0.8921   0.4812     H
C       0.6738   0.5644   0.7841     C
C       0.6754   0.7643   0.2077     C
H       0.6756   0.4472    0.965     H
H       0.6799   0.8585   0.4103     H
O       0.6836    0.964   0.7735     O
O       0.6843   0.1065   0.2616     O
O       0.6903   0.2344   0.1735     O
C       0.6945   0.7845   0.9698     C
C       0.6945   0.8321   0.1778     C
C       0.7045   0.7297   0.7896     C
C       0.7089   0.8527    0.453     C
C       0.7152   0.4852   0.7671     C
H        0.717   0.0817   0.3689     H
H       0.7284   0.5388   0.1528     H
O       0.7326   0.9829   0.1266     O
C       0.7385   0.6694    0.021     C
H       0.7423   0.8343   0.5667     H
H       0.7425   0.7285   0.2084     H
C       0.7458   0.4102   0.1495     C
C       0.7482   0.8473   0.9323     C
C       0.7536   0.6441   0.7716     C
S       0.7712   0.1489  0.53215     S
H       0.7741   0.8426   0.1577     H
C       0.7826   0.1047   0.5978     C
C       0.7827   0.4979   0.1405     C
C       0.7877   0.7316   0.9897     C
O       0.7891   0.8072   0.7916     O
C       0.7943   0.2538   0.1442     C
C       0.8006   0.0346   0.7038     C
C       0.8092   0.9957     0.76     C
O       0.8143   0.0718   0.4849     O
O       0.8217   0.6082   0.0329     O
C       0.8253   0.0979   0.3818     C
C       0.8277    0.349   0.1308     C
C       0.8316   0.1233   0.2758     C
C       0.8345   0.4842   0.7366     C
C       0.8507   0.8512   0.5794     C
H       0.8656   0.8336   0.6656     H
O       0.8682   0.4018   0.7251     O
O       0.8709   0.2051   0.1247     O
C       0.8737    0.645   0.7419     C
O       0.8771   0.8797   0.4759     O
O       0.8825   0.8575   0.9253     O
H       0.8844   0.7394   0.9811     H
O       0.8923   0.2352   0.5477     O
O       0.9009   0.3479   0.9136     O
C        0.901   0.0979   0.4436     C
C        0.904   0.5224   0.1125     C
C       0.9096   0.1214   0.3409     C
C       0.9101   0.5641   0.7253     C
O       0.9119   0.1401   0.2375     O
O       0.9202   0.6982   0.1468     O
H        0.921   0.5556   0.2857     H
C       0.9238   0.8513   0.6382     C
C       0.9256   0.1179   0.6393     C
H       0.9274   0.6983   0.7337     H
C       0.9357    0.082   0.6923     C
H        0.936   0.5215   0.9251     H
C        0.936   0.8763   0.5367     C
O       0.9415   0.9987    0.791     O
C       0.9463   0.3753   0.1036     C
H        0.949   0.3966    0.649     H
S       0.9507   0.6322  0.09981     S
H       0.9674   0.9098   0.2806     H
Dy     0.97083  0.08715  0.14226    Dy
H       0.9837    0.849   0.3681     H
C       0.9843   0.4612   0.0939     C
C       0.9849   0.3942   0.6922     C
H       0.9899   0.5637   0.7054     H
H       0.9949   0.6636   0.3088     H
H       0.9986   0.6652   0.9085     H
