data_I
_chemical_name_common  '/home/zhangsd/repos/MofS-CGCNN/ML/data/SSD/clean_cifs/WEVQOD_clean'
_cell_length_a 14.71700
_cell_length_b 14.71700
_cell_length_c 15.16900
_cell_angle_alpha 90.00000
_cell_angle_beta  90.00000
_cell_angle_gamma 120.00000
_space_group_name_H-M_alt      'P 1'


loop_
_space_group_symop_operation_xyz
  'x, y, z' 

loop_
_atom_site_label
_atom_site_fract_x
_atom_site_fract_y
_atom_site_fract_z
_atom_site_type_symbol
Cu         0.0      0.5      0.0    Cu
Cu         0.0      0.5      0.5    Cu
O       0.0511   0.4414     0.09     O
O       0.0511   0.4414     0.91     O
O       0.0511   0.6097     0.41     O
O       0.0511   0.6097     0.59     O
H       0.0864   0.3712   0.2333     H
H       0.0864   0.3712   0.7667     H
H       0.0864   0.7152   0.2667     H
H       0.0864   0.7152   0.7333     H
C       0.1296   0.4849    0.139     C
C       0.1296   0.4849    0.861     C
C       0.1296   0.6447    0.361     C
C       0.1296   0.6447    0.639     C
C       0.1476   0.4123   0.1967     C
C       0.1476   0.4123   0.8033     C
C       0.1476   0.7353   0.3033     C
C       0.1476   0.7353   0.6967     C
H       0.1588   0.3645   0.1604     H
H       0.1588   0.3645   0.8396     H
H       0.1588   0.7943   0.3396     H
H       0.1588   0.7943   0.6604     H
O       0.1941  0.58106  0.14342     O
O       0.1941  0.58106  0.85658     O
O       0.1941  0.61304  0.35658     O
O       0.1941  0.61304  0.64342     O
H       0.2057   0.3645   0.3396     H
H       0.2057   0.3645   0.6604     H
H       0.2057   0.8412   0.1604     H
H       0.2057   0.8412   0.8396     H
O       0.2359   0.4718     0.25     O
O       0.2359   0.4718     0.75     O
O       0.2359   0.7641     0.25     O
O       0.2359   0.7641     0.75     O
C       0.2647   0.4123   0.3033     C
C       0.2647   0.4123   0.6967     C
C       0.2647   0.8524   0.1967     C
C       0.2647   0.8524   0.8033     C
H       0.2848   0.3712   0.2667     H
H       0.2848   0.3712   0.7333     H
H       0.2848   0.9136   0.2333     H
H       0.2848   0.9136   0.7667     H
Gd     0.33333  0.66666     0.25    Gd
Gd     0.33333  0.66666     0.75    Gd
C       0.3553   0.4849    0.361     C
C       0.3553   0.4849    0.639     C
C       0.3553   0.8704    0.139     C
C       0.3553   0.8704    0.861     C
H       0.3645   0.1588   0.3396     H
H       0.3645   0.1588   0.6604     H
H       0.3645   0.2057   0.1604     H
H       0.3645   0.2057   0.8396     H
H       0.3712   0.0864   0.2667     H
H       0.3712   0.0864   0.7333     H
H       0.3712   0.2848   0.2333     H
H       0.3712   0.2848   0.7667     H
O      0.38696  0.58106  0.35658     O
O      0.38696  0.58106  0.64342     O
O      0.38696   0.8059  0.14342     O
O      0.38696   0.8059  0.85658     O
O       0.3903   0.4414     0.41     O
O       0.3903   0.4414     0.59     O
O       0.3903   0.9489     0.09     O
O       0.3903   0.9489     0.91     O
C       0.4123   0.1476   0.3033     C
C       0.4123   0.1476   0.6967     C
C       0.4123   0.2647   0.1967     C
C       0.4123   0.2647   0.8033     C
O      0.41894  0.61304  0.14342     O
O      0.41894  0.61304  0.85658     O
O      0.41894   0.8059  0.35658     O
O      0.41894   0.8059  0.64342     O
O       0.4414   0.0511     0.41     O
O       0.4414   0.0511     0.59     O
O       0.4414   0.3903     0.09     O
O       0.4414   0.3903     0.91     O
O       0.4718   0.2359     0.25     O
O       0.4718   0.2359     0.75     O
C       0.4849   0.1296    0.361     C
C       0.4849   0.1296    0.639     C
C       0.4849   0.3553    0.139     C
C       0.4849   0.3553    0.861     C
Cu         0.5      0.0      0.0    Cu
Cu         0.5      0.0      0.5    Cu
Cu         0.5      0.5      0.0    Cu
Cu         0.5      0.5      0.5    Cu
C       0.5151   0.6447    0.139     C
C       0.5151   0.6447    0.861     C
C       0.5151   0.8704    0.361     C
C       0.5151   0.8704    0.639     C
O       0.5282   0.7641     0.25     O
O       0.5282   0.7641     0.75     O
O       0.5586   0.6097     0.09     O
O       0.5586   0.6097     0.91     O
O       0.5586   0.9489     0.41     O
O       0.5586   0.9489     0.59     O
O      0.58106   0.1941  0.35658     O
O      0.58106   0.1941  0.64342     O
O      0.58106  0.38696  0.14342     O
O      0.58106  0.38696  0.85658     O
C       0.5877   0.7353   0.1967     C
C       0.5877   0.7353   0.8033     C
C       0.5877   0.8524   0.3033     C
C       0.5877   0.8524   0.6967     C
O       0.6097   0.0511     0.09     O
O       0.6097   0.0511     0.91     O
O       0.6097   0.5586     0.41     O
O       0.6097   0.5586     0.59     O
O      0.61304   0.1941  0.14342     O
O      0.61304   0.1941  0.85658     O
O      0.61304  0.41894  0.35658     O
O      0.61304  0.41894  0.64342     O
H       0.6288   0.7152   0.2333     H
H       0.6288   0.7152   0.7667     H
H       0.6288   0.9136   0.2667     H
H       0.6288   0.9136   0.7333     H
H       0.6355   0.7943   0.1604     H
H       0.6355   0.7943   0.8396     H
H       0.6355   0.8412   0.3396     H
H       0.6355   0.8412   0.6604     H
C       0.6447   0.1296    0.139     C
C       0.6447   0.1296    0.861     C
C       0.6447   0.5151    0.361     C
C       0.6447   0.5151    0.639     C
Gd     0.66667  0.33334     0.25    Gd
Gd     0.66667  0.33334     0.75    Gd
H       0.7152   0.0864   0.2333     H
H       0.7152   0.0864   0.7667     H
H       0.7152   0.6288   0.2667     H
H       0.7152   0.6288   0.7333     H
C       0.7353   0.1476   0.1967     C
C       0.7353   0.1476   0.8033     C
C       0.7353   0.5877   0.3033     C
C       0.7353   0.5877   0.6967     C
O       0.7641   0.2359     0.25     O
O       0.7641   0.2359     0.75     O
O       0.7641   0.5282     0.25     O
O       0.7641   0.5282     0.75     O
H       0.7943   0.1588   0.1604     H
H       0.7943   0.1588   0.8396     H
H       0.7943   0.6355   0.3396     H
H       0.7943   0.6355   0.6604     H
O       0.8059  0.38696  0.35658     O
O       0.8059  0.38696  0.64342     O
O       0.8059  0.41894  0.14342     O
O       0.8059  0.41894  0.85658     O
H       0.8412   0.2057   0.3396     H
H       0.8412   0.2057   0.6604     H
H       0.8412   0.6355   0.1604     H
H       0.8412   0.6355   0.8396     H
C       0.8524   0.2647   0.3033     C
C       0.8524   0.2647   0.6967     C
C       0.8524   0.5877   0.1967     C
C       0.8524   0.5877   0.8033     C
C       0.8704   0.3553    0.361     C
C       0.8704   0.3553    0.639     C
C       0.8704   0.5151    0.139     C
C       0.8704   0.5151    0.861     C
H       0.9136   0.2848   0.2667     H
H       0.9136   0.2848   0.7333     H
H       0.9136   0.6288   0.2333     H
H       0.9136   0.6288   0.7667     H
O       0.9489   0.3903     0.41     O
O       0.9489   0.3903     0.59     O
O       0.9489   0.5586     0.09     O
O       0.9489   0.5586     0.91     O
