data_I
_chemical_name_common  '/home/zhangsd/repos/MofS-CGCNN/ML/data/SSD/clean_cifs/WEVRUK_clean'
_cell_length_a 14.58400
_cell_length_b 15.19900
_cell_length_c 15.19900
_cell_angle_alpha 120.00000
_cell_angle_beta  90.00000
_cell_angle_gamma 90.00000
_space_group_name_H-M_alt      'P 1'


loop_
_space_group_symop_operation_xyz
  'x, y, z' 

loop_
_atom_site_label
_atom_site_fract_x
_atom_site_fract_y
_atom_site_fract_z
_atom_site_type_symbol
Cu         0.0      0.5     -0.0    Cu
Cu         0.0      0.5      0.5    Cu
O       0.0936   0.0483    0.442     O
O       0.0936   0.3937   0.9517     O
O       0.0936    0.442   0.3937     O
O       0.0936    0.558   0.6063     O
O       0.0936   0.6063   0.0483     O
O       0.0936   0.9517    0.558     O
C       0.1402   0.1275   0.4845     C
C       0.1402    0.357   0.8725     C
C       0.1402   0.4845    0.357     C
C       0.1402   0.5155    0.643     C
C       0.1402    0.643   0.1275     C
C       0.1402   0.8725   0.5155     C
O       0.1407    0.192   0.5771     O
O       0.1407   0.3851    0.808     O
O       0.1407   0.4229   0.6149     O
O       0.1407   0.5771   0.3851     O
O       0.1407   0.6149    0.192     O
O       0.1407    0.808   0.4229     O
H       0.1632   0.1507   0.3646     H
H       0.1632   0.2139   0.8493     H
H       0.1632   0.3646   0.2139     H
H       0.1632   0.6354   0.7861     H
H       0.1632   0.7861   0.1507     H
H       0.1632   0.8493   0.6354     H
C       0.2005   0.1456   0.4147     C
C       0.2005   0.2691   0.8544     C
C       0.2005   0.4147   0.2691     C
C       0.2005   0.5853   0.7309     C
C       0.2005   0.7309   0.1456     C
C       0.2005   0.8544   0.5853     C
H       0.2426   0.0892   0.3792     H
H       0.2426     0.29   0.9108     H
H       0.2426   0.3792     0.29     H
H       0.2426   0.6208     0.71     H
H       0.2426     0.71   0.0892     H
H       0.2426   0.9108   0.6208     H
O         0.25   0.2362   0.4724     O
O         0.25   0.2362   0.7638     O
Pr        0.25  0.33333  0.66666    Pr
O         0.25   0.4724   0.2362     O
O         0.25   0.5276   0.7638     O
Pr        0.25  0.66667  0.33334    Pr
O         0.25   0.7638   0.2362     O
O         0.25   0.7638   0.5276     O
H       0.2574   0.0892     0.71     H
H       0.2574     0.29   0.3792     H
H       0.2574   0.3792   0.0892     H
H       0.2574   0.6208   0.9108     H
H       0.2574     0.71   0.6208     H
H       0.2574   0.9108     0.29     H
C       0.2995   0.1456   0.7309     C
C       0.2995   0.2691   0.4147     C
C       0.2995   0.4147   0.1456     C
C       0.2995   0.5853   0.8544     C
C       0.2995   0.7309   0.5853     C
C       0.2995   0.8544   0.2691     C
H       0.3368   0.1507   0.7861     H
H       0.3368   0.2139   0.3646     H
H       0.3368   0.3646   0.1507     H
H       0.3368   0.6354   0.8493     H
H       0.3368   0.7861   0.6354     H
H       0.3368   0.8493   0.2139     H
O       0.3593    0.192   0.6149     O
O       0.3593   0.3851   0.5771     O
O       0.3593   0.4229    0.808     O
O       0.3593   0.5771    0.192     O
O       0.3593   0.6149   0.4229     O
O       0.3593    0.808   0.3851     O
C       0.3598   0.1275    0.643     C
C       0.3598    0.357   0.4845     C
C       0.3598   0.4845   0.1275     C
C       0.3598   0.5155   0.8725     C
C       0.3598    0.643   0.5155     C
C       0.3598   0.8725    0.357     C
O       0.4064   0.0483   0.6063     O
O       0.4064   0.3937    0.442     O
O       0.4064    0.442   0.0483     O
O       0.4064    0.558   0.9517     O
O       0.4064   0.6063    0.558     O
O       0.4064   0.9517   0.3937     O
Cu         0.5      0.0      0.5    Cu
Cu         0.5      0.5      0.0    Cu
Cu         0.5      0.5      0.5    Cu
O       0.5936   0.0483   0.6063     O
O       0.5936   0.3937    0.442     O
O       0.5936    0.442   0.0483     O
O       0.5936    0.558   0.9517     O
O       0.5936   0.6063    0.558     O
O       0.5936   0.9517   0.3937     O
C       0.6402   0.1275    0.643     C
C       0.6402    0.357   0.4845     C
C       0.6402   0.4845   0.1275     C
C       0.6402   0.5155   0.8725     C
C       0.6402    0.643   0.5155     C
C       0.6402   0.8725    0.357     C
O       0.6407    0.192   0.6149     O
O       0.6407   0.3851   0.5771     O
O       0.6407   0.4229    0.808     O
O       0.6407   0.5771    0.192     O
O       0.6407   0.6149   0.4229     O
O       0.6407    0.808   0.3851     O
H       0.6632   0.1507   0.7861     H
H       0.6632   0.2139   0.3646     H
H       0.6632   0.3646   0.1507     H
H       0.6632   0.6354   0.8493     H
H       0.6632   0.7861   0.6354     H
H       0.6632   0.8493   0.2139     H
C       0.7005   0.1456   0.7309     C
C       0.7005   0.2691   0.4147     C
C       0.7005   0.4147   0.1456     C
C       0.7005   0.5853   0.8544     C
C       0.7005   0.7309   0.5853     C
C       0.7005   0.8544   0.2691     C
H       0.7426   0.0892     0.71     H
H       0.7426     0.29   0.3792     H
H       0.7426   0.3792   0.0892     H
H       0.7426   0.6208   0.9108     H
H       0.7426     0.71   0.6208     H
H       0.7426   0.9108     0.29     H
O         0.75   0.2362   0.4724     O
O         0.75   0.2362   0.7638     O
Pr        0.75  0.33333  0.66666    Pr
O         0.75   0.4724   0.2362     O
O         0.75   0.5276   0.7638     O
Pr        0.75  0.66667  0.33334    Pr
O         0.75   0.7638   0.2362     O
O         0.75   0.7638   0.5276     O
H       0.7574   0.0892   0.3792     H
H       0.7574     0.29   0.9108     H
H       0.7574   0.3792     0.29     H
H       0.7574   0.6208     0.71     H
H       0.7574     0.71   0.0892     H
H       0.7574   0.9108   0.6208     H
C       0.7995   0.1456   0.4147     C
C       0.7995   0.2691   0.8544     C
C       0.7995   0.4147   0.2691     C
C       0.7995   0.5853   0.7309     C
C       0.7995   0.7309   0.1456     C
C       0.7995   0.8544   0.5853     C
H       0.8368   0.1507   0.3646     H
H       0.8368   0.2139   0.8493     H
H       0.8368   0.3646   0.2139     H
H       0.8368   0.6354   0.7861     H
H       0.8368   0.7861   0.1507     H
H       0.8368   0.8493   0.6354     H
O       0.8593    0.192   0.5771     O
O       0.8593   0.3851    0.808     O
O       0.8593   0.4229   0.6149     O
O       0.8593   0.5771   0.3851     O
O       0.8593   0.6149    0.192     O
O       0.8593    0.808   0.4229     O
C       0.8598   0.1275   0.4845     C
C       0.8598    0.357   0.8725     C
C       0.8598   0.4845    0.357     C
C       0.8598   0.5155    0.643     C
C       0.8598    0.643   0.1275     C
C       0.8598   0.8725   0.5155     C
O       0.9064   0.0483    0.442     O
O       0.9064   0.3937   0.9517     O
O       0.9064    0.442   0.3937     O
O       0.9064    0.558   0.6063     O
O       0.9064   0.6063   0.0483     O
O       0.9064   0.9517    0.558     O
Cu         1.0      0.0      0.5    Cu
