data_I
_chemical_name_common  '/home/zhangsd/repos/MofS-CGCNN/ML/data/SSD/clean_cifs/WILHIK_clean'
_cell_length_a  9.77500
_cell_length_b 18.95800
_cell_length_c 11.46900
_cell_angle_alpha 90.00000
_cell_angle_beta  111.35400
_cell_angle_gamma 90.00000
_space_group_name_H-M_alt      'P 1'


loop_
_space_group_symop_operation_xyz
  'x, y, z' 

loop_
_atom_site_label
_atom_site_fract_x
_atom_site_fract_y
_atom_site_fract_z
_atom_site_type_symbol
Zn         0.0      0.0      0.5    Zn
H       0.0002   0.4881   0.7061     H
H       0.0073   0.7811   0.5901     H
H       0.0198   0.6694   0.6791     H
C      0.02554  0.05347  0.21095     C
C      0.03413  0.07199  0.09859     C
H       0.0358   0.1836   0.6704     H
H        0.039    0.584   0.3719     H
H       0.0487   0.2959    0.758     H
H       0.0516    0.912   0.9671     H
H       0.0653   0.1068   0.9038     H
H       0.0661   0.9445   0.7779     H
C      0.07578  0.53724  0.36123     C
O      0.09359  0.50979  0.11365     O
O      0.09639  0.90315  0.57247     O
C      0.09991  0.76172   0.6396     C
H       0.1007   0.5105   0.4394     H
C      0.10743  0.69526  0.69241     C
C      0.12848  0.20365  0.71786     C
Zn     0.13501  0.49443  0.95346    Zn
C      0.13642  0.27034  0.77029     C
O      0.13669  0.05859  0.65517     O
O      0.13852   0.5776  0.84986     O
C        0.152  0.03157  0.30963     C
O      0.15512   0.0128  0.41942     O
N      0.16225  0.06785  0.07934     N
O      0.16235   0.3995  0.89576     O
C       0.1643  0.09194  0.95756     C
H       0.1967   0.0532   0.9172     H
C      0.21005  0.54528  0.32842     C
C      0.21127   0.5296  0.21085     C
C      0.21865  0.87369  0.60683     C
C      0.22824  0.80006  0.65923     C
H       0.2321   0.1318   0.9708     H
C      0.24259  0.66627  0.76474     C
C      0.24942  0.09492  0.67498     C
C      0.25058  0.59492  0.82502     C
C      0.25741  0.16627  0.73526     C
H       0.2679   0.6318   0.5292     H
C      0.27176  0.30006  0.84077     C
C      0.28135  0.37369  0.89317     C
C      0.28873   0.0296  0.28915     C
C      0.28995  0.04528  0.17158     C
H       0.3033   0.5532   0.5828     H
C       0.3357  0.59194  0.54244     C
O      0.33765   0.8995  0.60424     O
N      0.33775  0.56785  0.42066     N
O      0.34488   0.5128  0.08058     O
C        0.348  0.53157  0.19037     C
O      0.36148   0.0776  0.65014     O
O      0.36331  0.55859  0.84483     O
C      0.36358  0.77034  0.72971     C
Zn     0.36499  0.99443  0.54654    Zn
C      0.37152  0.70365  0.78214     C
C      0.39257  0.19526  0.80759     C
H       0.3993   0.0105   0.0606     H
C      0.40009  0.26172   0.8604     C
O      0.40361  0.40315  0.92753     O
O      0.40641  0.00979  0.38635     O
C      0.42422  0.03724  0.13877     C
H       0.4339   0.4445   0.7221     H
H       0.4347   0.6068   0.5962     H
H       0.4484    0.412   0.5329     H
H       0.4513   0.7959    0.742     H
H        0.461    0.084   0.1281     H
H       0.4642   0.6836   0.8296     H
C      0.46587  0.57199  0.40141     C
C      0.47446  0.55347  0.28905     C
H       0.4802   0.1694   0.8209     H
H       0.4927   0.2811   0.9099     H
H       0.4998   0.9881   0.7939     H
Zn         0.5      0.5      0.0    Zn
H       0.5002   0.0119   0.2061     H
H       0.5073   0.7189   0.0901     H
H       0.5198   0.8306   0.1791     H
C      0.52554  0.44653  0.71095     C
C      0.53413  0.42801  0.59859     C
H       0.5358   0.3164   0.1704     H
H        0.539    0.916   0.8719     H
H       0.5487   0.2041    0.258     H
H       0.5516    0.588   0.4671     H
H       0.5653   0.3932   0.4038     H
H       0.5661   0.5555   0.2779     H
C      0.57578  0.96276  0.86123     C
O      0.59359  0.99021  0.61365     O
O      0.59639  0.59685  0.07247     O
C      0.59991  0.73828   0.1396     C
H       0.6007   0.9895   0.9394     H
C      0.60743  0.80474  0.19241     C
C      0.62848  0.29635  0.21786     C
Zn     0.63501  0.00557  0.45346    Zn
C      0.63642  0.22966  0.27029     C
O      0.63669  0.44141  0.15517     O
O      0.63852   0.9224  0.34986     O
C        0.652  0.46843  0.80963     C
O      0.65512   0.4872  0.91942     O
N      0.66225  0.43215  0.57934     N
O      0.66235   0.1005  0.39576     O
C       0.6643  0.40806  0.45756     C
H       0.6967   0.4468   0.4172     H
C      0.71005  0.95472  0.82842     C
C      0.71127   0.9704  0.71085     C
C      0.71865  0.62631  0.10683     C
C      0.72824  0.69994  0.15923     C
H       0.7321   0.3682   0.4708     H
C      0.74259  0.83373  0.26474     C
C      0.74942  0.40508  0.17498     C
C      0.75058  0.90508  0.32502     C
C      0.75741  0.33373  0.23526     C
H       0.7679   0.8682   0.0292     H
C      0.77176  0.19994  0.34077     C
C      0.78135  0.12631  0.39317     C
C      0.78873   0.4704  0.78915     C
C      0.78995  0.45472  0.67158     C
H       0.8033   0.9468   0.0828     H
C       0.8357  0.90806  0.04244     C
O      0.83765   0.6005  0.10424     O
N      0.83775  0.93215  0.92066     N
O      0.84488   0.9872  0.58058     O
C        0.848  0.96843  0.69037     C
O      0.86148   0.4224  0.15014     O
O      0.86331  0.94141  0.34483     O
C      0.86358  0.72966  0.22971     C
Zn     0.86499  0.50557  0.04654    Zn
C      0.87152  0.79635  0.28214     C
C      0.89257  0.30474  0.30759     C
H       0.8993   0.4895   0.5606     H
C      0.90009  0.23828   0.3604     C
O      0.90361  0.09685  0.42753     O
O      0.90641  0.49021  0.88635     O
C      0.92422  0.46276  0.63877     C
H       0.9339   0.0555   0.2221     H
H       0.9347   0.8932   0.0962     H
H       0.9484    0.088   0.0329     H
H       0.9513   0.7041    0.242     H
H        0.961    0.416   0.6281     H
H       0.9642   0.8164   0.3296     H
C      0.96587  0.92801  0.90141     C
C      0.97446  0.94653  0.78905     C
H       0.9802   0.3306   0.3209     H
H       0.9927   0.2189   0.4099     H
H       0.9998   0.5119   0.2939     H
