data_I
_chemical_name_common  '/home/zhangsd/repos/MofS-CGCNN/ML/data/SSD/clean_cifs/WIYZOU_clean'
_cell_length_a 11.37680
_cell_length_b 12.61620
_cell_length_c 15.34010
_cell_angle_alpha 91.53900
_cell_angle_beta  90.00000
_cell_angle_gamma 90.00000
_space_group_name_H-M_alt      'P 1'


loop_
_space_group_symop_operation_xyz
  'x, y, z' 

loop_
_atom_site_label
_atom_site_fract_x
_atom_site_fract_y
_atom_site_fract_z
_atom_site_type_symbol
Co         0.0      0.0      0.0    Co
Co     0.00197  0.49401  0.29242    Co
O      0.00811   0.1852  0.84568     O
O      0.05758  0.34849  0.72448     O
C       0.0631   0.2083  0.91562     C
O      0.07045  0.45653  0.17373     O
H        0.074     0.32    0.064     H
O      0.07881  0.14565  0.97667     O
Co     0.09996  0.71234  0.22878    Co
C       0.1072   0.3632  0.01299     C
C       0.1088   0.5167  0.11586     C
C       0.1119   0.3179  0.92948     C
O      0.11596  0.61612   0.1223     O
C       0.1405   0.4674  0.02933     C
C       0.1521   0.3346  0.76873     C
C       0.1528   0.3789  0.86109     C
O      0.16309  0.58893  0.31084     O
O       0.1659  0.56497   0.7424     O
O      0.17725  0.65348  0.52459     O
O      0.18143  0.71278  0.93825     O
C        0.189   0.5274  0.96226     C
C       0.1936   0.4825  0.87821     C
C       0.2333     0.64   0.9775     C
C       0.2338   0.5492   0.8042     C
O      0.24048   0.2891  0.74003     O
O      0.25952   0.2891  0.24003     O
C       0.2662   0.5492   0.3042     C
C       0.2667     0.64   0.4775     C
C       0.3064   0.4825  0.37821     C
C        0.311   0.5274  0.46226     C
O      0.31857  0.71278  0.43825     O
O      0.32275  0.65348  0.02459     O
O       0.3341  0.56497   0.2424     O
O      0.33691  0.58893  0.81084     O
C       0.3472   0.3789  0.36109     C
C       0.3479   0.3346  0.26873     C
C       0.3595   0.4674  0.52933     C
O      0.38404  0.61612   0.6223     O
C       0.3881   0.3179  0.42948     C
C       0.3912   0.5167  0.61586     C
C       0.3928   0.3632  0.51299     C
Co     0.40004  0.71234  0.72878    Co
O      0.42119  0.14565  0.47667     O
H        0.426     0.32    0.564     H
O      0.42955  0.45653  0.67373     O
C       0.4369   0.2083  0.41562     C
O      0.44242  0.34849  0.22448     O
O      0.49189   0.1852  0.34568     O
Co     0.49803  0.49401  0.79242    Co
Co         0.5      0.0      0.5    Co
Co     0.50197  0.50599  0.20758    Co
O      0.50811   0.8148  0.65432     O
O      0.55758  0.65151  0.77552     O
C       0.5631   0.7917  0.58438     C
O      0.57045  0.54347  0.32627     O
H        0.574     0.68    0.436     H
O      0.57881  0.85435  0.52333     O
Co     0.59996  0.28766  0.27122    Co
C       0.6072   0.6368  0.48701     C
C       0.6088   0.4833  0.38414     C
C       0.6119   0.6821  0.57052     C
O      0.61596  0.38388   0.3777     O
C       0.6405   0.5326  0.47067     C
C       0.6521   0.6654  0.73127     C
C       0.6528   0.6211  0.63891     C
O      0.66309  0.41107  0.18916     O
O       0.6659  0.43503   0.7576     O
O      0.67725  0.34652  0.97541     O
O      0.68143  0.28722  0.56175     O
C        0.689   0.4726  0.53774     C
C       0.6936   0.5175  0.62179     C
C       0.7333     0.36   0.5225     C
C       0.7338   0.4508   0.6958     C
O      0.74048   0.7109  0.75997     O
O      0.75952   0.7109  0.25997     O
C       0.7662   0.4508   0.1958     C
C       0.7667     0.36   0.0225     C
C       0.8064   0.5175  0.12179     C
C        0.811   0.4726  0.03774     C
O      0.81857  0.28722  0.06175     O
O      0.82275  0.34652  0.47541     O
O       0.8341  0.43503   0.2576     O
O      0.83691  0.41107  0.68916     O
C       0.8472   0.6211  0.13891     C
C       0.8479   0.6654  0.23127     C
C       0.8595   0.5326  0.97067     C
O      0.88404  0.38388   0.8777     O
C       0.8881   0.6821  0.07052     C
C       0.8912   0.4833  0.88414     C
C       0.8928   0.6368  0.98701     C
Co     0.90004  0.28766  0.77122    Co
O      0.92119  0.85435  0.02333     O
H        0.926     0.68    0.936     H
O      0.92955  0.54347  0.82627     O
C       0.9369   0.7917  0.08438     C
O      0.94242  0.65151  0.27552     O
O      0.99189   0.8148  0.15432     O
Co     0.99803  0.50599  0.70758    Co
