data_I
_chemical_name_common  '/home/zhangsd/repos/MofS-CGCNN/ML/data/SSD/clean_cifs/WODVOB_clean'
_cell_length_a 24.36100
_cell_length_b 15.38800
_cell_length_c 11.60900
_cell_angle_alpha 90.00000
_cell_angle_beta  118.46000
_cell_angle_gamma 90.00000
_space_group_name_H-M_alt      'P 1'


loop_
_space_group_symop_operation_xyz
  'x, y, z' 

loop_
_atom_site_label
_atom_site_fract_x
_atom_site_fract_y
_atom_site_fract_z
_atom_site_type_symbol
O       0.0084   0.0929   0.6665     O
O       0.0084   0.9071   0.6665     O
O       0.0169   0.1943   0.8575     O
O       0.0169   0.8057   0.8575     O
N       0.0244      0.5   0.9901     N
H       0.0316   0.1625   0.8226     H
H       0.0316   0.8375   0.8226     H
C       0.0459   0.2042   0.2239     C
C       0.0459   0.7958   0.2239     C
C       0.0488   0.1139    0.408     C
C       0.0488   0.8861    0.408     C
H       0.0528   0.2882   0.0911     H
H       0.0528   0.7118   0.0911     H
H       0.0586      0.5   0.2509     H
C       0.0755   0.2616   0.1722     C
C       0.0755   0.7384   0.1722     C
C       0.0795   0.1709   0.3495     C
C       0.0795   0.8291   0.3495     C
O       0.0803   0.0912   0.5229     O
O       0.0803   0.9088   0.5229     O
C       0.0831      0.5    0.108     C
Cd     0.09199      0.0  0.69655    Cd
C        0.093      0.5   0.2363     C
H       0.1273      0.5   0.9996     H
C       0.1335      0.5   0.0851     C
C       0.1374   0.2754    0.246     C
C       0.1374   0.7246    0.246     C
C       0.1418   0.1889   0.4221     C
C       0.1418   0.8111   0.4221     C
C       0.1519      0.5    0.342     C
H       0.1578      0.5   0.4274     H
H       0.1579   0.3087   0.2114     H
H       0.1579   0.6913   0.2114     H
H       0.1641   0.1655   0.5057     H
H       0.1641   0.8345   0.5057     H
C       0.1721   0.2414   0.3735     C
C       0.1721   0.7586   0.3735     C
C       0.1947      0.5   0.1909     C
O       0.1961      0.0   0.7291     O
C        0.203      0.5   0.3163     C
H       0.2119      0.0    0.603     H
N       0.2365   0.2617   0.4409     N
N       0.2365   0.7383   0.4409     N
O        0.238      0.0   0.5774     O
O       0.2395      0.5   0.0528     O
C        0.248      0.5   0.1631     C
C        0.252      0.0   0.8369     C
O       0.2605      0.0   0.9472     O
O        0.262      0.5   0.4226     O
N       0.2635   0.2383   0.5591     N
N       0.2635   0.7617   0.5591     N
H       0.2881      0.5    0.397     H
C        0.297      0.0   0.6837     C
O       0.3039      0.5   0.2709     O
C       0.3053      0.0   0.8091     C
C       0.3279   0.2586   0.6265     C
C       0.3279   0.7414   0.6265     C
H       0.3359   0.3345   0.4943     H
H       0.3359   0.6655   0.4943     H
H       0.3421   0.1913   0.7886     H
H       0.3421   0.8087   0.7886     H
H       0.3422      0.0   0.5726     H
C       0.3481      0.0    0.658     C
C       0.3582   0.3111   0.5779     C
C       0.3582   0.6889   0.5779     C
C       0.3626   0.2246    0.754     C
C       0.3626   0.7754    0.754     C
C       0.3665      0.0   0.9149     C
H       0.3727      0.0   0.0004     H
C        0.407      0.0   0.7637     C
Cd     0.40801      0.5  0.30345    Cd
C       0.4169      0.0    0.892     C
O       0.4197   0.4088   0.4771     O
O       0.4197   0.5912   0.4771     O
C       0.4205   0.3291   0.6505     C
C       0.4205   0.6709   0.6505     C
C       0.4245   0.2384   0.8278     C
C       0.4245   0.7616   0.8278     C
H       0.4414      0.0   0.7491     H
H       0.4472   0.2118   0.9089     H
H       0.4472   0.7882   0.9089     H
C       0.4512   0.3861    0.592     C
C       0.4512   0.6139    0.592     C
C       0.4541   0.2958   0.7761     C
C       0.4541   0.7042   0.7761     C
H       0.4684   0.3375   0.1774     H
H       0.4684   0.6625   0.1774     H
N       0.4756      0.0   0.0099     N
O       0.4831   0.3057   0.1425     O
O       0.4831   0.6943   0.1425     O
O       0.4916   0.4071   0.3335     O
O       0.4916   0.5929   0.3335     O
O       0.5084   0.4071   0.6665     O
O       0.5084   0.5929   0.6665     O
O       0.5169   0.3057   0.8575     O
O       0.5169   0.6943   0.8575     O
N       0.5244      0.0   0.9901     N
H       0.5316   0.3375   0.8226     H
H       0.5316   0.6625   0.8226     H
C       0.5459   0.2958   0.2239     C
C       0.5459   0.7042   0.2239     C
C       0.5488   0.3861    0.408     C
C       0.5488   0.6139    0.408     C
H       0.5528   0.2118   0.0911     H
H       0.5528   0.7882   0.0911     H
H       0.5586      0.0   0.2509     H
C       0.5755   0.2384   0.1722     C
C       0.5755   0.7616   0.1722     C
C       0.5795   0.3291   0.3495     C
C       0.5795   0.6709   0.3495     C
O       0.5803   0.4088   0.5229     O
O       0.5803   0.5912   0.5229     O
C       0.5831      0.0    0.108     C
Cd     0.59199      0.5  0.69655    Cd
C        0.593      0.0   0.2363     C
H       0.6273      0.0   0.9996     H
C       0.6335      0.0   0.0851     C
C       0.6374   0.2246    0.246     C
C       0.6374   0.7754    0.246     C
C       0.6418   0.3111   0.4221     C
C       0.6418   0.6889   0.4221     C
C       0.6519      0.0    0.342     C
H       0.6578      0.0   0.4274     H
H       0.6579   0.1913   0.2114     H
H       0.6579   0.8087   0.2114     H
H       0.6641   0.3345   0.5057     H
H       0.6641   0.6655   0.5057     H
C       0.6721   0.2586   0.3735     C
C       0.6721   0.7414   0.3735     C
C       0.6947      0.0   0.1909     C
O       0.6961      0.5   0.7291     O
C        0.703      0.0   0.3163     C
H       0.7119      0.5    0.603     H
N       0.7365   0.2383   0.4409     N
N       0.7365   0.7617   0.4409     N
O        0.738      0.5   0.5774     O
O       0.7395      0.0   0.0528     O
C        0.748      0.0   0.1631     C
C        0.752      0.5   0.8369     C
O       0.7605      0.5   0.9472     O
O        0.762      0.0   0.4226     O
N       0.7635   0.2617   0.5591     N
N       0.7635   0.7383   0.5591     N
H       0.7881      0.0    0.397     H
C        0.797      0.5   0.6837     C
O       0.8039      0.0   0.2709     O
C       0.8053      0.5   0.8091     C
C       0.8279   0.2414   0.6265     C
C       0.8279   0.7586   0.6265     C
H       0.8359   0.1655   0.4943     H
H       0.8359   0.8345   0.4943     H
H       0.8421   0.3087   0.7886     H
H       0.8421   0.6913   0.7886     H
H       0.8422      0.5   0.5726     H
C       0.8481      0.5    0.658     C
C       0.8582   0.1889   0.5779     C
C       0.8582   0.8111   0.5779     C
C       0.8626   0.2754    0.754     C
C       0.8626   0.7246    0.754     C
C       0.8665      0.5   0.9149     C
H       0.8727      0.5   0.0004     H
C        0.907      0.5   0.7637     C
Cd     0.90801      0.0  0.30345    Cd
C       0.9169      0.5    0.892     C
O       0.9197   0.0912   0.4771     O
O       0.9197   0.9088   0.4771     O
C       0.9205   0.1709   0.6505     C
C       0.9205   0.8291   0.6505     C
C       0.9245   0.2616   0.8278     C
C       0.9245   0.7384   0.8278     C
H       0.9414      0.5   0.7491     H
H       0.9472   0.2882   0.9089     H
H       0.9472   0.7118   0.9089     H
C       0.9512   0.1139    0.592     C
C       0.9512   0.8861    0.592     C
C       0.9541   0.2042   0.7761     C
C       0.9541   0.7958   0.7761     C
H       0.9684   0.1625   0.1774     H
H       0.9684   0.8375   0.1774     H
N       0.9756      0.5   0.0099     N
O       0.9831   0.1943   0.1425     O
O       0.9831   0.8057   0.1425     O
O       0.9916   0.0929   0.3335     O
O       0.9916   0.9071   0.3335     O
