data_I
_chemical_name_common  '/home/zhangsd/repos/MofS-CGCNN/ML/data/SSD/clean_cifs/WOJJOV_SL'
_cell_length_a 21.10120
_cell_length_b 21.10120
_cell_length_c  6.60950
_cell_angle_alpha 90.00000
_cell_angle_beta  90.00000
_cell_angle_gamma 90.00000
_space_group_name_H-M_alt      'P 1'


loop_
_space_group_symop_operation_xyz
  'x, y, z' 

loop_
_atom_site_label
_atom_site_fract_x
_atom_site_fract_y
_atom_site_fract_z
_atom_site_type_symbol
C        0.034     0.23     0.41     C
C        0.034    0.289    0.097     C
C        0.034     0.35    0.772     C
C        0.034     0.65    0.772     C
C        0.034    0.711    0.097     C
C        0.034     0.77     0.41     C
H         0.06     0.21     0.53     H
H         0.06     0.37     0.65     H
H         0.06     0.63     0.65     H
H         0.06     0.79     0.53     H
C        0.068    0.257     0.26     C
C        0.068    0.322    0.939     C
C        0.068    0.678    0.939     C
C        0.068    0.743     0.26     C
H         0.12    0.322    0.939     H
H         0.12    0.678    0.939     H
H         0.13     0.44     0.65     H
H         0.13     0.56     0.65     H
C        0.139    0.253     0.27     C
C        0.139    0.747     0.27     C
C         0.15    0.466    0.772     C
C         0.15    0.534    0.772     C
O        0.165    0.251    0.447     O
O        0.165    0.749    0.447     O
O        0.171    0.248    0.117     O
O        0.171    0.752    0.117     O
H        0.178     0.38    0.939     H
C        0.178    0.432    0.939     C
C        0.178    0.568    0.939     C
H        0.178     0.62    0.939     H
H       0.1953   0.3047    0.715     H
H       0.1953   0.6953    0.715     H
H         0.21     0.06     0.47     H
H         0.21     0.94     0.47     H
C        0.211    0.466    0.097     C
C        0.211    0.534    0.097     C
O        0.219    0.281    0.715     O
O        0.219    0.719    0.715     O
C         0.23    0.034     0.59     C
C         0.23    0.966     0.59     C
C        0.243    0.432     0.26     C
C        0.243    0.568     0.26     C
C        0.247    0.361     0.27     C
C        0.247    0.639     0.27     C
O        0.248    0.171    0.883     O
O        0.248    0.829    0.883     O
O        0.249    0.335    0.447     O
O        0.249    0.665    0.447     O
Al        0.25     0.25      0.0    Al
Al        0.25     0.25      0.5    Al
Al        0.25     0.75      0.0    Al
Al        0.25     0.75      0.5    Al
O        0.251    0.165    0.553     O
O        0.251    0.835    0.553     O
O        0.252    0.329    0.117     O
O        0.252    0.671    0.117     O
C        0.253    0.139     0.73     C
C        0.253    0.861     0.73     C
C        0.257    0.068     0.74     C
C        0.257    0.932     0.74     C
C         0.27    0.466     0.41     C
C         0.27    0.534     0.41     C
O        0.281    0.219    0.285     O
O        0.281    0.781    0.285     O
C        0.289    0.034    0.903     C
C        0.289    0.966    0.903     C
H         0.29     0.44     0.53     H
H         0.29     0.56     0.53     H
H       0.3047   0.1953    0.285     H
H       0.3047   0.8047    0.285     H
C        0.322    0.068    0.061     C
H        0.322     0.12    0.061     H
H        0.322     0.88    0.061     H
C        0.322    0.932    0.061     C
O        0.329    0.252    0.883     O
O        0.329    0.748    0.883     O
O        0.335    0.249    0.553     O
O        0.335    0.751    0.553     O
C         0.35    0.034    0.228     C
C         0.35    0.966    0.228     C
C        0.361    0.247     0.73     C
C        0.361    0.753     0.73     C
H         0.37     0.06     0.35     H
H         0.37     0.94     0.35     H
H         0.38    0.178    0.061     H
H         0.38    0.822    0.061     H
C        0.432    0.178    0.061     C
C        0.432    0.243     0.74     C
C        0.432    0.757     0.74     C
C        0.432    0.822    0.061     C
H         0.44     0.13     0.35     H
H         0.44     0.29     0.47     H
H         0.44     0.71     0.47     H
H         0.44     0.87     0.35     H
C        0.466     0.15    0.228     C
C        0.466    0.211    0.903     C
C        0.466     0.27     0.59     C
C        0.466     0.73     0.59     C
C        0.466    0.789    0.903     C
C        0.466     0.85    0.228     C
C        0.534     0.15    0.228     C
C        0.534    0.211    0.903     C
C        0.534     0.27     0.59     C
C        0.534     0.73     0.59     C
C        0.534    0.789    0.903     C
C        0.534     0.85    0.228     C
H         0.56     0.13     0.35     H
H         0.56     0.29     0.47     H
H         0.56     0.71     0.47     H
H         0.56     0.87     0.35     H
C        0.568    0.178    0.061     C
C        0.568    0.243     0.74     C
C        0.568    0.757     0.74     C
C        0.568    0.822    0.061     C
H         0.62    0.178    0.061     H
H         0.62    0.822    0.061     H
H         0.63     0.06     0.35     H
H         0.63     0.94     0.35     H
C        0.639    0.247     0.73     C
C        0.639    0.753     0.73     C
C         0.65    0.034    0.228     C
C         0.65    0.966    0.228     C
O        0.665    0.249    0.553     O
O        0.665    0.751    0.553     O
O        0.671    0.252    0.883     O
O        0.671    0.748    0.883     O
C        0.678    0.068    0.061     C
H        0.678     0.12    0.061     H
H        0.678     0.88    0.061     H
C        0.678    0.932    0.061     C
H       0.6953   0.1953    0.285     H
H       0.6953   0.8047    0.285     H
H         0.71     0.44     0.53     H
H         0.71     0.56     0.53     H
C        0.711    0.034    0.903     C
C        0.711    0.966    0.903     C
O        0.719    0.219    0.285     O
O        0.719    0.781    0.285     O
C         0.73    0.466     0.41     C
C         0.73    0.534     0.41     C
C        0.743    0.068     0.74     C
C        0.743    0.932     0.74     C
C        0.747    0.139     0.73     C
C        0.747    0.861     0.73     C
O        0.748    0.329    0.117     O
O        0.748    0.671    0.117     O
O        0.749    0.165    0.553     O
O        0.749    0.835    0.553     O
Al        0.75     0.25      0.0    Al
Al        0.75     0.25      0.5    Al
Al        0.75     0.75      0.0    Al
Al        0.75     0.75      0.5    Al
O        0.751    0.335    0.447     O
O        0.751    0.665    0.447     O
O        0.752    0.171    0.883     O
O        0.752    0.829    0.883     O
C        0.753    0.361     0.27     C
C        0.753    0.639     0.27     C
C        0.757    0.432     0.26     C
C        0.757    0.568     0.26     C
C         0.77    0.034     0.59     C
C         0.77    0.966     0.59     C
O        0.781    0.281    0.715     O
O        0.781    0.719    0.715     O
C        0.789    0.466    0.097     C
C        0.789    0.534    0.097     C
H         0.79     0.06     0.47     H
H         0.79     0.94     0.47     H
H       0.8047   0.3047    0.715     H
H       0.8047   0.6953    0.715     H
H        0.822     0.38    0.939     H
C        0.822    0.432    0.939     C
C        0.822    0.568    0.939     C
H        0.822     0.62    0.939     H
O        0.829    0.248    0.117     O
O        0.829    0.752    0.117     O
O        0.835    0.251    0.447     O
O        0.835    0.749    0.447     O
C         0.85    0.466    0.772     C
C         0.85    0.534    0.772     C
C        0.861    0.253     0.27     C
C        0.861    0.747     0.27     C
H         0.87     0.44     0.65     H
H         0.87     0.56     0.65     H
H         0.88    0.322    0.939     H
H         0.88    0.678    0.939     H
C        0.932    0.257     0.26     C
C        0.932    0.322    0.939     C
C        0.932    0.678    0.939     C
C        0.932    0.743     0.26     C
H         0.94     0.21     0.53     H
H         0.94     0.37     0.65     H
H         0.94     0.63     0.65     H
H         0.94     0.79     0.53     H
C        0.966     0.23     0.41     C
C        0.966    0.289    0.097     C
C        0.966     0.35    0.772     C
C        0.966     0.65    0.772     C
C        0.966    0.711    0.097     C
C        0.966     0.77     0.41     C
