data_I
_chemical_name_common  '/home/zhangsd/repos/MofS-CGCNN/ML/data/SSD/clean_cifs/WUBHEI_clean'
_cell_length_a  6.89530
_cell_length_b 10.12260
_cell_length_c 20.24060
_cell_angle_alpha 92.70300
_cell_angle_beta  90.00000
_cell_angle_gamma 109.91300
_space_group_name_H-M_alt      'P 1'


loop_
_space_group_symop_operation_xyz
  'x, y, z' 

loop_
_atom_site_label
_atom_site_fract_x
_atom_site_fract_y
_atom_site_fract_z
_atom_site_type_symbol
Sr         0.0      0.5      0.5    Sr
C      0.00095   0.6177  0.24315     C
C      0.01401  0.39042  0.82595     C
O      0.01471  0.72222  0.14023     O
O        0.017   0.6178   0.3843     O
C      0.02977  0.49734  0.64768     C
H       0.0394   0.7048   0.2654     H
C      0.04095   0.5023  0.72196     C
C      0.06731  0.52682  0.85631     C
O      0.06816  0.61232  0.62008     O
H       0.0766   0.5412   0.9014     H
N      0.09459  0.63198  0.75135     N
Sr     0.09488  0.84336   0.6814    Sr
O       0.0977     -0.0     0.25     O
C       0.1062   0.6414  0.81764     C
H       0.1416   0.9612   0.2815     H
C      0.16293  0.79006  0.84788     C
O      0.17856  0.80752  0.90979     O
H       0.1804   0.0388   0.2185     H
O      0.18822  0.88704  0.80878     O
Sr     0.25152  0.15664  0.81859    Sr
O      0.29249  0.27778  0.35977     O
O      0.30118  0.11296  0.69122     O
H       0.3346   0.2952   0.2346     H
O      0.37104  0.19248  0.59021     O
C      0.37287  0.20994  0.65212     C
C      0.37641  0.39042  0.32595     C
C      0.38325   0.3823  0.25685     C
O       0.3992   0.3822   0.1157     O
O      0.45584  0.38768  0.87992     O
C      0.45951  0.52682  0.35631     C
C      0.46135   0.5023  0.22196     C
N      0.46261  0.36802  0.74865     N
H       0.4646   0.5412   0.4014     H
C       0.4648   0.3586  0.68236     C
C      0.46757  0.49734  0.14768     C
Sr         0.5      0.5     -0.0    Sr
C      0.53243  0.50266  0.85232     C
C       0.5352   0.6414  0.31764     C
H       0.5354   0.4588   0.5986     H
N      0.53739  0.63198  0.25135     N
C      0.53865   0.4977  0.77804     C
C      0.54049  0.47318  0.64369     C
O      0.54416  0.61232  0.12008     O
O       0.6008   0.6178   0.8843     O
C      0.61675   0.6177  0.74315     C
C      0.62359  0.60958  0.67405     C
C      0.62713  0.79006  0.34788     C
O      0.62896  0.80752  0.40979     O
H       0.6654   0.7048   0.7654     H
O      0.69882  0.88704  0.30878     O
O      0.70751  0.72222  0.64023     O
Sr     0.74848  0.84336   0.1814    Sr
O      0.81178  0.11296  0.19122     O
H       0.8196   0.9612   0.7815     H
O      0.82144  0.19248  0.09021     O
C      0.83707  0.20994  0.15212     C
H       0.8584   0.0388   0.7185     H
C       0.8938   0.3586  0.18236     C
O       0.9023     -0.0     0.75     O
Sr     0.90512  0.15664  0.31859    Sr
N      0.90541  0.36802  0.24865     N
H       0.9234   0.4588   0.0986     H
O      0.93184  0.38768  0.37992     O
C      0.93269  0.47318  0.14369     C
C      0.95905   0.4977  0.27804     C
H       0.9606   0.2952   0.7346     H
C      0.97023  0.50266  0.35232     C
O        0.983   0.3822   0.6157     O
O      0.98529  0.27778  0.85977     O
C      0.98599  0.60958  0.17405     C
C      0.99905   0.3823  0.75685     C
