data_I
_chemical_name_common  '/home/zhangsd/repos/MofS-CGCNN/ML/data/SSD/clean_cifs/WUYWIY_clean'
_cell_length_a 15.45620
_cell_length_b 16.27800
_cell_length_c 18.34600
_cell_angle_alpha 108.55900
_cell_angle_beta  103.79900
_cell_angle_gamma 108.45300
_space_group_name_H-M_alt      'P 1'


loop_
_space_group_symop_operation_xyz
  'x, y, z' 

loop_
_atom_site_label
_atom_site_fract_x
_atom_site_fract_y
_atom_site_fract_z
_atom_site_type_symbol
C       0.0082   0.2926   0.9056     C
H       0.0195   0.3829   0.6585     H
C       0.0207   0.7178   0.3002     C
H       0.0279   0.7681   0.1422     H
C       0.0339   0.6693   0.3478     C
H       0.0355   0.6926   0.0686     H
O       0.0504   0.3657   0.8805     O
H       0.0597   0.2894   0.9443     H
H       0.0809   0.8436   0.3012     H
C       0.0812   0.3114   0.7545     C
C       0.0933   0.8011   0.3214     C
H       0.1009   0.5319   0.9749     H
C       0.1148   0.3511   0.8424     C
H       0.1261   0.2724   0.6612     H
C       0.1314   0.6991   0.4082     C
H       0.1391   0.6197   0.9541     H
H       0.1402   0.6689   0.4428     H
C        0.148   0.2996   0.7189     C
C       0.1567   0.5896   0.9889     C
H       0.1771   0.6325    0.046     H
C       0.1872   0.8259    0.373     C
C       0.2086   0.7721   0.4126     C
C       0.2134   0.3814   0.8918     C
H       0.2248   0.2588    0.115     H
O       0.2357   0.5671   0.9766     O
H       0.2381   0.8815   0.3814     H
C       0.2462   0.3257   0.7639     C
C        0.253   0.4293   0.9834     C
O       0.2629    0.289   0.9872     O
C       0.2666   0.5234   0.0241     C
H        0.272    0.187    0.196     H
H       0.2731   0.3491    0.632     H
C       0.2764   0.3684   0.8503     C
C       0.2822   0.3842   0.0296     C
C       0.2871   0.2904   0.1569     C
H       0.2907   0.6632   0.2445     H
C       0.3074   0.3159   0.6477     C
C       0.3085   0.8035   0.4763     C
C       0.3089   0.3007   0.7201     C
C       0.3142   0.5741   0.1106     C
C       0.3154   0.2474   0.2056     C
O       0.3235   0.7494    0.505     O
C       0.3237   0.4292   0.1171     C
C       0.3238   0.7084   0.2284     C
H       0.3239   0.2004   0.9618     H
C       0.3409    0.526   0.1549     C
C       0.3411   0.6788   0.1558     C
H       0.3439   0.8265   0.3264     H
C       0.3457   0.2678   0.9932     C
C       0.3511   0.3817   0.1694     C
C       0.3559   0.2822    0.601     C
C       0.3563    0.807    0.278     C
H       0.3571   0.2959   0.5556     H
C       0.3637   0.2521   0.7416     C
H       0.3694   0.2441   0.7903     H
O       0.3697   0.8832   0.4985     O
H       0.3718   0.5588   0.2123     H
O       0.3749   0.3993   0.8996     O
O       0.3787   0.1703   0.3148     O
H       0.3825   0.2859   0.0503     H
H       0.3868   0.3028   0.9715     H
C       0.3885   0.7452   0.1322     C
H       0.3996   0.7253   0.0833     H
C       0.4034    0.228   0.6198     C
C       0.4051   0.8726   0.2552     C
C       0.4072   0.2927   0.2685     C
C       0.4089    0.216   0.6924     C
H        0.419   0.5372   0.9243     H
C       0.4204   0.8419   0.1798     C
O       0.4245    0.002    0.375     O
H       0.4353   0.4785   0.8467     H
C       0.4378   0.2465   0.3189     C
C       0.4391   0.4877   0.9019     C
C       0.4427   0.4298   0.2365     C
C       0.4431   0.1771     0.56     C
H       0.4438    0.183   0.7076     H
C        0.446   0.9755   0.3102     C
O        0.451   0.1051   0.5651     O
H       0.4518   0.8866   0.1624     H
O        0.463   0.2146    0.512     O
H       0.4664   0.5819   0.6739     H
O       0.4701   0.7183   0.6341     O
C       0.4716   0.3864   0.2837     C
H       0.4841   0.4921   0.2486     H
Cd     0.48569  0.83397  0.58842    Cd
H       0.4943   0.4939   0.0637     H
O       0.4993   0.9615    0.706     O
Cd         0.5      0.0      0.5    Cd
O       0.5007   0.0385    0.294     O
H       0.5057   0.5061   0.9363     H
Cd     0.51431  0.16603  0.41158    Cd
H       0.5159   0.5079   0.7514     H
C       0.5284   0.6136   0.7163     C
O       0.5299   0.2817   0.3659     O
H       0.5336   0.4181   0.3261     H
O        0.537   0.7854    0.488     O
H       0.5482   0.1134   0.8376     H
O        0.549   0.8949   0.4349     O
C        0.554   0.0245   0.6898     C
H       0.5562    0.817   0.2924     H
C       0.5569   0.8229     0.44     C
C       0.5573   0.5702   0.7635     C
C       0.5609   0.5123   0.0981     C
C       0.5622   0.7535   0.6811     C
H       0.5647   0.5215   0.1533     H
O       0.5755    0.998    0.625     O
C       0.5796   0.1581   0.8202     C
H        0.581   0.4628   0.0757     H
C       0.5911    0.784   0.3076     C
C       0.5928   0.7073   0.7315     C
C       0.5949   0.1274   0.7448     C
C       0.5966    0.772   0.3802     C
H       0.6004   0.2747   0.9167     H
C       0.6115   0.2548   0.8678     C
H       0.6132   0.6972   0.0285     H
H       0.6175   0.7141   0.9497     H
O       0.6213   0.8297   0.6852     O
O       0.6251   0.6007   0.1004     O
H       0.6282   0.4412   0.7877     H
O       0.6303   0.1168   0.5015     O
H       0.6306   0.7559   0.2097     H
C       0.6363   0.7479   0.2584     C
H       0.6429   0.7041   0.4444     H
C       0.6437    0.193    0.722     C
C       0.6441   0.7178    0.399     C
C       0.6489   0.6183   0.8306     C
C       0.6543   0.7322   0.0068     C
H       0.6561   0.1735   0.6736     H
C       0.6589   0.3212   0.8442     C
C       0.6591    0.474   0.8451     C
H       0.6761   0.7996   0.0382     H
C       0.6762   0.2916   0.7716     C
C       0.6763   0.5708   0.8829     C
O       0.6765   0.2506    0.495     O
C       0.6846   0.7526   0.7944     C
C       0.6858   0.4259   0.8894     C
C       0.6911   0.6993   0.2799     C
C       0.6915   0.1965   0.5237     C
C       0.6926   0.6841   0.3523     C
H       0.7093   0.3368   0.7555     H
C       0.7129   0.7096   0.8431     C
C       0.7178   0.6158   0.9704     C
C       0.7236   0.6316   0.1497     C
H       0.7269   0.6509    0.368     H
H        0.728    0.813    0.804     H
C       0.7334   0.4766   0.9759     C
O       0.7371    0.711   0.0128     O
C        0.747   0.5707   0.0166     C
C       0.7538   0.6743   0.2361     C
H       0.7619   0.1185   0.6186     H
O       0.7643   0.4329   0.0234     O
H       0.7752   0.7412    0.885     H
C       0.7866   0.6186   0.1082     C
C       0.7914   0.2279   0.5874     C
C       0.8128   0.1741    0.627     C
H       0.8229   0.3675    0.954     H
C       0.8433   0.4104   0.0111     C
C        0.852   0.7004   0.2811     C
H       0.8598   0.3311   0.5572     H
H       0.8609   0.3803   0.0459     H
C       0.8686   0.3009   0.5918     C
H       0.8739   0.7276   0.3388     H
C       0.8852   0.6489   0.1576     C
H       0.8991   0.4681   0.0251     H
C       0.9067   0.1989   0.6786     C
C       0.9188   0.6886   0.2455     C
H       0.9191   0.1564   0.6988     H
H       0.9403   0.7106   0.0557     H
O       0.9496   0.6343   0.1195     O
H       0.9645   0.3074   0.9314     H
C       0.9661   0.3307   0.6522     C
H       0.9721   0.2319   0.8578     H
C       0.9793   0.2822   0.6998     C
H       0.9805   0.6171   0.3415     H
C       0.9918   0.7074   0.0944     C
