data_I
_chemical_name_common  '/home/zhangsd/repos/MofS-CGCNN/ML/data/SSD/clean_cifs/WUYWOE_clean'
_cell_length_a 15.64690
_cell_length_b 18.47100
_cell_length_c 27.45000
_cell_angle_alpha 99.52500
_cell_angle_beta  90.06300
_cell_angle_gamma 103.87600
_space_group_name_H-M_alt      'P 1'


loop_
_space_group_symop_operation_xyz
  'x, y, z' 

loop_
_atom_site_label
_atom_site_fract_x
_atom_site_fract_y
_atom_site_fract_z
_atom_site_type_symbol
Cd         0.0      0.0      0.5    Cd
H       0.0011   0.5057    0.824     H
C       0.0055   0.7616   0.5707     C
O       0.0094    0.315   0.2921     O
H       0.0121   0.7236   0.5452     H
C       0.0158   0.1271   0.3528     C
O       0.0198   0.8789   0.3528     O
C       0.0211   0.5563   0.8431     C
H        0.023   0.0895   0.3272     H
C       0.0233   0.8156   0.6568     C
H       0.0269   0.5506   0.8773     H
C       0.0279   0.3375   0.1784     C
C       0.0333   0.1805   0.4397     C
C       0.0335   0.7608   0.6179     C
C       0.0391   0.7562    0.732     C
O       0.0393   0.9256   0.4316     O
C        0.043   0.1268   0.3999     C
H       0.0454   0.2233    0.126     H
O       0.0455    0.224   0.5256     O
C       0.0458   0.4067   0.1603     C
C       0.0535   0.6909   0.8042     C
C       0.0564   0.1749   0.4894     C
C       0.0583   0.8187   0.7071     C
H       0.0598   0.7228   0.6238     H
C       0.0647   0.9245   0.3883     C
H       0.0694   0.0888   0.4056     H
C       0.0711   0.7603   0.7795     C
H        0.073   0.1921   0.1718     H
O       0.0889   0.1196  0.49749     O
C       0.0895    0.231   0.1519     C
Cd      0.0927  0.16377  0.58609    Cd
O       0.0973    0.305   0.1828     O
C       0.1002   0.3184   0.3022     C
H       0.1045   0.2769   0.3182     H
C       0.1083   0.5882   0.8275     C
O       0.1084   0.9736     0.54     O
C       0.1093   0.8868   0.7341     C
H       0.1195   0.0023   0.8537     H
C       0.1202   0.6537    0.808     C
H       0.1209   0.9297   0.7192     H
H       0.1222    0.446   0.8115     H
H       0.1268   0.3653   0.3234     H
C       0.1284   0.8294   0.8037     C
H       0.1302   0.3153   0.2717     H
C       0.1317   0.4429   0.1447     C
O        0.135   0.2702   0.6446     O
H       0.1386   0.9707   0.3052     H
C       0.1432   0.8936   0.7821     C
H       0.1451    0.229   0.1377     H
H       0.1456   0.5444   0.1884     H
H       0.1466   0.3542   0.0927     H
C       0.1536   0.9735     0.38     C
O       0.1564   0.8315    0.852     O
C       0.1587   0.0089   0.5757     C
O       0.1606   0.0754   0.5988     O
H       0.1698   0.8667   0.5627     H
H       0.1699   0.6054   0.7241     H
C       0.1716   0.4771   0.8296     C
C       0.1719   0.4044   0.1062     C
C       0.1727   0.5181   0.1637     C
C       0.1774   0.9914   0.3324     C
C       0.1801   0.5544   0.8386     C
C       0.1806   0.9994   0.8535     C
H       0.1866   0.9642   0.8751     H
H        0.192   0.1035   0.8834     H
C       0.1963   0.9686    0.807     C
H       0.1984   0.9972   0.4512     H
O       0.2023   0.6833   0.7886     O
H       0.2033   0.3806   0.7119     H
C       0.2076   0.2923   0.6236     C
C       0.2133   0.0058   0.4195     C
C       0.2143   0.6456   0.7399     C
C       0.2191   0.8971   0.5812     C
H       0.2256   0.3932   0.8388     H
C       0.2289   0.9753   0.5939     C
O       0.2301   0.2539   0.5873     O
C       0.2322   0.0712   0.8749     C
C       0.2328   0.4453   0.8462     C
H       0.2475   0.2281    0.348     H
C       0.2482   0.4044   0.6935     C
H       0.2499   0.7997   0.7248     H
C       0.2507   0.8462   0.8593     C
C       0.2515   0.4439   0.0882     C
C       0.2532   0.5553   0.1469     C
C       0.2556   0.0383   0.3269     C
C        0.257   0.5975   0.8632     C
H       0.2579   0.0655   0.9058     H
C       0.2623   0.3679   0.6465     C
C       0.2643   0.0086   0.7815     C
H       0.2664   0.6613   0.7241     H
H       0.2669   0.8648   0.8936     H
H       0.2677   0.6499   0.8669     H
H       0.2681   0.0521   0.2961     H
H       0.2691   0.8002   0.8491     H
H       0.2756   0.9875   0.7498     H
H       0.2772   0.4192   0.0621     H
H       0.2789   0.8833   0.8399     H
H       0.2796   0.6047   0.1618     H
H       0.2799   0.8132    0.589     H
C       0.2856   0.8652   0.5971     C
H       0.2907   0.4975   0.7452     H
C       0.2937   0.5206    0.109     C
C       0.2943   0.0504   0.4119     C
C       0.2996   0.4752   0.7133     C
C       0.3004   0.1113   0.8498     C
C       0.3006   0.0185   0.6229     C
H        0.304   0.2026   0.3861     H
C       0.3049   0.4889   0.8737     C
H       0.3054   0.0701   0.6325     H
C       0.3063   0.2315   0.3599     C
C       0.3107   0.8215   0.7198     C
C       0.3155   0.0797   0.8032     C
H        0.318   0.8736   0.7166     H
C       0.3186   0.0668   0.3654     C
C       0.3187    0.567   0.8825     C
O       0.3267   0.2202   0.9132     O
C       0.3312   0.4064   0.6196     C
H       0.3342   0.0703   0.4387     H
H       0.3348   0.2835   0.3721     H
O       0.3367   0.7821   0.6769     O
H       0.3409   0.2025   0.2278     H
H       0.3432    0.383   0.5885     H
H       0.3449   0.1217    0.201     H
H       0.3462   0.8184   0.7476     H
C       0.3532   0.1894   0.8744     C
O       0.3548   0.2022   0.3202     O
C       0.3596   0.9102   0.6248     C
H         0.36   0.1057   0.7856     H
C       0.3654   0.5141   0.6855     C
C       0.3659   0.9872   0.6381     C
H        0.368   0.5976   0.9008     H
O       0.3682   0.3864   0.8802     O
H       0.3701   0.1908   0.1731     H
C       0.3702   0.4539   0.8982     C
C       0.3721   0.1748   0.2045     C
C       0.3756   0.5578   0.0888     C
C         0.38    0.477   0.6386     C
O       0.3959   0.5271    0.048     O
C       0.4082   0.1113   0.3578     C
O       0.4112   0.6397   0.6314     O
H       0.4142   0.0179   0.6573     H
O       0.4151   0.4942   0.9339     O
O       0.4166   0.6199   0.1124     O
C       0.4168   0.5907   0.7075     C
H       0.4219    0.401   0.0848     H
O       0.4222   0.2173   0.8539     O
C       0.4225   0.1747   0.3344     C
C       0.4225   0.8178   0.6644     C
H       0.4241   0.5011   0.6201     H
H       0.4319   0.5653   0.7744     H
C       0.4325    0.879   0.6388     C
C       0.4349   0.6498   0.6807     C
H       0.4368   0.4003   0.1686     H
O       0.4391   0.3701  0.99661     O
C       0.4426   0.6055    0.757     C
C       0.4479   0.3658   0.0955     C
Cd     0.45229  0.32508  0.91202    Cd
H       0.4537   0.7771   0.8613     H
C       0.4572   0.3654   0.1463     C
H       0.4609   0.6505   0.5664     H
O       0.4627    0.189    0.222     O
H        0.468   0.7735   0.9437     H
H       0.4697   0.0458   0.3889     H
H        0.472   0.3102   0.3891     H
C       0.4729   0.3203   0.0091     C
C        0.476   0.3158   0.0626     C
C       0.4764   0.7262   0.7048     C
C       0.4774   0.7402   0.8715     C
C       0.4795   0.0864   0.3719     C
C        0.482   0.6459   0.5983     C
C       0.4842   0.6784   0.7826     C
C       0.4867   0.7382   0.9207     C
C       0.4925   0.7903   0.6777     C
H       0.4954   0.3985   0.4046     H
C        0.496   0.3145   0.1641     C
O       0.4981   0.7256   0.0212     O
C       0.4999    0.737   0.7548     C
Cd         0.5      0.5      0.0    Cd
C       0.5001    0.263   0.2452     C
O       0.5019   0.2744   0.9788     O
C        0.504   0.6855   0.8359     C
H       0.5046   0.6015   0.5954     H
C       0.5075   0.2097   0.3223     C
C       0.5133   0.2618   0.0793     C
C       0.5158   0.3216   0.2174     C
C        0.518   0.3541   0.4017     C
C       0.5205   0.9136   0.6281     C
C       0.5226   0.2598   0.1285     C
C       0.5236   0.2738   0.2952     C
C        0.524   0.6842   0.9374     C
C       0.5271   0.6797   0.9909     C
H        0.528   0.6898   0.6109     H
H       0.5303   0.9542   0.6111     H
H        0.532   0.2265   0.0563     H
O       0.5373    0.811    0.778     O
H       0.5391   0.3495   0.4336     H
C       0.5428   0.6346   0.8537     C
H       0.5463   0.2229   0.1387     H
Cd     0.54771  0.67492  0.08798    Cd
C       0.5521   0.6342   0.9045     C
C       0.5574   0.3945    0.243     C
O       0.5609   0.6299  0.00339     O
H       0.5632   0.5997   0.8314     H
C       0.5651   0.3502   0.3193     C
C       0.5675    0.121   0.3612     C
H       0.5681   0.4347   0.2256     H
H       0.5759   0.4989   0.3799     H
C       0.5775   0.1822   0.3356     C
C       0.5775   0.8253   0.6656     C
O       0.5778   0.7827   0.1461     O
H       0.5781    0.599   0.9152     H
C       0.5832   0.4093   0.2925     C
O       0.5834   0.3801   0.8876     O
O       0.5849   0.5058   0.0661     O
H       0.5858   0.9821   0.3427     H
O       0.5888   0.3603   0.3686     O
C       0.5918   0.8887   0.6422     C
O       0.6041   0.4729    0.952     O
C         0.62    0.523   0.3614     C
C       0.6244   0.4422   0.9112     C
C       0.6279   0.8252   0.7955     C
C       0.6298   0.5461   0.1018     C
H       0.6299   0.8092   0.8269     H
O       0.6318   0.6136   0.1198     O
H        0.632   0.4024   0.0992     H
C       0.6341   0.0128   0.3619     C
C       0.6346   0.4859   0.3145     C
H         0.64   0.8943   0.2144     H
C       0.6404   0.0898   0.3752     C
O       0.6452   0.7978   0.6798     O
C       0.6468   0.8106   0.1256     C
H       0.6538   0.1816   0.2524     H
H       0.6551   0.8783    0.799     H
H       0.6568    0.617   0.4115     H
H       0.6591   0.7975   0.7722     H
O       0.6633   0.2179   0.3231     O
H       0.6652   0.7165   0.6279     H
H       0.6658   0.9297   0.5613     H
C       0.6688   0.5936   0.3804     C
O       0.6733   0.7798   0.0868     O
C       0.6813    0.433   0.1175     C
C       0.6814   0.9332   0.6346     C
H        0.682   0.1264   0.2834     H
C       0.6845   0.9203   0.1968     C
C       0.6893   0.1785   0.2802     C
C       0.6937   0.7685   0.6401     C
H       0.6946   0.9299   0.3675     H
C       0.6951   0.5111   0.1263     C
H        0.696   0.7974   0.6139     H
C       0.6994   0.9815   0.3771     C
C       0.6996   0.8887   0.1502     C
C       0.7004   0.5248   0.2867     C
C       0.7057   0.9496   0.5881     C
C       0.7063   0.4794    0.891     C
H       0.7093   0.5025   0.2548     H
C       0.7144   0.1348   0.4029     C
H       0.7201   0.1868    0.411     H
H       0.7204   0.3953   0.8382     H
H       0.7211   0.1167   0.1601     H
H       0.7228   0.5808   0.9379     H
H       0.7244   0.0125   0.2502     H
H       0.7309   0.1998   0.1509     H
H       0.7319   0.9479   0.7039     H
H       0.7323   0.3501   0.1331     H
H       0.7331   0.1352   0.1064     H
H       0.7336   0.3387   0.2759     H
C       0.7357   0.9914   0.2185     C
C       0.7377   0.6321   0.3535     C
H       0.7421   0.9345   0.0942     H
C        0.743   0.4025   0.1368     C
C       0.7444   0.9617   0.6731     C
C       0.7468   0.4447   0.8531     C
C       0.7485   0.5561   0.9118     C
C       0.7493   0.1538   0.1407     C
H       0.7501   0.2003   0.2752     H
C       0.7518   0.5956   0.3065     C
H       0.7525   0.7719    0.652     H
C       0.7672   0.5547   0.1538     C
C       0.7678   0.9288   0.1251     C
O       0.7699   0.7461   0.4127     O
C       0.7711   0.0247   0.4061     C
H       0.7744   0.6068   0.1612     H
C       0.7809   0.1029   0.4188     C
C       0.7857   0.3544   0.2601     C
C       0.7867   0.9942   0.5805     C
C       0.7924   0.7077   0.3764     C
H       0.7967   0.6194   0.2881     H
O       0.7977   0.3167   0.2114     O
H       0.8016   0.0028   0.5488     H
C       0.8037   0.0314    0.193     C
H        0.808   0.8965   0.1166     H
H       0.8134   0.0358   0.1249     H
C       0.8194   0.0006   0.1465     C
C       0.8199   0.4456   0.1614     C
C       0.8226   0.0086   0.6676     C
C       0.8273   0.4819   0.8363     C
C       0.8281   0.5956   0.8938     C
C       0.8284   0.5229   0.1704     C
H       0.8301   0.3946   0.2759     H
H       0.8302   0.1333   0.4373     H
O       0.8394   0.9246   0.4012     O
C       0.8413   0.9911   0.4243     C
O       0.8436   0.1685    0.148     O
C       0.8464   0.0265     0.62     C
H       0.8534   0.6458   0.9073     H
H       0.8544   0.4556   0.8116     H
H       0.8549    0.771   0.8623     H
C       0.8568   0.1064   0.2179     C
H       0.8614   0.0293   0.6948     H
O        0.865   0.7298   0.3554     O
C       0.8683   0.5571   0.8553     C
H       0.8698   0.6847   0.7283     H
C       0.8716   0.1706   0.1963     C
H       0.8732   0.6347   0.6766     H
H       0.8778    0.554   0.1885     H
H       0.8791   0.0703   0.2808     H
C       0.8798   0.3463    0.192     C
H       0.8805   0.9977   0.1463     H
C       0.8907   0.1132   0.2659     C
O       0.8916   0.0264     0.46     O
C       0.8917   0.4118   0.1725     C
H       0.8955   0.7231   0.6818     H
C       0.8998   0.6816   0.6978     C
O       0.9027    0.695   0.8172     O
Cd      0.9073  0.83623  0.41391    Cd
C       0.9105    0.769   0.8481     C
O       0.9111   0.8804  0.50251     O
H        0.927   0.8079   0.8282     H
C       0.9289   0.2397   0.2205     C
H       0.9306   0.9112   0.5944     H
C       0.9353   0.0755   0.6117     C
H       0.9402   0.2772   0.3762     H
C       0.9417   0.1813   0.2929     C
C       0.9436   0.8251   0.5106     C
C       0.9465   0.3091   0.1958     C
C       0.9542   0.5933   0.8397     C
O       0.9545    0.776   0.4744     O
H       0.9546   0.7767    0.874     H
C        0.957   0.8732   0.6001     C
O       0.9607   0.0744   0.5684     O
C       0.9609   0.2438    0.268     C
C       0.9665   0.2392   0.3821     C
C       0.9667   0.8195   0.5603     C
C       0.9721   0.6625   0.8216     C
H       0.9731   0.4494   0.1227     H
C       0.9767   0.1844   0.3432     C
H        0.977   0.9105   0.6728     H
C       0.9789   0.4437   0.1569     C
O       0.9802   0.1211   0.6472     O
C       0.9842   0.8729   0.6472     C
H       0.9879   0.2764   0.4548     H
O       0.9906    0.685   0.7079     O
C       0.9945   0.2384   0.4293     C
H       0.9989   0.4943    0.176     H
