data_I
_chemical_name_common  '/home/zhangsd/repos/MofS-CGCNN/ML/data/SSD/clean_cifs/WUYWUK_clean'
_cell_length_a 15.46800
_cell_length_b 15.78500
_cell_length_c 18.03800
_cell_angle_alpha 107.27000
_cell_angle_beta  103.94900
_cell_angle_gamma 107.16300
_space_group_name_H-M_alt      'P 1'


loop_
_space_group_symop_operation_xyz
  'x, y, z' 

loop_
_atom_site_label
_atom_site_fract_x
_atom_site_fract_y
_atom_site_fract_z
_atom_site_type_symbol
Co         0.0      0.0      0.0    Co
H       0.0074    0.517   0.4304     H
H       0.0138   0.0876   0.3314     H
H       0.0201   0.4982   0.2577     H
O       0.0232    0.772   0.9872     O
C       0.0246   0.6024   0.2179     C
O       0.0249   0.0648   0.7974     O
Co     0.02536  0.17788  0.91484    Co
C       0.0284   0.0004   0.1872     C
O       0.0359   0.2921   0.8705     O
H       0.0383   0.4285   0.8211     H
O       0.0417   0.8954    0.938     O
C       0.0456     0.82    0.937     C
O       0.0511   0.9799   0.1196     O
C       0.0523   0.7447   0.1771     C
C       0.0534   0.1325   0.3174     C
H       0.0563   0.8188   0.7965     H
C       0.0588   0.5605   0.2664     C
C       0.0594   0.4928   0.5914     C
H       0.0722   0.4457   0.5528     H
H       0.0728   0.4859   0.6436     H
C       0.0757   0.1027   0.2437     C
H       0.0815   0.2529   0.4173     H
C       0.0858   0.7792   0.8103     C
C       0.0875   0.7628   0.8827     C
C       0.0876   0.6967   0.2275     C
C       0.0935   0.2324   0.3683     C
O       0.1096   0.8218   0.1786     O
H       0.1118   0.6973   0.4618     H
O       0.1205   0.5884   0.6037     O
H       0.1222   0.7415   0.7079     H
C       0.1288   0.7358   0.7586     C
H       0.1299   0.4286   0.2919     H
C        0.135   0.7047   0.9051     C
H       0.1357    0.694   0.9532     H
C       0.1363   0.1734   0.2259     C
H       0.1377   0.7139   0.5559     H
O        0.142   0.1037   0.0282     O
C       0.1499   0.2997   0.3472     C
H       0.1514    0.155   0.1783     H
C       0.1517   0.6079   0.3305     C
C       0.1589   0.4593   0.3496     C
C       0.1621   0.7308   0.5158     C
O       0.1724   0.2273   0.9879     O
C       0.1732   0.2684   0.2771     C
C       0.1786   0.7378   0.2865     C
C        0.179   0.4054   0.3941     C
C       0.1801   0.5579   0.3871     C
C       0.1816   0.6631   0.8547     C
H       0.1828   0.7992    0.531     H
C       0.1834   0.6822   0.7835     C
C       0.1961   0.1844   0.0306     C
C       0.2097   0.6986    0.339     C
H       0.2108   0.6234   0.8687     H
C       0.2147   0.6134   0.6509     C
H        0.215   0.3136   0.2649     H
C       0.2174   0.4536   0.4796     C
C       0.2201   0.6033   0.4702     C
H       0.2214   0.7961   0.2907     H
O       0.2364   0.4032   0.5297     O
C       0.2411   0.5509   0.5186     C
O       0.2464   0.7028   0.5141     O
C       0.2486   0.6573   0.7402     C
H       0.2704   0.7326   0.3812     H
C       0.2802   0.5982   0.6123     C
H       0.2805   0.1324   0.1418     H
C       0.2977   0.2224   0.0876     C
H       0.3038     0.33   0.4681     H
H       0.3152   0.3254   0.5554     H
C       0.3153   0.3663   0.5252     C
C       0.3259   0.1862   0.1416     C
C       0.3422   0.6798    0.784     C
H       0.3461   0.3284    0.055     H
H       0.3628   0.7038   0.8417     H
C       0.3652   0.2982   0.0892     C
C       0.3762   0.6273   0.6599     C
H        0.377   0.4199   0.5493     H
C       0.4089   0.6689   0.7467     C
H       0.4194   0.6607   0.5332     H
C       0.4219   0.2252   0.1992     C
H       0.4365   0.1986   0.2378     H
O       0.4385   0.6078   0.6217     O
C       0.4618   0.3353   0.1381     C
C       0.4734   0.6687   0.5783     C
H       0.4811     0.35   0.4433     H
C       0.4895   0.2966   0.1997     C
H       0.4922   0.6165    0.868     H
H       0.4956   0.2648   0.3834     H
H       0.5044   0.7352   0.6166     H
H       0.5078   0.3835    0.132     H
C       0.5105   0.7034   0.8003     C
H       0.5189     0.65   0.5567     H
C       0.5266   0.3313   0.4217     C
C       0.5382   0.6647   0.8619     C
O       0.5615   0.3922   0.3783     O
H       0.5635   0.8014   0.7622     H
C       0.5781   0.7748   0.8008     C
H       0.5806   0.3393   0.4668     H
C       0.5911   0.3311   0.2533     C
H        0.623   0.5801   0.4507     H
C       0.6238   0.3727   0.3401     C
C       0.6348   0.7018   0.9108     C
H       0.6372   0.2962   0.1583     H
H       0.6539   0.6716    0.945     H
C       0.6578   0.3202    0.216     C
C       0.6741   0.8138   0.8584     C
C       0.6847   0.6337   0.4748     C
H       0.6848   0.6746   0.4446     H
H       0.6962     0.67   0.5319     H
C       0.7023   0.7776   0.9124     C
H       0.7195   0.8676   0.8582     H
C       0.7198   0.4018   0.3877     C
H       0.7296   0.2674   0.6188     H
C       0.7514   0.3427   0.2598     C
O       0.7536   0.2972   0.4859     O
C       0.7589   0.4491   0.4814     C
O       0.7636   0.5968   0.4703     O
H       0.7786   0.2039   0.7093     H
C       0.7799   0.3967   0.5298     C
C       0.7826   0.5464   0.5204     C
H        0.785   0.6864   0.7351     H
C       0.7853   0.3866   0.3491     C
H       0.7892   0.3766   0.1313     H
C       0.7903   0.3014    0.661     C
C       0.8039   0.8156   0.9694     C
C       0.8166   0.3178   0.2165     C
H       0.8172   0.2008    0.469     H
C       0.8184   0.3369   0.1453     C
C       0.8199   0.4421   0.6129     C
C        0.821   0.5946   0.6059     C
C       0.8214   0.2622   0.7135     C
C       0.8268   0.7316   0.7229     C
O       0.8276   0.7727   0.0121     O
C       0.8379   0.2692   0.4842     C
C       0.8411   0.5407   0.6504     C
C       0.8483   0.3921   0.6695     C
H       0.8486    0.845   0.8217     H
C       0.8501   0.7003   0.6528     C
O        0.858   0.8963   0.9718     O
H       0.8623   0.2861   0.4441     H
C       0.8637   0.8266   0.7741     C
H       0.8643    0.306   0.0468     H
C        0.865   0.2953   0.0949     C
H       0.8701   0.5714   0.7081     H
C       0.8712   0.2642   0.2414     C
H       0.8778   0.2585   0.2921     H
O       0.8795   0.4116   0.3963     O
H       0.8882   0.3027   0.5382     H
O       0.8904   0.1782   0.8214     O
C       0.9065   0.7676   0.6317     C
C       0.9124   0.3033   0.7725     C
C       0.9125   0.2372   0.1173     C
C       0.9142   0.2208   0.1897     C
H       0.9185   0.7471   0.5827     H
C       0.9243   0.8973   0.7563     C
H       0.9272   0.5141   0.3564     H
H       0.9278   0.5543   0.4472     H
C       0.9406   0.5072   0.4086     C
C       0.9412   0.4395   0.7336     C
H       0.9437   0.1812   0.2035     H
C       0.9466   0.8675   0.6826     C
C       0.9477   0.2553   0.8229     C
O       0.9489   0.0201   0.8804     O
C       0.9544     0.18    0.063     C
O       0.9583   0.1046    0.062     O
H       0.9617   0.5715   0.1789     H
O       0.9641   0.7079   0.1295     O
C       0.9716   0.9996   0.8128     C
Co     0.97464  0.82212  0.08516    Co
O       0.9751   0.9352   0.2026     O
C       0.9754   0.3976   0.7821     C
O       0.9768    0.228   0.0128     O
H       0.9799   0.5018   0.7423     H
H       0.9862   0.9124   0.6686     H
H       0.9926    0.483   0.5696     H
