data_I
_chemical_name_common  '/home/zhangsd/repos/MofS-CGCNN/ML/data/SSD/clean_cifs/WUYXUL_clean'
_cell_length_a 15.78500
_cell_length_b 18.27500
_cell_length_c 28.06600
_cell_angle_alpha 104.47800
_cell_angle_beta  92.04800
_cell_angle_gamma 107.86000
_space_group_name_H-M_alt      'P 1'


loop_
_space_group_symop_operation_xyz
  'x, y, z' 

loop_
_atom_site_label
_atom_site_fract_x
_atom_site_fract_y
_atom_site_fract_z
_atom_site_type_symbol
H       0.0019   0.0995   0.3711     H
C       0.0055   0.1137   0.5908     C
C       0.0083   0.9313   0.3001     C
H       0.0207   0.1236   0.7088     H
H       0.0209     0.09   0.5592     H
C       0.0217   0.0648   0.3475     C
O        0.025   0.1925   0.2477     O
Cd     0.02574  0.36105  0.27778    Cd
H       0.0259   0.8503   0.4129     H
C       0.0264   0.0192   0.6663     C
H       0.0321   0.9275   0.3965     H
O       0.0354   0.6025    0.789     O
H       0.0432    0.305   0.4309     H
H       0.0487   0.9551   0.7548     H
C       0.0554   0.8143   0.7593     C
O       0.0637   0.3476   0.3512     O
O       0.0786   0.5747   0.7153     O
O       0.0835   0.7553   0.7527     O
C       0.0838   0.9613   0.2797     C
O       0.0846   0.1562   0.6242     O
C        0.086   0.5765   0.7617     C
H       0.0904   0.2804   0.5026     H
C       0.0959   0.0937   0.3263     C
C       0.1003   0.3014   0.4356     C
C       0.1009   0.9618   0.7743     C
H       0.1026    0.541   0.8457     H
H       0.1042   0.2841    0.835     H
H       0.1075   0.9272   0.2581     H
C       0.1128   0.0478   0.6491     C
C       0.1224   0.8955   0.7804     C
H       0.1264   0.1484   0.3362     H
C        0.127   0.0474   0.2921     C
C       0.1274     0.32   0.3523     C
C       0.1303   0.2893   0.4794     C
H       0.1376   0.0488   0.4762     H
C       0.1414   0.1125   0.6286     C
O        0.144   0.3547  0.22952     O
C       0.1461   0.5296   0.8264     C
H       0.1475    0.083   0.7933     H
O       0.1497   0.4755   0.2764     O
C       0.1502   0.5435   0.7802     C
H        0.155   0.3348   0.8009     H
C       0.1558   0.3078   0.3998     C
C       0.1599   0.0386   0.7982     C
C       0.1607   0.3036    0.823     C
H       0.1627   0.9667   0.6674     H
O       0.1647   0.1457    0.524     O
O       0.1677   0.3015   0.3162     O
Nd     0.17786  0.23449  0.23224    Nd
H       0.1782   0.2592   0.8056     H
C       0.1795   0.0111   0.6551     C
C       0.1824   0.4368   0.2435     C
C       0.1887   0.0955   0.4906     C
C       0.2006   0.9066   0.8085     C
H       0.2018   0.4887   0.8746     H
C       0.2061   0.4989   0.8438     C
C       0.2078   0.0751   0.2701     C
H       0.2121     0.12   0.4652     H
C       0.2133   0.2901   0.4894     C
C       0.2161   0.5263   0.7511     C
H       0.2161   0.8624   0.8109     H
H       0.2189   0.5341   0.7197     H
C       0.2234   0.2153   0.5543     C
O       0.2264   0.3517   0.8635     O
C       0.2281   0.1409   0.6176     C
H        0.234   0.0803   0.5055     H
C       0.2343   0.2964   0.4069     C
O       0.2354   0.1568   0.2741     O
C       0.2366   0.0498   0.8291     C
H       0.2367    0.253   0.7084     H
C       0.2463   0.2855   0.5395     C
O        0.254   0.0371   0.2482     O
C       0.2572    0.983   0.8333     C
H       0.2573   0.3643   0.1726     H
C        0.259   0.2157   0.6015     C
C       0.2602    0.467   0.2187     C
H       0.2608   0.2621   0.1041     H
C       0.2647   0.0357   0.6443     C
C       0.2647   0.2887   0.4525     C
H       0.2696   0.2936   0.3812     H
H       0.2729   0.2822   0.0258     H
C        0.274   0.4824   0.8162     C
C       0.2754   0.4978   0.7705     C
H       0.2765   0.3454   0.7155     H
O         0.28   0.2111   0.1753     O
H       0.2811   0.9933   0.7236     H
H       0.2829   0.5835   0.2563     H
C       0.2852   0.1294   0.8633     C
H       0.2869   0.0884   0.9233     H
C        0.289   0.1014   0.6245     C
C       0.2906   0.4183    0.184     C
C       0.2909    0.298   0.7153     C
C       0.2922   0.2361   0.0823     C
O       0.2969   0.1973    0.799     O
C       0.2985   0.2475   0.0349     C
C       0.3009   0.1351   0.9132     C
C       0.3049   0.3557   0.5719     C
H       0.3049   0.3897   0.9576     H
C       0.3051   0.5496   0.2335     C
H       0.3091   0.9893   0.8529     H
C         0.31   0.2003   0.8494     C
C       0.3138   0.3822   0.8534     C
C       0.3145   0.2863   0.6327     C
H         0.32   0.4879   0.7516     H
H       0.3205   0.2826   0.4571     H
H       0.3211   0.3043   0.7471     H
H       0.3214   0.4023   0.5617     H
C       0.3241   0.9814   0.7041     C
O       0.3243   0.3297  0.26597     O
C       0.3264   0.1746   0.1466     C
C       0.3279    0.997   0.6578     C
H       0.3292   0.5015   0.6372     H
C       0.3318    0.187   0.0969     C
C       0.3365   0.2073   0.9483     C
C       0.3385   0.4468   0.8331     C
C       0.3401   0.3584   0.6203     C
C       0.3432    0.207   0.0011     C
C       0.3473    0.273   0.8822     C
O       0.3473   0.2848   0.6784     O
H       0.3531   0.1726   0.7376     H
H       0.3583   0.4279   0.0108     H
C        0.361   0.2786   0.9336     C
C       0.3634   0.4099   0.9762     C
O       0.3647   0.1324   0.1601     O
C        0.367   0.1779   0.7722     C
Cd     0.36935  0.14893   0.2411    Cd
C        0.371   0.4473   0.1648     C
H       0.3713   0.1284   0.7762     H
H       0.3733   0.6499   0.0902     H
H       0.3751   0.5695   0.0999     H
O       0.3766   0.1295   0.6133     O
C       0.3772    0.347   0.8644     C
C       0.3797   0.1496   0.0637     C
H       0.3809   0.9403   0.7532     H
C       0.3821   0.5797   0.2138     C
C        0.383   0.5043   0.6535     C
C       0.3834   0.9482   0.7217     C
C       0.3839   0.1584    0.017     C
C       0.3886   0.9753   0.6287     C
H       0.3898   0.9826   0.5971     H
H       0.3929    0.413   0.1422     H
H       0.4004   0.4538   0.9654     H
C       0.4005   0.4336    0.651     C
O       0.4016   0.3502   0.9686     O
H       0.4046   0.4826   0.2828     H
C       0.4062   0.3338   0.2746     C
H       0.4092   0.1181   0.0737     H
C        0.411    0.619   0.0946     C
H       0.4114   0.6346   0.2227     H
H       0.4145   0.1313   0.9953     H
C       0.4173   0.5292   0.1807     C
H        0.423   0.2197   0.7848     H
H       0.4256   0.6246   0.6824     H
C       0.4277    0.473   0.8238     C
O       0.4366   0.1322   0.3152     O
O       0.4388   0.2775   0.2649     O
H       0.4402   0.6082   0.0655     H
C       0.4416   0.5788   0.6791     C
H       0.4451   0.5151   0.8095     H
C       0.4468   0.9268   0.6921     C
C       0.4482    0.943   0.6453     C
C       0.4564   0.1689   0.6443     C
H       0.4573   0.2216   0.6618     H
C       0.4574   0.4854      0.3     C
H       0.4616   0.1396   0.6677     H
C       0.4646   0.3757   0.8549     C
C       0.4715   0.4166   0.2994     C
O       0.4757   0.6621   0.1357     O
C       0.4836   0.4393   0.6753     C
O       0.4854   0.1026   0.2431     O
H       0.4905   0.9314   0.6252     H
C       0.4906   0.4408   0.8345     C
C        0.491   0.1052   0.2892     C
H       0.4943    0.827    0.375     H
H       0.4983   0.3936   0.6748     H
H       0.5017   0.6064   0.3252     H
H       0.5057    0.173    0.625     H
C        0.509   0.8948   0.7108     C
C       0.5094   0.5592   0.1655     C
H       0.5095   0.0686   0.3748     H
O       0.5146   0.8974   0.7569     O
C       0.5164   0.5607   0.3247     C
O       0.5243   0.3379   0.8643     O
C       0.5285   0.5834   0.7006     C
C       0.5354   0.6243   0.1451     C
H       0.5384   0.8604   0.3323     H
C       0.5426   0.5146      0.7     C
H       0.5427   0.7784   0.3382     H
C       0.5436   0.8311   0.3557     C
C       0.5518    0.057   0.3547     C
C       0.5532   0.0732   0.3079     C
H       0.5549   0.4849   0.1905     H
C       0.5584   0.4212   0.3209     C
H       0.5598   0.3918   0.9345     H
O       0.5612   0.7225   0.7351     O
O       0.5634   0.8678   0.6848     O
C       0.5723    0.527   0.1762     C
H       0.5744   0.3754   0.3176     H
H        0.577   0.7803   0.2152     H
C       0.5827   0.4708   0.8193     C
H       0.5855   0.8687   0.0047     H
H       0.5886   0.3654   0.7773     H
C        0.589    0.381   0.9054     C
H       0.5908   0.8819   0.9263     H
C       0.5938   0.6662   0.7254     C
H       0.5954   0.5174   0.7172     H
O       0.5984   0.6498   0.0314     O
C       0.5995   0.5664    0.349     C
H       0.5996   0.5462   0.0346     H
H       0.6071    0.587   0.8578     H
H       0.6102   0.0174   0.4029     H
C       0.6114   0.0247   0.3713     C
C       0.6161   0.8416    0.983     C
C       0.6166   0.0518   0.2783     C
C        0.617   0.4957   0.3465     C
C       0.6179   0.4203   0.7862     C
H       0.6191   0.0597   0.2468     H
C       0.6203   0.8504   0.9363     C
C       0.6228    0.653   0.1356     C
O       0.6234   0.8705   0.3867     O
H       0.6249   0.4305   0.9001     H
H       0.6267   0.3501   0.9098     H
H       0.6287   0.8716   0.2238     H
C        0.629   0.5527   0.8352     C
Cd     0.63065  0.85107   0.7589    Cd
C        0.633   0.8221   0.2278     C
O       0.6353   0.8676   0.8399     O
C       0.6366   0.5901   0.0238     C
C        0.639   0.7214   0.0664     C
H       0.6417   0.5721   0.9892     H
H       0.6469   0.8274   0.2624     H
O       0.6527   0.7152   0.3216     O
C       0.6527    0.727   0.1178     C
C       0.6568    0.793   0.9989     C
C       0.6599   0.6416   0.3797     C
C       0.6615   0.5532   0.1669     C
C       0.6635   0.7927   0.0517     C
C       0.6682    0.813   0.9031     C
H       0.6708   0.4985   0.3628     H
C       0.6721    0.003   0.3422     C
C       0.6736   0.8254   0.8534     C
O       0.6757   0.6703  0.73403     O
C       0.6759   0.0186   0.2959     C
H       0.6786   0.5977   0.4383     H
H       0.6789   0.6957   0.2529     H
H       0.6795   0.7174   0.5429     H
H         0.68   0.5121   0.2484     H
C       0.6855   0.7137   0.3673     C
C       0.6862   0.6178   0.1466     C
C         0.69   0.7997   0.1506     C
H       0.6909   0.0107   0.1471     H
C       0.6949   0.4504   0.7665     C
H       0.6951   0.6103   0.0424     H
C       0.6951   0.6443   0.4281     C
C       0.6991   0.8649   0.0868     C
C       0.7015   0.7525   0.9651     C
O       0.7031   0.8027    0.201     O
C       0.7078   0.7639   0.9177     C
C       0.7091    0.702   0.2847     C
C       0.7094   0.5817    0.816     C
C        0.711   0.8986   0.3755     C
H       0.7131   0.9116   0.0767     H
C       0.7148   0.8706   0.1367     C
H       0.7171   0.4165   0.7437     H
H       0.7189   0.0067   0.2764     H
O         0.72   0.7889   0.8247     O
H       0.7235   0.6546   0.2845     H
C       0.7246   0.5022   0.2295     C
C        0.726   0.5176   0.1838     C
H       0.7271   0.7178   0.9742     H
H       0.7304   0.7064   0.6188     H
C       0.7353   0.7113   0.5475     C
C       0.7353   0.9643   0.3557     C
H       0.7392   0.7379   0.8959     H
C       0.7398    0.533   0.7813     C
C        0.741   0.7843   0.3985     C
H       0.7427   0.6357   0.8274     H
C       0.7428    0.017   0.1667     C
O        0.746   0.9629   0.7518     O
C       0.7537   0.7145   0.4605     C
H       0.7633    0.747   0.2916     H
C       0.7634   0.9502   0.1709     C
O       0.7646   0.8432   0.7259     O
C       0.7657   0.7036   0.5931     C
H        0.766   0.9197   0.4945     H
C       0.7719   0.8591   0.3824     C
O       0.7736   0.6483   0.1365     O
C       0.7766   0.7847   0.4457     C
H       0.7811   0.4659   0.2803     H
H       0.7839   0.1376   0.1891     H
C       0.7839   0.4737   0.2489     C
C       0.7867   0.7099   0.5106     C
H       0.7879     0.88   0.5348     H
C       0.7922   0.9249   0.7299     C
C       0.7939   0.5011   0.1562     C
H       0.7982   0.5113   0.1254     H
C       0.7994   0.0934   0.1915     C
C       0.8113   0.9045   0.5094     C
C       0.8176   0.5632   0.7565     C
C       0.8205   0.9889   0.3449     C
H       0.8218   0.7408   0.1944     H
Nd     0.82214  0.76551  0.76776    Nd
O       0.8323   0.6985   0.6838     O
O       0.8353   0.8543    0.476     O
H       0.8373   0.0333   0.3326     H
C       0.8393   0.6964    0.177     C
C       0.8401   0.9614   0.2018     C
C       0.8442   0.6922   0.6002     C
H        0.845   0.6652   0.1991     H
C       0.8498   0.4565   0.2198     C
O       0.8503   0.5245   0.7236     O
H       0.8525    0.917   0.2067     H
C       0.8539   0.4704   0.1736     C
O        0.856   0.6453  0.77048     O
C       0.8586   0.8875   0.3714     C
H       0.8624   0.9512   0.5238     H
C       0.8697   0.7107   0.5206     C
C       0.8726     0.68   0.6477     C
C        0.873   0.9526   0.7079     C
H       0.8736   0.8516   0.6638     H
C       0.8776   0.1045   0.2196     C
C       0.8872   0.9522   0.3509     C
H       0.8925   0.0728   0.7419     H
H       0.8958   0.7159    0.165     H
H       0.8974    0.459   0.1543     H
C       0.8991   0.0382   0.2257     C
C       0.8997   0.6986   0.5644     C
C       0.9041   0.9063   0.6737     C
H       0.9096   0.7196   0.4974     H
C        0.914   0.4235   0.2383     C
O       0.9154   0.8438   0.3758     O
C       0.9162   0.0387   0.7203     C
O       0.9165   0.2447   0.2473     O
O       0.9214   0.4253   0.2847     O
O       0.9363   0.6524   0.6488     O
C       0.9446   0.1857   0.2407     C
H       0.9513   0.0449   0.2452     H
H       0.9568    0.695   0.5691     H
O       0.9646   0.3975    0.211     O
H       0.9679   0.0725   0.6035     H
C       0.9736   0.9808   0.3337     C
H       0.9741   0.1497   0.5871     H
Cd     0.97426  0.63895  0.72222    Cd
O        0.975   0.8075   0.7523     O
C       0.9783   0.9352   0.6525     C
H       0.9791     0.91   0.4408     H
H       0.9793   0.8764   0.2912     H
C       0.9917   0.0687   0.6999     C
C       0.9945   0.8863   0.4092     C
H       0.9981   0.9005   0.6289     H
