data_I
_chemical_name_common  '/home/zhangsd/repos/MofS-CGCNN/ML/data/SSD/clean_cifs/WUYXOF_clean'
_cell_length_a 15.95700
_cell_length_b 16.46000
_cell_length_c 17.30000
_cell_angle_alpha 106.07000
_cell_angle_beta  100.85000
_cell_angle_gamma 113.40800
_space_group_name_H-M_alt      'P 1'


loop_
_space_group_symop_operation_xyz
  'x, y, z' 

loop_
_atom_site_label
_atom_site_fract_x
_atom_site_fract_y
_atom_site_fract_z
_atom_site_type_symbol
C       0.0095   0.6509   0.7327     C
C       0.0184   0.6319   0.8081     C
H       0.0372   0.3996   0.1798     H
C       0.0834    0.378   0.3238     C
H        0.089   0.7195   0.6732     H
O       0.0897   0.3474   0.3877     O
C       0.0933   0.7004   0.7189     C
C       0.1113   0.6603    0.866     C
H       0.1171   0.6539   0.9183     H
O       0.1622   0.4268   0.3132     O
C       0.1853   0.7237     0.77     C
C       0.1947   0.6985   0.8419     C
H       0.2075   0.8385   0.9622     H
H       0.2132   0.8785   0.0575     H
O       0.2345   0.2962   0.4951     O
H       0.2346   0.1776   0.5655     H
H         0.24   0.7555   0.7569     H
C       0.2479    0.864   0.0207     C
Cd     0.25104  0.40323  0.42661    Cd
O       0.2578   0.2904   0.3057     O
H       0.2681   0.6928   0.5549     H
O       0.2726   0.7973   0.0356     O
H       0.2874   0.1958   0.1826     H
H       0.2886   0.0974   0.6293     H
C       0.2935   0.7322   0.9011     C
H       0.2971   0.8514   0.6249     H
O       0.2981   0.5469   0.5153     O
C       0.3011   0.2025   0.5901     C
H       0.3056   0.9216   0.0321     H
H       0.3178   0.6672   0.1406     H
H       0.3235   0.6184   0.0515     H
C       0.3272   0.3308   0.5366     C
H       0.3282   0.6793   0.7983     H
C       0.3287   0.7738   0.9868     C
C         0.33   0.7401   0.5917     C
C       0.3326   0.1558   0.6305     C
H       0.3371   0.5787   0.1228     H
C       0.3409   0.3546    0.314     C
C       0.3464   0.8353   0.6365     C
C       0.3485   0.2422   0.1893     C
C        0.349   0.6356   0.1118     C
C       0.3529   0.7093   0.8576     C
H       0.3532   0.2691   0.9888     H
C        0.363   0.2863    0.583     C
H       0.3692   0.1615   0.0892     H
H       0.3711   0.2627   0.9017     H
O       0.3819   0.4101   0.5317     O
O       0.3829   0.4435   0.3758     O
H       0.3875   0.8995   0.8407     H
C       0.3886   0.6197   0.5532     C
C       0.3936   0.3374   0.2564     C
H        0.397   0.5724   0.7719     H
C       0.3985    0.221   0.1344     C
C        0.399   0.2711   0.9595     C
C       0.4034   0.7184   0.6022     C
H       0.4043   0.0209   0.6356     H
H       0.4101   0.9883   0.9208     H
C       0.4234   0.8001   0.0368     C
O       0.4239    0.192   0.9589     O
H       0.4305    0.081    0.248     H
C       0.4333   0.1955    0.675     C
C       0.4353   0.9481   0.8944     C
C       0.4387   0.0537   0.6939     C
H       0.4392   0.6868   0.2933     H
C       0.4393   0.9055   0.6993     C
C       0.4481     0.73   0.9005     C
H       0.4509   0.9182   0.9312     H
O       0.4543   0.7011   0.1435     O
H       0.4563   0.2247   0.3281     H
H       0.4568   0.3322   0.9882     H
C       0.4586   0.0045   0.7396     C
O       0.4603   0.6081   0.5437     O
C       0.4607   0.6175   0.7835     C
C       0.4628   0.8492   0.1307     C
C       0.4632   0.3285   0.6257     C
C       0.4673   0.1496   0.7305     C
O       0.4749    0.992   0.1204     O
C       0.4811   0.7771   0.9915     C
C       0.4815    0.803   0.1859     C
C       0.4824   0.4011   0.2658     C
H       0.4909   0.5375   0.6922     H
C        0.491   0.1237   0.2897     C
C       0.4912   0.9459   0.1707     C
C       0.4928   0.2902   0.1481     C
C       0.4928   0.7897   0.6635     C
H       0.4932   0.6159   0.3776     H
C       0.4955   0.2832   0.6742     C
Mn         0.5      0.5      0.5    Mn
C       0.5045   0.7168   0.3258     C
H       0.5068   0.3841   0.6224     H
C       0.5072   0.2103   0.3365     C
C       0.5072   0.7098   0.8519     C
C       0.5088   0.0541   0.8293     C
C        0.509   0.8763   0.7103     C
H       0.5091   0.4625   0.3078     H
C       0.5176   0.5989   0.7342     C
C       0.5185    0.197   0.8141     C
C       0.5189   0.2229   0.0085     C
O       0.5251    0.008   0.8796     O
C       0.5327   0.8504   0.2695     C
C       0.5368   0.6715   0.3743     C
C       0.5372   0.1508   0.8693     C
C       0.5393   0.3825   0.2165     C
O       0.5397   0.3919   0.4563     O
C       0.5414   0.9955   0.2604     C
H       0.5432   0.6678   0.0118     H
H       0.5437   0.7753   0.6719     H
O       0.5457   0.2989   0.8565     O
H       0.5491   0.0818   0.0688     H
C       0.5519     0.27   0.0995     C
C       0.5607   0.0945   0.3007     C
H       0.5608   0.3132   0.7067     H
C       0.5613   0.9463   0.3061     C
C       0.5647   0.0519   0.1056     C
C       0.5667   0.8045    0.325     C
H       0.5695    0.919    0.752     H
O       0.5761    0.808   0.0411     O
C       0.5766   0.1999   0.9632     C
H       0.5899   0.0117   0.0792     H
H       0.5957   0.9791   0.3644     H
C       0.5966   0.2816   0.3978     C
C        0.601   0.7289   0.0405     C
C       0.6015    0.779   0.8656     C
H        0.603   0.4276   0.2281     H
C       0.6064   0.6626   0.7436     C
C       0.6114   0.3803   0.4468     C
H       0.6125   0.1005   0.1593     H
O       0.6171   0.5565   0.6242     O
O       0.6181   0.5899   0.4683     O
H       0.6289   0.7373   0.0983     H
H       0.6308   0.8385   0.9108     H
C        0.637   0.7137    0.417     C
H       0.6468   0.7309   0.0112     H
C       0.6471   0.2907   0.1424     C
C        0.651   0.3644   0.8882     C
C       0.6515   0.7578   0.8107     C
C       0.6536   0.1647   0.3635     C
C       0.6591   0.6454    0.686     C
H       0.6629   0.4213   0.8772     H
C       0.6674   0.8442   0.3695     C
C         0.67   0.2599   0.4083     C
C       0.6713   0.2262   0.0132     C
H       0.6718   0.3207   0.2017     H
C       0.6728   0.6692   0.4634     C
H       0.6765   0.3816   0.9485     H
H       0.6822   0.3328   0.8594     H
H       0.6944   0.0784   0.9679     H
C       0.6989   0.7975   0.4099     C
O       0.7019   0.4531   0.4847     O
H       0.7029   0.1486   0.3751     H
C       0.7065   0.2678   0.0989     C
H       0.7114   0.9026   0.3707     H
H       0.7126   0.8042   0.8174     H
O       0.7274   0.2027   0.9644     O
H       0.7319   0.3072   0.4451     H
O       0.7422   0.7096   0.6943     O
Mn     0.74896  0.59677  0.57339    Mn
C       0.7521    0.136   0.9793     C
H         0.76   0.2445   0.2431     H
H       0.7654   0.8224   0.4345     H
O       0.7655   0.7038   0.5049     O
H       0.7868   0.1215   0.9425     H
H       0.7925   0.1615   0.0378     H
C       0.8053   0.3015   0.1581     C
C       0.8147   0.2763     0.23     C
O       0.8378   0.5732   0.6868     O
H       0.8829   0.3461   0.0817     H
C       0.8887   0.3397    0.134     C
C       0.9067   0.2996   0.2811     C
O       0.9103   0.6526   0.6123     O
H        0.911   0.2805   0.3268     H
C       0.9166    0.622   0.6762     C
H       0.9628   0.6004   0.8202     H
C       0.9816   0.3681   0.1919     C
C       0.9905   0.3491   0.2673     C
