data_I
_chemical_name_common  '/home/zhangsd/repos/MofS-CGCNN/ML/data/SSD/clean_cifs/XADDAJ_clean'
_cell_length_a 12.68040
_cell_length_b 13.84400
_cell_length_c 27.86500
_cell_angle_alpha 104.24600
_cell_angle_beta  97.31700
_cell_angle_gamma 94.45600
_space_group_name_H-M_alt      'P 1'


loop_
_space_group_symop_operation_xyz
  'x, y, z' 

loop_
_atom_site_label
_atom_site_fract_x
_atom_site_fract_y
_atom_site_fract_z
_atom_site_type_symbol
C       0.0016   0.5979  0.24878     C
H       0.0036   0.3204   0.6808     H
C       0.0091    0.799  0.72683     C
C       0.0151     0.71   0.7408     C
C       0.0204   0.4931  0.16422     C
O       0.0212   0.9507  0.57742     O
H       0.0269   0.8938   0.6548     H
H       0.0336   0.3456   0.2756     H
Tb       0.036  0.56599  0.93992    Tb
C       0.0365   0.6364  0.29986     C
H       0.0374     0.18   0.7223     H
C       0.0392   0.1448  0.35201     C
O       0.0507   0.4653  0.85658     O
O       0.0553   0.9057  0.47177     O
C       0.0583   0.5331  0.21935     C
O       0.0597   0.4194  0.13914     O
H       0.0612   0.2142   0.8087     H
H       0.0613   0.3835   0.7657     H
C       0.0687   0.1977  0.31812     C
C       0.0703   0.0995  0.43481     C
H        0.075   0.9438   0.7449     H
C       0.0802   0.8829    0.753     C
H        0.085   0.7734   0.3892     H
O       0.0899   0.1536  0.63638     O
C       0.0937   0.7034   0.7792     C
H       0.0964   0.6434   0.7884     H
O        0.099   0.4355  0.96663     O
C       0.1018   0.1698  0.73935     C
O       0.1034   0.3494  0.02441     O
C       0.1081   0.1492  0.39592     C
O       0.1108   0.5558  0.07781     O
C       0.1161   0.1908  0.79135     C
Tb     0.12156  0.07335  0.55197    Tb
O       0.1251   0.6466  0.02227     O
C       0.1259   0.3638  0.98332     C
C       0.1309   0.6107  0.32218     C
O        0.133   0.1089  0.47403     O
C        0.136   0.7415  0.40468     C
H       0.1382   0.3139   0.8861     H
C       0.1432   0.8756  0.48526     C
C       0.1514   0.6285  0.06362     C
C        0.152   0.5053  0.24132     C
C       0.1587   0.8759  0.79105     C
C       0.1652   0.1155  0.65697     C
C       0.1675   0.7847  0.80373     C
C       0.1694   0.2532  0.32857     C
C       0.1709   0.6541  0.37672     C
C       0.1769   0.7811  0.45547     C
C       0.1775   0.2731  0.90163     C
C       0.1806   0.1343  0.71273     C
C       0.1867   0.2877  0.95339     C
C       0.1877    0.546  0.29242     C
H       0.1901   0.2894   0.3066     H
H       0.1905     0.46   0.2222     H
H       0.2058   0.9321   0.8083     H
O       0.2068   0.9254  0.52368     O
C       0.2076   0.2035   0.4053     C
C       0.2123   0.1769  0.81755     C
O       0.2249   0.0617  0.63196     O
C       0.2273   0.1969  0.87297     C
C        0.236   0.7012  0.10119     C
C       0.2393   0.2549  0.37182     C
H       0.2397   0.6288   0.1566     H
C       0.2461   0.6065  0.40151     C
C       0.2482   0.2296  0.97698     C
C       0.2508   0.7322  0.47921     C
H       0.2515   0.5289   0.3067     H
H       0.2538   0.2057   0.4344     H
H        0.254   0.2397   0.0115     H
C       0.2592   0.7735  0.84151     C
H       0.2627   0.7947   0.0575     H
O        0.263   0.6909  0.85225     O
H       0.2709   0.5489   0.3837     H
C        0.271   0.6842  0.14825     C
C       0.2779   0.1204   0.7386     C
H        0.278   0.7583    0.513     H
C       0.2837   0.7841  0.08884     C
C       0.2841   0.6444  0.45236     C
C       0.2897   0.1383  0.89732     C
C       0.2928   0.1419  0.79036     C
C       0.3012   0.1563  0.94939     C
H       0.3232   0.0876   0.8788     H
O       0.3299   0.8488  0.85854     O
H       0.3324   0.0968    0.721     H
C       0.3473    0.316  0.38274     C
C       0.3517    0.749   0.1824     C
H       0.3577   0.1328   0.8074     H
C       0.3577   0.5874  0.47856     C
C       0.3621   0.8511  0.12272     C
C       0.3681   0.0966  0.97673     C
O        0.371   0.3709  0.35482     O
O       0.3747   0.6144  0.52581     O
H       0.3832   0.5758   0.2025     H
O       0.3853    0.953  0.06671     O
O       0.3857   0.1283  0.02373     O
C        0.395   0.8329  0.16932     C
C       0.3952   0.7266  0.23048     C
O       0.3966   0.5163  0.45258     O
O       0.4026   0.0201  0.95176     O
C       0.4048   0.6271   0.2315     C
O       0.4118   0.3133   0.4207     O
C       0.4139   0.9386  0.10923     C
H       0.4238   0.8696   0.2741     H
C        0.429    0.803   0.2742     C
C       0.4462   0.6044   0.2751     C
H       0.4471   0.8781   0.1922     H
O       0.4473     0.28  0.59431     O
H       0.4523   0.5378    0.275     H
Tb     0.46399   0.5478  0.58547    Tb
C       0.4705   0.7792   0.3182     C
C        0.479   0.6795  0.31938     C
C       0.4802   0.3481  0.63349     C
O       0.4831   0.4412   0.6362     O
O       0.4854   0.9988  0.14091     O
Tb     0.48915  0.89152  0.91347    Tb
H       0.4929   0.8304   0.3472     H
H       0.5071   0.1696   0.6528     H
Tb     0.51085  0.10848  0.08653    Tb
O       0.5146   0.0012  0.85909     O
O       0.5169   0.5588   0.3638     O
C       0.5198   0.6519  0.36651     C
C        0.521   0.3205  0.68062     C
C       0.5295   0.2208   0.6818     C
Tb     0.53601   0.4522  0.41453    Tb
H       0.5477   0.4622    0.725     H
O       0.5527     0.72  0.40569     O
H       0.5529   0.1219   0.8078     H
C       0.5538   0.3956   0.7249     C
C        0.571    0.197   0.7258     C
H       0.5762   0.1304   0.7259     H
C       0.5861   0.0614  0.89077     C
O       0.5882   0.6867   0.5793     O
C       0.5952   0.3729   0.7685     C
O       0.5974   0.9799  0.04824     O
O       0.6034   0.4837  0.54742     O
C       0.6048   0.2734  0.76952     C
C        0.605   0.1671  0.83068     C
O       0.6143   0.8717  0.97627     O
O       0.6147    0.047  0.93329     O
H       0.6168   0.4242   0.7975     H
O       0.6253   0.3856  0.47419     O
O        0.629   0.6291  0.64518     O
C       0.6319   0.9034  0.02327     C
C       0.6379   0.1489  0.87728     C
C       0.6423   0.4126  0.52144     C
H       0.6423   0.8672   0.1926     H
C       0.6483    0.251   0.8176     C
C       0.6527    0.684  0.61726     C
H       0.6676   0.9032    0.279     H
O       0.6701   0.1512  0.14146     O
H       0.6768   0.9124   0.1212     H
C       0.6988   0.8437  0.05061     C
C       0.7072   0.8581  0.20964     C
C       0.7103   0.8617  0.10268     C
C       0.7159   0.3556  0.54764     C
C       0.7163   0.2159  0.91116     C
H        0.722   0.2417    0.487     H
C       0.7221   0.8796   0.2614     C
C        0.729   0.3158  0.85175     C
H       0.7291   0.4511   0.6163     H
O        0.737   0.3091  0.14775     O
H       0.7373   0.2053   0.9425     H
C       0.7408   0.2265  0.15849     C
H        0.746   0.7603   0.9885     H
H       0.7462   0.7943   0.5656     H
H       0.7485   0.4711   0.6933     H
C       0.7492   0.2678  0.52079     C
C       0.7518   0.7704  0.02302     C
C       0.7539   0.3935  0.59849     C
H       0.7603   0.3712   0.8434     H
C       0.7607   0.7451  0.62818     C
C        0.764   0.2988  0.89881     C
C       0.7727   0.8031  0.12703     C
O       0.7751   0.9383  0.36804     O
C       0.7877   0.8231  0.18245     C
C       0.7924   0.7965   0.5947     C
O       0.7932   0.0746  0.47632     O
H       0.7942   0.0679   0.1917     H
H       0.8095     0.54   0.7778     H
H       0.8099   0.7106   0.6934     H
C       0.8123    0.454  0.70758     C
C       0.8133   0.7123  0.04661     C
C       0.8194   0.8657  0.28727     C
C       0.8225   0.7269  0.09837     C
C       0.8231   0.2189  0.54453     C
C       0.8291   0.3459  0.62328     C
C       0.8306   0.7468  0.67143     C
C       0.8325   0.2153  0.19627     C
C       0.8348   0.8845  0.34303     C
C       0.8413   0.1241  0.20895     C
C        0.848   0.4947  0.75868     C
C       0.8486   0.3715  0.93638     C
C       0.8568   0.1244  0.51474     C
H       0.8618   0.6861   0.1139     H
C        0.864   0.2585  0.59532     C
O        0.867   0.8911  0.52597     O
C       0.8691   0.3893  0.67782     C
C       0.8741   0.6362  0.01668     C
O       0.8749   0.3534  0.97773     O
Tb     0.87844  0.92665  0.44803    Tb
C       0.8839   0.8092  0.20865     C
O       0.8892   0.4442  0.92219     O
C       0.8919   0.8508  0.60408     C
O       0.8966   0.6506  0.97559     O
C       0.8982   0.8302  0.26065     C
O        0.901   0.5645  0.03337     O
H       0.9036   0.3566   0.2116     H
C       0.9063   0.2966   0.2208     C
O       0.9101   0.8464  0.36362     O
H        0.915   0.2266   0.6108     H
C       0.9198   0.1171    0.247     C
H        0.925   0.0562   0.2551     H
C       0.9297   0.9005  0.56519     C
C       0.9313   0.8023  0.68188     C
H       0.9387   0.6165   0.2343     H
H       0.9388   0.7858   0.1913     H
O       0.9403   0.5806  0.86086     O
C       0.9417   0.4669  0.78065     C
O       0.9447   0.0943  0.52823     O
O       0.9493   0.5347  0.14342     O
C       0.9608   0.8552  0.64799     C
H       0.9626     0.82   0.2777     H
C       0.9635   0.3636  0.70014     C
Tb       0.964  0.43401  0.06008    Tb
H       0.9664   0.6544   0.7244     H
H       0.9731   0.1062   0.3452     H
O       0.9788   0.0493  0.42258     O
C       0.9796   0.5069  0.83578     C
C       0.9849     0.29   0.2592     C
C       0.9909    0.201  0.27317     C
H       0.9964   0.6796   0.3192     H
C       0.9984   0.4021  0.75122     C
