data_I
_chemical_name_common  '/home/zhangsd/repos/MofS-CGCNN/ML/data/SSD/clean_cifs/XALBIW_clean'
_cell_length_a 17.56420
_cell_length_b 30.05410
_cell_length_c 30.05410
_cell_angle_alpha 85.10180
_cell_angle_beta  73.00970
_cell_angle_gamma 73.00970
_space_group_name_H-M_alt      'P 1'


loop_
_space_group_symop_operation_xyz
  'x, y, z' 

loop_
_atom_site_label
_atom_site_fract_x
_atom_site_fract_y
_atom_site_fract_z
_atom_site_type_symbol
C      0.00219  0.53941  0.08461     C
H       0.0027   0.8705   0.4583     H
Mn     0.00272  0.14299  0.91465    Mn
H       0.0036   0.2318    0.426     H
N      0.00442  0.58193  0.07221     N
C      0.00613  0.42268  0.80626     C
H       0.0071   0.1109   0.4177     H
O      0.00729  0.33038  0.93744     O
H        0.008   0.6055   0.8629     H
H       0.0084   0.4465   0.6585     H
C      0.00853  0.90209  0.92245     C
C      0.01059  0.43117  0.72665     C
O      0.01165  0.95062  0.31778     O
H       0.0127   0.9047   0.2473     H
H       0.0133   0.1247   0.0779     H
H       0.0135   0.6901   0.5733     H
C      0.01352   0.1165  0.75926     C
C       0.0139  0.61259  0.89281     C
C      0.01419  0.12143  0.80543     C
H       0.0153   0.9036   0.9538     H
H       0.0158   0.6243   0.3211     H
C       0.0193  0.88741  0.60719     C
H       0.0206   0.6439   0.8917     H
H       0.0212   0.0913   0.5023     H
H       0.0214   0.0126   0.7508     H
H       0.0236   0.1055   0.3629     H
C      0.02623  0.90682  0.15816     C
H       0.0263   0.5778   0.1624     H
H       0.0309   0.9538   0.5964     H
O      0.03104  0.02454  0.11666     O
C      0.03162  0.55909  0.31227     C
C      0.03316  0.57078   0.2281     C
N      0.03345  0.89976  0.11404     N
H        0.034   0.2508   0.9874     H
H       0.0357   0.3891   0.0823     H
O      0.03773  0.18222  0.95062     O
C      0.04419  0.10629  0.52133     C
C      0.04723  0.74845  0.55609     C
N      0.04756  0.06821  0.59523     N
H       0.0478   0.4753   0.0541     H
H       0.0489   0.1384   0.6926     H
C      0.05018    0.142  0.72344     C
H       0.0504   0.4018   0.5274     H
C      0.05357  0.15295  0.81451     C
C      0.05452  0.05447  0.08503     C
O      0.05527  0.93744  0.16962     O
O      0.05558  0.61666  0.97546     O
H       0.0562   0.8561   0.6083     H
C      0.05727  0.70229  0.55537     C
O      0.05794  0.46994  0.88224     O
O      0.05859  0.16119  0.85645     O
O      0.05982  0.88224  0.03006     O
C       0.0609  0.59507  0.31893     C
C      0.06397  0.02826  0.66208     C
H        0.064   0.3004   0.0314     H
H       0.0648   0.7467   0.0871     H
N      0.06679  0.38596  0.89976     N
C      0.06695  0.34184  0.90682     C
C      0.06902  0.92245  0.59791     C
C      0.07014  0.49973  0.06099     C
C      0.07307  0.23825  0.00461     C
H       0.0735   0.1532   0.4696     H
H       0.0735   0.6587   0.3707     H
N      0.07663  0.92779  0.08193     N
H       0.0772   0.0247   0.4459     H
C      0.07768  0.99539  0.73825     C
H       0.0785   0.5304   0.3048     H
H       0.0811   0.5462   0.9036     H
H       0.0826   0.2527   0.9047     H
Mn     0.08263  0.91465  0.35701    Mn
C      0.08463  0.07013  0.55121     C
O      0.08496  0.85645  0.33881     O
C       0.0868  0.91539  0.03941     C
N      0.08707  0.41703  0.79801     N
H       0.0877   0.8917   0.8561     H
C      0.08836  0.17245  0.73243     C
C      0.08841  0.40586  0.54252     C
C      0.08938  0.57755  0.90209     C
O      0.08988  0.96994  0.38224     O
C      0.09018  0.17814   0.7773     C
C      0.09031  0.26792  0.03066     C
H        0.091   0.5676   0.2202     H
H       0.0912   0.9221   0.6247     H
H       0.0916   0.4711   0.5169     H
Mn     0.09181  0.62108  0.02962    Mn
C      0.09223  0.16208  0.97174     C
C      0.09329  0.89281  0.88741     C
C       0.0935  0.59167  0.36233     C
C       0.0947  0.62834  0.38186     C
H       0.0954   0.9686   0.8004     H
C      0.09566  0.42372  0.71696     C
N      0.09845  0.03362  0.61754     N
H       0.1002   0.7829   0.3005     H
H       0.1019   0.9459   0.9753     H
C      0.10284  0.13132   0.4892     C
H       0.1037   0.5098   0.0314     H
H       0.1042   0.8004   0.5314     H
H       0.1064   0.5974    0.291     H
H       0.1084   0.3422   0.5738     H
C      0.10899  0.58503  0.94553     C
C      0.11111  0.76792  0.53066     C
C      0.11145  0.19051  0.00299     C
C      0.11226   0.4474  0.53688     C
H       0.1125   0.0023   0.9087     H
H       0.1138   0.1899   0.7077     H
C      0.11444  0.99701  0.69051     C
H       0.1148   0.4087   0.9977     H
N      0.11492  0.79801  0.08297     N
N      0.11577  0.09523  0.93179     N
C      0.11597  0.75359  0.08267     C
H       0.1169   0.1995   0.7829     H
H        0.118   0.9177   0.8891     H
C      0.12097  0.96934  0.76792     C
Mn     0.12143  0.97038  0.12108    Mn
C      0.12183  0.37086  0.57088     C
H       0.1225   0.1484   0.5078     H
C      0.12621  0.96059  0.41539     C
H       0.1268   0.0417   0.8705     H
C      0.12753  0.62215  0.41939     C
H       0.1291   0.8629   0.8945     H
H       0.1293    0.423   0.6858     H
H       0.1298   0.6494   0.4322     H
C      0.13002  0.25926   0.8835     C
C      0.13044  0.41733  0.75359     C
C      0.13086  0.00027  0.43901     C
C      0.13091  0.67164  0.52874     C
C      0.13113  0.93901  0.99973     C
N      0.13184  0.04756  0.06044     N
C      0.13192  0.81451  0.34705     C
N      0.13207  0.11754  0.96638     N
C      0.13226  0.54525  0.37843     C
C      0.13252   0.7773  0.32186     C
O      0.13418  0.62666  0.52958     O
H       0.1351   0.9686   0.0098     H
C      0.13562  0.30543  0.87857     C
H        0.138   0.5779   0.8753     H
H       0.1383   0.5178   0.3628     H
C      0.13955  0.91497  0.55447     C
O      0.14191  0.61727  0.07699     O
H       0.1449   0.9902   0.4686     H
Mn     0.14571  0.41465  0.85701    Mn
N      0.14749  0.88596  0.39976     N
O       0.1477  0.88334  0.52454     O
C      0.14823  0.24845  0.05609     C
H       0.1503   0.1085   0.4695     H
C      0.15048  0.02133  0.89371     C
H       0.1519   0.9129   0.2467     H
C      0.15476  0.05121  0.92987     C
N      0.15567  0.58281  0.43865     N
O      0.15772  0.04226   0.5318     O
N      0.15856  0.91807  0.42779     N
C      0.15961  0.54382  0.41776     C
H       0.1614   0.2682    0.074     H
O      0.16177  0.52678  0.52216     O
C      0.16564  0.45387  0.56025     C
H       0.1685   0.3705   0.9583     H
C      0.16871  0.17164  0.02874     C
C      0.17181  0.39371  0.97867     C
C      0.17331  0.37724  0.59434     C
H       0.1785   0.7077   0.3101     H
C      0.17921  0.73243  0.32755     C
N       0.1794  0.56044  0.95244     N
C      0.18038  0.80543  0.37857     C
N      0.18166   0.0052  0.07284     N
H       0.1818   0.5145   0.4303     H
C      0.18407  0.73825  0.50461     C
C      0.18439  0.84184  0.40682     C
H       0.1849   0.6858    0.077     H
C      0.18507  0.20229  0.05537     C
N      0.18686  0.57284   0.9948     N
H       0.1873   0.1926   0.8616     H
C      0.18738  0.71696  0.07628     C
C      0.18761  0.80626  0.07732     C
H       0.1885   0.4129   0.7467     H
H       0.1887   0.8376   0.0778     H
C      0.19034  0.49703  0.55149     C
H        0.192   0.6136    0.147     H
C      0.19218  0.22344    0.858     C
N      0.19228  0.93956  0.54756     N
H       0.1944    0.353   0.6136     H
C      0.19505  0.69051  0.50299     C
C      0.19616  0.41872  0.59096     C
H       0.1963   0.3468   0.0304     H
C      0.19745  0.97126  0.67164     C
N      0.19789  0.91703  0.29801     N
C      0.19864  0.91733  0.25359     C
O      0.19998   0.0318  0.95774     O
C      0.20432  0.94391  0.74845     C
C      0.20597  0.42987  0.94879     C
C      0.20652  0.31451  0.84705     C
Mn     0.20687  0.00269  0.57636    Mn
Mn     0.20956  0.07636  0.99732    Mn
O      0.20958  0.12666  0.02958     O
N        0.211  0.43179  0.90477     N
C      0.21288  0.59096  0.08128     C
Mn     0.21676  0.57636  0.49732    Mn
O       0.2189  0.92301  0.11727     O
O      0.21978  0.35645  0.83881     O
O      0.21995  0.45062  0.81778     O
H       0.2208   0.0678   0.6494     H
H       0.2231   0.1901   0.0733     H
C      0.22336  0.36868   0.0108     C
O      0.22489  0.83038  0.43744     O
C      0.22638  0.72344    0.358     C
H       0.2267   0.9696   0.8468     H
C      0.22722  0.75926   0.3835     C
H       0.2278   0.7508   0.4874     H
H       0.2283   0.3915   0.0305     H
O      0.23178  0.45774   0.9682     O
C      0.23235  0.59434  0.12276     C
C      0.23416   0.9892  0.86868     C
H       0.2354    0.926   0.7682     H
O      0.23916  0.97042  0.62666     O
N       0.2403   0.5052  0.57284     N
C      0.24044  0.94463  0.70229     C
O      0.24082  0.42301  0.61727     O
Mn     0.24251  0.87892  0.47038    Mn
N      0.24961  0.46638  0.88246     N
C      0.25032  0.08061  0.62215     C
C      0.25431  0.47174  0.83792     C
N       0.2545  0.92716   0.5052     N
C      0.25817  0.55149  0.00297     C
H       0.2585   0.6926   0.3616     H
H       0.2588   0.9695   0.8915     H
H         0.26   0.7527   0.4047     H
N      0.26016  0.54756  0.56044     N
C      0.26081  0.23243  0.82755     C
C      0.26114  0.99703  0.05149     C
C      0.26126   0.7719  0.07078     C
N      0.26152  0.06135  0.58281     N
H       0.2619    0.923   0.1858     H
C      0.26276  0.72665  0.06883     C
C      0.26366  0.92372  0.21696     C
C      0.26493  0.92268  0.30626     C
H       0.2665   0.9222   0.3376     H
H       0.2678   0.1293   0.6587     H
C      0.26832   0.2773  0.82186     C
H       0.2709   0.0078   0.8516     H
C      0.27395  0.66208  0.47174     C
C      0.27411  0.56025  0.04613     C
C      0.27696  0.11814  0.62834     C
H       0.2787   0.3516   0.9922     H
N      0.28401  0.61754  0.46638     N
H       0.2841   0.6247   0.5779     H
H       0.2848   0.4874   0.7492     H
Mn     0.28593  0.49731  0.92364    Mn
Mn     0.28711  0.47038  0.62108    Mn
H       0.2886   0.1494   0.9322     H
O      0.28929  0.02678  0.02216     O
C      0.29416  0.91872  0.09096     C
H       0.2962    0.209   0.5974     H
H       0.2964   0.9267   0.6901     H
C      0.29657  0.08224  0.54382     C
C      0.30196  0.50299  0.80949     C
H       0.3037   0.0697   0.5145     H
H       0.3037   0.2077   0.8101     H
C      0.30598  0.55447  0.58503     C
C      0.30729  0.57088  0.12914     C
O      0.31048   0.5318  0.45774     O
H       0.3112   0.7798   0.0676     H
C      0.31132  0.50461  0.76175     C
O      0.31145  0.97784  0.52678     O
C      0.31263  0.94851  0.49703     C
C      0.31483  0.13767  0.59167     C
O      0.31607  0.52216  0.97322     O
H       0.3164   0.2829   0.8005     H
H       0.3178   0.5738   0.1578     H
C      0.32024  0.95387  0.06025     C
C      0.32249  0.12157  0.54525     C
N      0.32287  0.08281  0.93865     N
O      0.32776  0.52454  0.61666     O
O      0.32943  0.68222  0.45062     O
C      0.33093  0.12215  0.91939     C
C      0.33159  0.93117  0.22665     C
C      0.33204  0.92922   0.2719     C
C      0.33307  0.59791  0.57755     C
H       0.3331   0.6585   0.0535     H
H       0.3353   0.4047   0.7473     H
H       0.3355   0.6083   0.6439     H
O      0.33617  0.88273  0.42301     O
O      0.33624  0.52958  0.87334     O
H       0.3369   0.6789   0.1243     H
O      0.33767  0.43744  0.66962     O
H        0.339    0.853   0.1136     H
C      0.34035  0.52874  0.82836     C
H       0.3414   0.2798   0.5676     H
C      0.34389  0.68773  0.05909     C
H       0.3439   0.1372   0.5178     H
C      0.34403  0.18107  0.59507     C
C      0.35086  0.53688   0.0526     C
C      0.35511  0.87724  0.09434     C
N      0.35721  0.59523  0.43179     N
C      0.35823  0.53066  0.73208     C
H       0.3599   0.1789   0.6243     H
C      0.36416  0.55121  0.42987     C
H       0.3644   0.5314   0.6996     H
C      0.36907  0.54252  0.09414     C
H       0.3697   0.5078   0.3516     H
H       0.3727   0.5964   0.5462     H
H       0.3734   0.0145   0.9303     H
C      0.37351  0.60719  0.61259     C
H       0.3788   0.9324   0.2798     H
C      0.37881  0.04382  0.91776     C
C      0.37983  0.68107  0.09507     C
H       0.3799   0.3616   0.8074     H
H       0.3802   0.4695   0.3915     H
C      0.38049  0.93975  0.45387     C
H       0.3833   0.6952   0.0304     H
C      0.38512  0.90904  0.41872     C
H       0.3865   0.4686   0.5098     H
H       0.3865   0.6371   0.6055     H
H       0.3866   0.9465   0.1585     H
C      0.38736  0.55537  0.79771     C
H       0.3879   0.4303   0.9855     H
C      0.38928   0.3835  0.74074     C
H       0.3911   0.1952   0.5304     H
H       0.3915   0.5169   0.0289     H
C       0.3951  0.12834  0.88186     C
H       0.3959   0.3376   0.5778     H
C      0.39606   0.2719  0.57078     C
C      0.39668  0.55609  0.75155     C
H       0.3971   0.1587   0.8707     H
H       0.3974    0.709   0.0974     H
H       0.3986   0.7533   0.4129     H
H       0.4007   0.6995   0.2829     H
C      0.40298  0.94091  0.18773     C
C      0.40346   0.9474  0.03688     C
N      0.40568  0.43865  0.91719     N
C      0.40796   0.4892  0.36868     C
C      0.40879  0.40682  0.65816     C
C      0.40929  0.18773  0.55909     C
H       0.4132   0.5733   0.8099     H
N      0.41365  0.42779  0.58193     N
H       0.4137   0.9696   0.1952     H
C      0.41562    0.358  0.77656     C
H       0.4204   0.9711   0.0169     H
H       0.4222   0.5274   0.0982     H
C      0.42263  0.41776  0.95618     C
O      0.42377  0.66119  0.35645     O
H       0.4248   0.5823   0.6109     H
C      0.42881  0.30626  0.57732     C
H       0.4296    0.574   0.7318     H
C      0.43013  0.43901  0.49973     C
C      0.43448  0.52133  0.39371     C
C      0.43643  0.87086  0.07088     C
H       0.4373   0.9831   0.4711     H
H        0.438   0.4322   0.8506     H
Mn     0.43964  0.64299  0.41465    Mn
C      0.44034  0.96312   0.4474     C
C      0.44105  0.37857  0.69457     C
C      0.44176  0.22665  0.56883     C
C      0.44406  0.04525  0.87843     C
H       0.4442   0.6293   0.1587     H
H       0.4477   0.8142    0.423     H
C      0.44945  0.90566  0.37724     C
H       0.4506   0.0738   0.6578     H
H       0.4522   0.0274   0.5982     H
C      0.45223  0.74641  0.41733     C
C       0.4525  0.09167  0.86233     C
H       0.4526   0.8864    0.353     H
N      0.45275  0.39976  0.61404     N
C      0.45308  0.41939  0.87785     C
C      0.45438  0.67814   0.2773     C
H       0.4549   0.1585   0.5535     H
C      0.45583  0.63767  0.09167     C
H       0.4569   0.4696   0.3468     H
C       0.4584  0.41539  0.53941     C
H        0.461   0.5417   0.3705     H
H       0.4612   0.8757   0.1789     H
C      0.46321  0.90586  0.04252     C
O      0.47212  0.61776  0.46994     O
C       0.4749  0.90493  0.18107     C
H       0.4756   0.8422   0.0738     H
H       0.4765   0.5023   0.4087     H
C      0.47656  0.61814  0.12834     C
H       0.4769   0.4459   0.4753     H
C      0.47897  0.65295  0.31451     C
H       0.4796   0.0982   0.9726     H
C      0.48062  0.78304  0.42372     C
H       0.4811   0.0178   0.8628     H
H       0.4886   0.6899   0.2077     H
C      0.48931  0.37843  0.95475     C
C      0.49269  0.07088  0.62914     C
C      0.49324  0.32755  0.76757     C
C      0.49427  0.04252  0.59414     C
H       0.4948   0.9026    0.209     H
N       0.4959  0.70199  0.41703     N
H       0.4989   0.3628   0.9822     H
H       0.5011   0.6372   0.0178     H
N       0.5041  0.29801  0.58297     N
H       0.5052   0.0974    0.791     H
C      0.50573  0.95748  0.40586     C
C      0.50676  0.67245  0.23243     C
C      0.50731  0.92912  0.37086     C
C      0.51069  0.62157  0.04525     C
H       0.5114   0.3101   0.7923     H
H       0.5189   0.9822   0.1372     H
C      0.51938  0.21696  0.57628     C
H       0.5204   0.9018   0.0274     H
C      0.52103  0.34705  0.68549     C
H       0.5231   0.5541   0.5247     H
C      0.52344  0.38186  0.87166     C
H       0.5235   0.4977   0.5913     H
H       0.5244   0.1578   0.9262     H
C       0.5251  0.09507  0.81893     C
O      0.52788  0.38224  0.53006     O
C      0.53679  0.09414  0.95748     C
H       0.5388   0.1243   0.8211     H
H        0.539   0.4583   0.6295     H
C       0.5416  0.58461  0.46059     C
H       0.5431   0.5304   0.6532     H
C      0.54417  0.36233  0.90833     C
H       0.5451   0.8415   0.4465     H
C      0.54562  0.32186   0.7227     C
C      0.54692  0.58061  0.12215     C
N      0.54725  0.60024  0.38596     N
H       0.5474   0.1136    0.647     H
C       0.5475  0.90833  0.13767     C
C      0.54777  0.25359  0.58267     C
H       0.5478   0.9726   0.4018     H
H       0.5494   0.9262   0.3422     H
C      0.55055  0.09434  0.62276     C
H       0.5523   0.1858    0.577     H
H       0.5558   0.3707   0.8413     H
C      0.55594  0.95475  0.12157     C
C      0.55824  0.77335  0.43117     C
C      0.55895  0.62143  0.30543     C
C      0.55966  0.03688   0.5526     C
Mn     0.56036  0.35701  0.58535    Mn
H        0.562   0.5678   0.1494     H
H       0.5627   0.0169   0.5289     H
C      0.56357  0.12914  0.92912     C
C      0.56552  0.47867  0.60629     C
C      0.56987  0.56099  0.50027     C
H       0.5704    0.426   0.2682     H
C      0.57119  0.69374  0.42268     C
H       0.5752   0.4177   0.3891     H
O      0.57623  0.33881  0.64355     O
C      0.57737  0.58224  0.04382     C
H       0.5778   0.4726   0.9018     H
H       0.5796   0.0289   0.9831     H
C      0.58438    0.642  0.22344     C
H       0.5863   0.0304   0.8048     H
N      0.58635  0.57221  0.41807     N
H       0.5868   0.4267   0.1901     H
C      0.59071  0.81227  0.44091     C
C      0.59121  0.59318  0.34184     C
C      0.59204   0.5108  0.63132     C
N      0.59432  0.56135  0.08281     N
C      0.59654   0.0526  0.96312     C
C      0.59702  0.05909  0.81227     C
H       0.5993   0.3005   0.7171     H
H       0.6014   0.2467   0.5871     H
H       0.6026    0.291   0.9026     H
H       0.6029   0.8413   0.1293     H
C      0.60332  0.44391  0.24845     C
C      0.60394   0.7281  0.42922     C
H       0.6041   0.6624   0.4222     H
C       0.6049  0.87166  0.11814     C
H       0.6085   0.4831   0.9711     H
H       0.6089   0.8048   0.4696     H
C      0.61072   0.6165  0.25926     C
H       0.6121   0.5697   0.0145     H
C      0.61264  0.44463  0.20229     C
H       0.6134   0.0535   0.8415     H
H       0.6135   0.3629   0.3945     H
H       0.6135   0.5314   0.4902     H
C      0.61488  0.09096  0.58128     C
H       0.6167   0.3048   0.9696     H
C      0.61951  0.06025  0.54613     C
H       0.6198   0.5305   0.6085     H
H       0.6201   0.6384   0.1926     H
C      0.62017  0.31893  0.90493     C
C      0.62119  0.95618  0.08224     C
H       0.6212   0.0676   0.7202     H
C      0.62649  0.39281  0.38741     C
H       0.6266   0.9855   0.0697     H
H       0.6273   0.4036   0.4538     H
H       0.6303   0.4922   0.6484     H
C      0.63093  0.45748  0.90586     C
H       0.6356   0.4686   0.3004     H
C      0.63584  0.44879  0.57013     C
H       0.6401   0.8211   0.3757     H
C      0.64177  0.46934  0.26792     C
N      0.64279  0.40477  0.56821     N
C      0.64489  0.12276  0.90566     C
C      0.64914  0.46312   0.9474     C
C      0.65597  0.81893  0.40493     C
H       0.6561   0.8628   0.4822     H
C      0.65611  0.31227  0.94091     C
H       0.6586   0.7202   0.4324     H
C      0.65965  0.47126  0.17164     C
H        0.661    0.147   0.8864     H
O      0.66233  0.56256  0.33038     O
H       0.6631   0.3211   0.8757     H
O      0.66376  0.47042  0.12666     O
O      0.66383  0.11727  0.57699     O
H       0.6645   0.3917   0.3561     H
H       0.6647   0.5953   0.2527     H
H       0.6669   0.3415   0.9465     H
C      0.66693  0.40209  0.42245     C
C      0.66796  0.07078   0.7281     C
C      0.66841  0.06883  0.77335     C
C      0.66907  0.87785  0.08061     C
O      0.67057  0.31778  0.54938     O
O      0.67224  0.47546  0.38334     O
N      0.67713  0.91719  0.06135     N
C      0.67751  0.87843  0.45475     C
C      0.67976  0.04613  0.93975     C
H       0.6822   0.4262   0.8422     H
H       0.6836   0.7171   0.1995     H
O      0.68393  0.47784  0.02678     O
C      0.68517  0.86233  0.40833     C
C      0.68737  0.05149  0.50297     C
O      0.68855  0.02216  0.47322     O
C      0.68868  0.49539  0.23825     C
H       0.6888   0.2202   0.9324     H
O      0.68952   0.4682  0.54226     O
C      0.69271  0.42912  0.87086     C
C      0.69402  0.44553  0.41497     C
H       0.6963   0.7923   0.1899     H
H       0.6963   0.9303   0.4855     H
C      0.69804  0.49701  0.19051     C
C      0.70343  0.91776  0.45618     C
H       0.7036   0.0733   0.3099     H
H       0.7038    0.791   0.4026     H
C      0.70584  0.08128  0.90904     C
O      0.71071  0.97322  0.97784     O
H       0.7114   0.8506   0.0678     H
Mn     0.71289  0.52962  0.37892    Mn
Mn     0.71407  0.50269  0.07636    Mn
H       0.7152   0.5126   0.2508     H
H       0.7159   0.3753   0.4221     H
N      0.71599  0.38246  0.53362     N
H       0.7213   0.6484   0.0078     H
C      0.72304  0.88186  0.37166     C
C      0.72589  0.43975  0.95387     C
C      0.72605  0.33792  0.52826     C
H       0.7291   0.9922   0.1484     H
C      0.73168   0.7227  0.17814     C
H       0.7322   0.8707   0.3413     H
H       0.7335   0.0778   0.6624     H
C      0.73507  0.07732  0.69374     C
C      0.73634  0.07628  0.78304     C
C      0.73724  0.27335  0.93117     C
H       0.7381    0.077   0.8142     H
N      0.73848  0.93865  0.41719     N
C      0.73874   0.2281  0.92922     C
C      0.73886  0.00297  0.94851     C
C      0.73919  0.76757  0.17245     C
N      0.73984  0.45244  0.43956     N
H         0.74   0.2473   0.5953     H
H       0.7412   0.0305   0.1085     H
H       0.7415   0.3074   0.6384     H
C      0.74183  0.44851  0.99703     C
N       0.7455  0.07284   0.4948     N
C      0.74569  0.52826  0.16208     C
C      0.74968  0.91939  0.37785     C
N      0.75039  0.53362  0.11754     N
Mn     0.75749  0.12108  0.52962    Mn
O      0.75918  0.57699  0.38273     O
C      0.75956  0.05537  0.29771     C
N       0.7597   0.4948  0.42716     N
O      0.76084  0.02958  0.37334     O
H       0.7646    0.074   0.2318     H
C      0.76584   0.0108  0.13132     C
C      0.76765  0.40566  0.87724     C
O      0.76822  0.54226   0.0318     O
H       0.7717   0.6085   0.9695     H
H       0.7722   0.2492   0.5126     H
C      0.77278  0.24074   0.6165     C
H       0.7733   0.0304   0.1532     H
C      0.77362  0.27656    0.642     C
O      0.77511  0.16962  0.56256     O
C      0.77664  0.63132   0.9892     C
H       0.7769   0.8099   0.9267     H
H       0.7792   0.9322   0.3506     H
O      0.78005  0.54938  0.18222     O
O      0.78022  0.64355  0.16119     O
O       0.7811  0.07699  0.88273     O
Mn     0.78324  0.42364  0.50268    Mn
C      0.78712  0.40904  0.91872     C
N        0.789  0.56821  0.09523     N
O      0.79042  0.87334  0.97042     O
Mn     0.79044  0.92364  0.00268    Mn
Mn     0.79313  0.99731  0.42364    Mn
C      0.79348  0.68549  0.15295     C
C      0.79403  0.57013  0.05121     C
C      0.79568  0.05609  0.25155     C
O      0.80002   0.9682  0.04226     O
C      0.80136  0.08267  0.74641     C
N      0.80211  0.08297  0.70199     N
C      0.80255  0.02874  0.32836     C
H       0.8037   0.6532   0.9696     H
C      0.80384  0.58128  0.40904     C
C      0.80495  0.30949  0.49701     C
H       0.8056    0.647   0.3864     H
N      0.80772  0.06044  0.45244     N
C      0.80782  0.77656    0.142     C
H        0.808   0.3864    0.853     H
C      0.80966  0.50297  0.44851     C
H       0.8113   0.1624   0.9222     H
H       0.8115   0.5871   0.2533     H
C      0.81239  0.19374  0.92268     C
C      0.81262  0.28304  0.92372     C
H       0.8127   0.8074   0.1384     H
N      0.81314  0.42716   0.0052     N
C      0.81493  0.79771  0.94463     C
H       0.8151   0.3142    0.923     H
C      0.81561  0.15816  0.59318     C
C      0.81593  0.26175  0.49539     C
H       0.8182   0.4855   0.5697     H
N      0.81834   0.9948  0.92716     N
C      0.81962  0.19457  0.62143     C
N       0.8206  0.43956  0.04756     N
C      0.82079  0.26757  0.67245     C
H       0.8215   0.2923   0.6899     H
C      0.82669  0.62276  0.40566     C
C      0.82819  0.60629  0.02133     C
C      0.83129  0.82836  0.97126     C
H       0.8315   0.6295   0.0417     H
C      0.83436  0.54613  0.43975     C
O      0.83823  0.47322  0.47784     O
H       0.8386   0.7318    0.926     H
C      0.84039  0.45618  0.58224     C
N      0.84144  0.08193  0.57221     N
O      0.84228  0.95774   0.4682     O
N      0.84433  0.41719  0.56135     N
C      0.84524  0.94879  0.07013     C
H       0.8481   0.0871   0.7533     H
C      0.84952  0.97867  0.10629     C
H       0.8497   0.8915   0.5305     H
C      0.85177  0.75155  0.94391     C
O       0.8523  0.11666  0.47546     O
N      0.85251  0.11404  0.60024     N
Mn     0.85429  0.58535  0.14299    Mn
H       0.8551   0.0098   0.5314     H
O      0.85809  0.38273  0.92301     O
C      0.86045  0.08503  0.44553     C
H       0.8617   0.4822   0.6372     H
H        0.862   0.4221   0.1247     H
C      0.86438  0.69457  0.12143     C
H       0.8649   0.0314   0.9902     H
O      0.86582  0.37334  0.47042     O
C      0.86748   0.2227  0.67814     C
C      0.86774  0.45475  0.62157     C
N      0.86793  0.88246  0.03362     N
C      0.86808  0.18549  0.65295     C
N      0.86816  0.95244  0.93956     N
C      0.86887  0.06099  0.00027     C
C      0.86909  0.32836  0.47126     C
C      0.86914  0.99973  0.56099     C
C      0.86956  0.58267  0.24641     C
C      0.86998  0.74074   0.1165     C
H       0.8702   0.3506   0.5678     H
H       0.8707    0.577   0.3142     H
H       0.8709   0.1371   0.1055     H
C      0.87247  0.37785  0.58061     C
H       0.8732   0.9583   0.1295     H
C      0.87379  0.03941  0.58461     C
H       0.8775   0.8516   0.4922     H
C      0.87817  0.62914  0.42912     C
Mn     0.87857  0.02962  0.87892    Mn
C      0.87903  0.03066  0.23208     C
H        0.882   0.0823   0.1109     H
H       0.8831   0.8005   0.2171     H
C      0.88403  0.24641  0.91733     C
N      0.88423  0.90477  0.06821     N
N      0.88508  0.20199  0.91703     N
H       0.8852   0.5913   0.0023     H
C      0.88556  0.00299  0.30949     C
H       0.8862   0.8101   0.2923     H
H       0.8875   0.9977   0.0913     H
C      0.88774   0.5526  0.46312     C
C      0.88855  0.80949  0.99701     C
C      0.88889  0.23208  0.46934     C
C      0.89101  0.41497  0.05447     C
H       0.8916   0.6578   0.4262     H
H       0.8936   0.4026    0.709     H
H       0.8958   0.1996   0.4686     H
H       0.8963   0.4902   0.9686     H
C      0.89716  0.86868   0.5108     C
H       0.8981   0.0541   0.0247     H
H       0.8998   0.2171   0.6995     H
N      0.90155  0.96638  0.38246     N
C      0.90434  0.57628  0.28304     C
H       0.9046   0.0314   0.1996     H
C       0.9053  0.37166  0.61814     C
C       0.9065  0.40833  0.63767     C
C      0.90671  0.10719  0.11259     C
C      0.90777  0.83792  0.02826     C
Mn     0.90819  0.37892  0.97038    Mn
H       0.9084   0.5289   0.4831     H
H       0.9088   0.0779   0.3753     H
H        0.909   0.4324   0.7798     H
C      0.90969  0.73208  0.96934     C
C      0.90982  0.82186   0.2227     C
O      0.91012  0.03006  0.61776     O
C      0.91062  0.42245  0.09791     C
C      0.91159  0.59414  0.45748     C
C      0.91164  0.82755  0.26757     C
H       0.9123   0.1083   0.1439     H
N      0.91293  0.58297  0.20199     N
C       0.9132  0.08461  0.96059     C
O      0.91504  0.14355  0.66119     O
C      0.91537  0.92987  0.44879     C
Mn     0.91737  0.08535  0.64299    Mn
H       0.9174   0.7473   0.0953     H
H       0.9189   0.4538   0.0964     H
H       0.9215   0.4696   0.6952     H
C      0.92232  0.00461  0.26175     C
H       0.9228   0.9753   0.5541     H
N      0.92337  0.07221  0.91807     N
H       0.9265   0.3413   0.6293     H
H       0.9265   0.8468   0.5304     H
C      0.92693  0.76175  0.99539     C
C      0.92986  0.50027  0.93901     C
C      0.93098  0.07755  0.40209     C
C      0.93305  0.65816  0.09318     C
N      0.93321  0.61404  0.10024     N
H       0.9352   0.2533   0.9129     H
H        0.936   0.6996   0.9686     H
C      0.93603  0.97174  0.33792     C
C       0.9391  0.40493  0.68107     C
O      0.94018  0.11776  0.96994     O
O      0.94141  0.83881  0.14355     O
O      0.94206  0.53006  0.11776     O
C      0.94273  0.29771  0.44463     C
H       0.9438   0.1439   0.3917     H
O      0.94442  0.38334  0.02454     O
O      0.94473  0.06256  0.83038     O
C      0.94548  0.94553  0.91497     C
C      0.94643  0.84705  0.18549     C
H       0.9496   0.5982   0.4726     H
C      0.94982    0.858  0.27656     C
H       0.9511   0.8616   0.3074     H
H       0.9522   0.5247   0.9459     H
N      0.95244  0.93179  0.40477     N
C      0.95277  0.25155  0.44391     C
C      0.95581  0.89371  0.47867     C
O      0.96227  0.81778  0.04938     O
H       0.9643   0.6109   0.9177     H
H        0.966   0.7492   0.0126     H
N      0.96655  0.10024  0.88596     N
C      0.96684  0.42922   0.7719     C
C      0.96838  0.44091  0.68773     C
O      0.96896  0.97546  0.88334     O
H       0.9691   0.0462   0.4036     H
H       0.9737   0.4222   0.8376     H
C      0.97377  0.09318  0.84184     C
H       0.9764   0.8945   0.6371     H
H       0.9786   0.9874   0.2492     H
H       0.9788   0.9087   0.4977     H
H       0.9794   0.3561   0.1083     H
C       0.9807  0.11259  0.39281     C
H       0.9842   0.3757   0.6789     H
H       0.9847   0.0964   0.0462     H
C      0.98581  0.87857  0.19457     C
C       0.9861  0.38741  0.10719     C
C      0.98648   0.8835  0.24074     C
H       0.9865   0.3099   0.4267     H
H       0.9867   0.8753   0.9221     H
H       0.9873   0.0953   0.7527     H
O      0.98835  0.04938  0.68222     O
C      0.98941  0.56883  0.27335     C
C      0.99147  0.09791  0.07755     C
H       0.9916   0.5535   0.3415     H
H        0.992   0.3945   0.1371     H
O      0.99271  0.66962  0.06256     O
H       0.9929   0.8891   0.5823     H
C      0.99387  0.57732  0.19374     C
N      0.99558  0.41807  0.92779     N
H       0.9964   0.7682    0.574     H
Mn     0.99728  0.85701  0.08535    Mn
H       0.9973   0.1295   0.5417     H
C      0.99781  0.46059  0.91539     C
