data_I
_chemical_name_common  '/home/zhangsd/repos/MofS-CGCNN/ML/data/SSD/clean_cifs/XATLIQ_clean'
_cell_length_a 18.64000
_cell_length_b 22.79500
_cell_length_c 13.28100
_cell_angle_alpha 90.00000
_cell_angle_beta  130.48400
_cell_angle_gamma 90.00000
_space_group_name_H-M_alt      'P 1'


loop_
_space_group_symop_operation_xyz
  'x, y, z' 

loop_
_atom_site_label
_atom_site_fract_x
_atom_site_fract_y
_atom_site_fract_z
_atom_site_type_symbol
Si         0.0  0.04843     0.25    Si
Cd         0.0   0.3162     0.75    Cd
Cd         0.0   0.6838     0.25    Cd
Si         0.0  0.95157     0.75    Si
O      0.01069  0.25806  0.62743     O
O      0.01069  0.74194  0.12743     O
C      0.01317  0.09691   0.1495     C
C      0.01317  0.90309   0.6495     C
C       0.0295  0.18594   0.4769     C
C       0.0295  0.81406   0.9769     C
C      0.03359  0.17428   0.0047     C
C      0.03359  0.82572   0.5047     C
C        0.039  0.14808   0.4057     C
C        0.039  0.85192   0.9057     C
C       0.0475   0.2162   0.9317     C
C       0.0475   0.7838   0.4317     C
H       0.0661   0.2198    0.513     H
H       0.0661   0.7802    0.013     H
H       0.0703   0.0576   0.7197     H
H       0.0703   0.9424   0.2197     H
C       0.0747  0.08543   0.1271     C
C       0.0747  0.91457   0.6271     C
H        0.082   0.1571   0.3941     H
H        0.082   0.8429   0.8941     H
C       0.0849  0.12334    0.056     C
C       0.0849  0.87666    0.556     C
O       0.0915   0.3966   0.7728     O
O       0.0915   0.6034   0.2728     O
C      0.10558   0.0002   0.3616     C
C      0.10558   0.9998   0.8616     C
H       0.1102   0.0512    0.161     H
H       0.1102   0.9488    0.661     H
O      0.11406  0.20814  0.93245     O
O      0.11406  0.79186  0.43245     O
C      0.11556  0.04957   0.8097     C
C      0.11556  0.95043   0.3097     C
H       0.1269   0.1142   0.0428     H
H       0.1269   0.8858   0.5428     H
C      0.15931  0.38303   0.8886     C
C      0.15931  0.61697   0.3886     C
O      0.16003  0.33434  0.93607     O
O      0.16003  0.66566  0.43607     O
H       0.1709    0.043   0.5329     H
H       0.1709    0.957   0.0329     H
C      0.17544  0.01014   0.4958     C
C      0.17544  0.98986   0.9958     C
C      0.19192  0.08711   0.8904     C
C      0.19192  0.91289   0.3904     C
H       0.1976   0.1198    0.854     H
H       0.1976   0.8802    0.354     H
H       0.2026   0.4817    0.834     H
H       0.2026   0.5183    0.334     H
C      0.24089  0.42384   0.9762     C
C      0.24089  0.57616   0.4762     C
C      0.24867  0.47332   0.9238     C
C      0.24867  0.52668   0.4238     C
Cd        0.25     0.25      0.0    Cd
Cd        0.25     0.75      0.5    Cd
C      0.25133  0.02668   0.0762     C
C      0.25133  0.97332   0.5762     C
C      0.25911  0.07616   0.0238     C
C      0.25911  0.92384   0.5238     C
H       0.2974   0.0183    0.166     H
H       0.2974   0.9817    0.666     H
H       0.3024   0.3802    0.146     H
H       0.3024   0.6198    0.646     H
C      0.30808  0.41289   0.1096     C
C      0.30808  0.58711   0.6096     C
C      0.32456  0.48986   0.5042     C
C      0.32456  0.51014   0.0042     C
H       0.3291    0.457   0.4671     H
H       0.3291    0.543   0.9671     H
O      0.33997  0.16566  0.06393     O
O      0.33997  0.83434  0.56393     O
C      0.34069  0.11697   0.1114     C
C      0.34069  0.88303   0.6114     C
H       0.3731   0.3858   0.9572     H
H       0.3731   0.6142   0.4572     H
C      0.38444  0.45043   0.1903     C
C      0.38444  0.54957   0.6903     C
O      0.38594  0.29186  0.06755     O
O      0.38594  0.70814  0.56755     O
H       0.3898   0.4488    0.839     H
H       0.3898   0.5512    0.339     H
C      0.39442   0.4998   0.6384     C
C      0.39442   0.5002   0.1384     C
O       0.4085   0.1034   0.2272     O
O       0.4085   0.8966   0.7272     O
C       0.4151  0.37666    0.944     C
C       0.4151  0.62334    0.444     C
H        0.418   0.3429   0.6059     H
H        0.418   0.6571   0.1059     H
C       0.4253  0.41457   0.8729     C
C       0.4253  0.58543   0.3729     C
H       0.4297   0.4424   0.2803     H
H       0.4297   0.5576   0.7803     H
H       0.4339   0.2802    0.487     H
H       0.4339   0.7198    0.987     H
C       0.4525   0.2838   0.0683     C
C       0.4525   0.7162   0.5683     C
C        0.461  0.35192   0.5943     C
C        0.461  0.64808   0.0943     C
C      0.46641  0.32572   0.9953     C
C      0.46641  0.67428   0.4953     C
C       0.4705  0.31406   0.5231     C
C       0.4705  0.68594   0.0231     C
C      0.48683  0.40309   0.8505     C
C      0.48683  0.59691   0.3505     C
O      0.48931  0.24194  0.37257     O
O      0.48931  0.75806  0.87257     O
Cd         0.5   0.1838     0.25    Cd
Si         0.5  0.45157     0.75    Si
Si         0.5  0.54843     0.25    Si
Cd         0.5   0.8162     0.75    Cd
O      0.51069  0.24194  0.12743     O
O      0.51069  0.75806  0.62743     O
C      0.51317  0.40309   0.6495     C
C      0.51317  0.59691   0.1495     C
C       0.5295  0.31406   0.9769     C
C       0.5295  0.68594   0.4769     C
C      0.53359  0.32572   0.5047     C
C      0.53359  0.67428   0.0047     C
C        0.539  0.35192   0.9057     C
C        0.539  0.64808   0.4057     C
C       0.5475   0.2838   0.4317     C
C       0.5475   0.7162   0.9317     C
H       0.5661   0.2802    0.013     H
H       0.5661   0.7198    0.513     H
H       0.5703   0.4424   0.2197     H
H       0.5703   0.5576   0.7197     H
C       0.5747  0.41457   0.6271     C
C       0.5747  0.58543   0.1271     C
H        0.582   0.3429   0.8941     H
H        0.582   0.6571   0.3941     H
C       0.5849  0.37666    0.556     C
C       0.5849  0.62334    0.056     C
O       0.5915   0.1034   0.2728     O
O       0.5915   0.8966   0.7728     O
C      0.60558   0.4998   0.8616     C
C      0.60558   0.5002   0.3616     C
H       0.6102   0.4488    0.661     H
H       0.6102   0.5512    0.161     H
O      0.61406  0.29186  0.43245     O
O      0.61406  0.70814  0.93245     O
C      0.61556  0.45043   0.3097     C
C      0.61556  0.54957   0.8097     C
H       0.6269   0.3858   0.5428     H
H       0.6269   0.6142   0.0428     H
C      0.65931  0.11697   0.3886     C
C      0.65931  0.88303   0.8886     C
O      0.66003  0.16566  0.43607     O
O      0.66003  0.83434  0.93607     O
H       0.6709    0.457   0.0329     H
H       0.6709    0.543   0.5329     H
C      0.67544  0.48986   0.9958     C
C      0.67544  0.51014   0.4958     C
C      0.69192  0.41289   0.3904     C
C      0.69192  0.58711   0.8904     C
H       0.6976   0.3802    0.354     H
H       0.6976   0.6198    0.854     H
H       0.7026   0.0183    0.334     H
H       0.7026   0.9817    0.834     H
C      0.74089  0.07616   0.4762     C
C      0.74089  0.92384   0.9762     C
C      0.74867  0.02668   0.4238     C
C      0.74867  0.97332   0.9238     C
Cd        0.75     0.25      0.5    Cd
Cd        0.75     0.75      0.0    Cd
C      0.75133  0.47332   0.5762     C
C      0.75133  0.52668   0.0762     C
C      0.75911  0.42384   0.5238     C
C      0.75911  0.57616   0.0238     C
H       0.7974   0.4817    0.666     H
H       0.7974   0.5183    0.166     H
H       0.8024   0.1198    0.646     H
H       0.8024   0.8802    0.146     H
C      0.80808  0.08711   0.6096     C
C      0.80808  0.91289   0.1096     C
C      0.82456  0.01014   0.0042     C
C      0.82456  0.98986   0.5042     C
H       0.8291    0.043   0.9671     H
H       0.8291    0.957   0.4671     H
O      0.83997  0.33434  0.56393     O
O      0.83997  0.66566  0.06393     O
C      0.84069  0.38303   0.6114     C
C      0.84069  0.61697   0.1114     C
H       0.8731   0.1142   0.4572     H
H       0.8731   0.8858   0.9572     H
C      0.88444  0.04957   0.6903     C
C      0.88444  0.95043   0.1903     C
O      0.88594  0.20814  0.56755     O
O      0.88594  0.79186  0.06755     O
H       0.8898   0.0512    0.339     H
H       0.8898   0.9488    0.839     H
C      0.89442   0.0002   0.1384     C
C      0.89442   0.9998   0.6384     C
O       0.9085   0.3966   0.7272     O
O       0.9085   0.6034   0.2272     O
C       0.9151  0.12334    0.444     C
C       0.9151  0.87666    0.944     C
H        0.918   0.1571   0.1059     H
H        0.918   0.8429   0.6059     H
C       0.9253  0.08543   0.3729     C
C       0.9253  0.91457   0.8729     C
H       0.9297   0.0576   0.7803     H
H       0.9297   0.9424   0.2803     H
H       0.9339   0.2198    0.987     H
H       0.9339   0.7802    0.487     H
C       0.9525   0.2162   0.5683     C
C       0.9525   0.7838   0.0683     C
C        0.961  0.14808   0.0943     C
C        0.961  0.85192   0.5943     C
C      0.96641  0.17428   0.4953     C
C      0.96641  0.82572   0.9953     C
C       0.9705  0.18594   0.0231     C
C       0.9705  0.81406   0.5231     C
C      0.98683  0.09691   0.3505     C
C      0.98683  0.90309   0.8505     C
O      0.98931  0.25806  0.87257     O
O      0.98931  0.74194  0.37257     O
