data_I
_chemical_name_common  '/home/zhangsd/repos/MofS-CGCNN/ML/data/SSD/clean_cifs/XEDPON_clean'
_cell_length_a  9.57000
_cell_length_b 11.64890
_cell_length_c 11.64890
_cell_angle_alpha 80.28600
_cell_angle_beta  65.74680
_cell_angle_gamma 65.74690
_space_group_name_H-M_alt      'P 1'


loop_
_space_group_symop_operation_xyz
  'x, y, z' 

loop_
_atom_site_label
_atom_site_fract_x
_atom_site_fract_y
_atom_site_fract_z
_atom_site_type_symbol
C       0.0475   0.9944   0.5086     C
N       0.0569   0.8843   0.4777     N
N       0.0588   0.5223   0.8843     N
H       0.0781   0.6637   0.6593     H
H       0.1813   0.1798   0.2308     H
N       0.1863   0.0161   0.4501     N
C       0.2147   0.8335   0.3927     C
Zn     0.22179  0.16745  0.47529    Zn
C        0.233   0.2366   0.2134     C
N       0.2525    0.297   0.1046     N
H       0.2582   0.3407   0.6637     H
H       0.2626   0.6593   0.3363     H
N        0.283   0.2512   0.3016     N
C       0.2944   0.9155   0.3733     C
Zn     0.30292  0.47529  0.83255    Zn
C       0.3081   0.7187   0.3273     C
C       0.3323   0.3733   0.0845     C
C       0.3541   0.2813   0.6727     C
N       0.3636   0.4501   0.9839     N
C       0.3646   0.3273   0.2813     C
C       0.3926   0.3927   0.1665     C
H       0.4011   0.3363   0.3407     H
N       0.4154   0.3016   0.7488     N
N       0.4189   0.1157   0.5223     N
C       0.4409   0.1665   0.6073     C
C       0.4439   0.5086   0.0056     C
N       0.4505   0.8954    0.297     N
N       0.4654   0.4777   0.1157     N
N       0.4658   0.6984   0.2512     N
H        0.482   0.5661   0.9495     H
C       0.5304   0.7866   0.2366     C
C       0.5505   0.0056   0.4914     C
C       0.5536   0.2134   0.7634     C
H       0.5685   0.9495   0.4339     H
C       0.5832   0.0845   0.6267     C
H       0.5879   0.2308   0.8202     H
H       0.5919   0.8202   0.7692     H
Zn     0.61076  0.52471  0.16745    Zn
H       0.6389   0.7692   0.1798     H
N       0.6429   0.1046    0.703     N
N       0.6525   0.9839   0.5499     N
N       0.6541    0.703   0.8954     N
C        0.683   0.7634   0.7866     C
C       0.7901   0.6267   0.9155     C
N       0.7976   0.5499   0.0161     N
N       0.8358   0.7488   0.6984     N
Zn     0.86453  0.83255  0.52471    Zn
C       0.9518   0.6073   0.8335     C
H       0.9519   0.0505   0.5661     H
C       0.9581   0.4914   0.9944     C
C       0.9732   0.6727   0.7187     C
H       0.9976   0.4339   0.0505     H
