data_I
_chemical_name_common  '/home/zhangsd/repos/MofS-CGCNN/ML/data/SSD/clean_cifs/XEDPED_clean'
_cell_length_a 18.12100
_cell_length_b 26.88400
_cell_length_c 26.88400
_cell_angle_alpha 120.00000
_cell_angle_beta  90.00000
_cell_angle_gamma 90.00000
_space_group_name_H-M_alt      'P 1'


loop_
_space_group_symop_operation_xyz
  'x, y, z' 

loop_
_atom_site_label
_atom_site_fract_x
_atom_site_fract_y
_atom_site_fract_z
_atom_site_type_symbol
C          0.0      0.0   0.3874     C
H          0.0      0.0   0.4228     H
C          0.0      0.0   0.6126     C
C          0.0   0.3874     -0.0     C
C          0.0   0.3874   0.3874     C
H          0.0      1.0   0.5772     H
C       0.0064   0.5546   0.1609     C
C       0.0064   0.5546   0.3937     C
C       0.0064   0.6063   0.1609     C
C       0.0064   0.6063   0.4454     C
C       0.0064   0.8391   0.3937     C
C       0.0064   0.8391   0.4454     C
C       0.0194    0.237    0.023     C
C       0.0194    0.237    0.214     C
C       0.0194    0.786    0.023     C
C       0.0194    0.786    0.763     C
C       0.0194    0.977    0.214     C
C       0.0194    0.977    0.763     C
C       0.0208   0.3231   0.0253     C
C       0.0208   0.3231   0.2978     C
C       0.0208   0.7022   0.0253     C
C       0.0208   0.7022   0.6769     C
C       0.0208   0.9747   0.2978     C
C       0.0208   0.9747   0.6769     C
H       0.0232   0.1848   0.5459     H
H       0.0232   0.1848   0.6389     H
H       0.0232   0.3611   0.5459     H
H       0.0232   0.3611   0.8152     H
H       0.0232   0.4541   0.6389     H
H       0.0232   0.4541   0.8152     H
C       0.0278   0.1912   0.4356     C
C       0.0278   0.1912   0.7556     C
C       0.0278   0.2444   0.4356     C
C       0.0278   0.2444   0.8088     C
C       0.0278   0.5644   0.7556     C
C       0.0278   0.5644   0.8088     C
N       0.0287   0.3792   0.0412     N
N       0.0287   0.3792    0.338     N
N       0.0287    0.662   0.0412     N
N       0.0287    0.662   0.6208     N
N       0.0287   0.9588    0.338     N
N       0.0287   0.9588   0.6208     N
C       0.0344   0.2939   0.0519     C
C       0.0344   0.2939    0.242     C
C       0.0344    0.758   0.0519     C
C       0.0344    0.758   0.7061     C
C       0.0344   0.9481    0.242     C
C       0.0344   0.9481   0.7061     C
H       0.0382   0.2134   0.0372     H
H       0.0382   0.2134   0.1762     H
H       0.0382   0.8238   0.0372     H
H       0.0382   0.8238   0.7866     H
H       0.0382   0.9628   0.1762     H
H       0.0382   0.9628   0.7866     H
N       0.0417   0.4413    0.179     N
N       0.0417   0.4413   0.2623     N
N       0.0417   0.7377    0.179     N
N       0.0417   0.7377   0.5587     N
N       0.0417    0.821   0.2623     N
N       0.0417    0.821   0.5587     N
H       0.0539   0.3122   0.0898     H
H       0.0539   0.3122   0.2224     H
H       0.0539   0.7776   0.0898     H
H       0.0539   0.7776   0.6878     H
H       0.0539   0.9102   0.2224     H
H       0.0539   0.9102   0.6878     H
N       0.0541   0.5198   0.1225     N
N       0.0541   0.5198   0.3973     N
N       0.0541   0.6027   0.1225     N
N       0.0541   0.6027   0.4802     N
N       0.0541   0.8775   0.3973     N
N       0.0541   0.8775   0.4802     N
C       0.0811   0.5496   0.0992     C
C       0.0811   0.5496   0.4504     C
C       0.0811   0.9008   0.4504     C
C       0.0814   0.4449  0.22245     C
C       0.0814  0.77755  0.22245     C
C       0.0814  0.77755   0.5551     C
Zn     0.08395  0.44222  0.11057    Zn
Zn     0.08395  0.44222  0.33165    Zn
Zn     0.08395  0.66835  0.11057    Zn
Zn     0.08395  0.66835  0.55778    Zn
Zn     0.08395  0.88943  0.33165    Zn
Zn     0.08395  0.88943  0.55778    Zn
C       0.0929   0.1655    0.433     C
C       0.0929   0.1655   0.7325     C
C       0.0929   0.2675    0.433     C
C       0.0929   0.2675   0.8345     C
C       0.0929    0.567   0.7325     C
C       0.0929    0.567   0.8345     C
H       0.0943   0.1291   0.4307     H
H       0.0943   0.1291   0.6984     H
H       0.0943   0.3016   0.4307     H
H       0.0943   0.3016   0.8709     H
H       0.0943   0.5693   0.6984     H
H       0.0943   0.5693   0.8709     H
H       0.1335   0.4498   0.2249     H
H       0.1335   0.7751   0.2249     H
H       0.1335   0.7751   0.5502     H
N        0.135  0.52715   0.0543     N
N        0.135  0.52715  0.47285     N
N        0.135   0.9457  0.47285     N
O       0.1537   0.4768   0.0387     O
O       0.1537   0.4768   0.4381     O
O       0.1537   0.5619   0.0387     O
O       0.1537   0.5619   0.5232     O
O       0.1537   0.9613   0.4381     O
O       0.1537   0.9613   0.5232     O
C       0.1542   0.1918   0.4338     C
C       0.1542   0.1918    0.758     C
C       0.1542    0.242   0.4338     C
C       0.1542    0.242   0.8082     C
C       0.1542   0.5662    0.758     C
C       0.1542   0.5662   0.8082     C
H       0.1823   0.3329   0.0243     H
H       0.1823   0.3329   0.3086     H
H       0.1823   0.6914   0.0243     H
H       0.1823   0.6914   0.6671     H
H       0.1823   0.9757   0.3086     H
H       0.1823   0.9757   0.6671     H
N       0.1885   0.4118   0.0945     N
N       0.1885   0.4118   0.3173     N
N       0.1885   0.6827   0.0945     N
N       0.1885   0.6827   0.5882     N
N       0.1885   0.9055   0.3173     N
N       0.1885   0.9055   0.5882     N
O       0.1897   0.5181   0.1888     O
O       0.1897   0.5181   0.3293     O
O       0.1897   0.6707   0.1888     O
O       0.1897   0.6707   0.4819     O
O       0.1897   0.8112   0.3293     O
O       0.1897   0.8112   0.4819     O
H          0.2   0.1749   0.4345     H
H          0.2   0.1749   0.7404     H
H          0.2   0.2596   0.4345     H
H          0.2   0.2596   0.8251     H
H          0.2   0.5655   0.7404     H
H          0.2   0.5655   0.8251     H
C       0.2126   0.3632   0.0513     C
C       0.2126   0.3632   0.3119     C
C       0.2126   0.6881   0.0513     C
C       0.2126   0.6881   0.6368     C
C       0.2126   0.9487   0.3119     C
C       0.2126   0.9487   0.6368     C
C         0.25   0.4402   0.1209     C
C         0.25   0.4402   0.3193     C
N         0.25   0.4963   0.1706     N
N         0.25   0.4963   0.3257     N
N         0.25   0.6743   0.1706     N
N         0.25   0.6743   0.5037     N
C         0.25   0.6807   0.1209     C
C         0.25   0.6807   0.5598     C
N         0.25   0.8294   0.3257     N
N         0.25   0.8294   0.5037     N
C         0.25   0.8791   0.3193     C
C         0.25   0.8791   0.5598     C
C       0.2874   0.3632   0.0513     C
C       0.2874   0.3632   0.3119     C
C       0.2874   0.6881   0.0513     C
C       0.2874   0.6881   0.6368     C
C       0.2874   0.9487   0.3119     C
C       0.2874   0.9487   0.6368     C
H          0.3   0.1749   0.4345     H
H          0.3   0.1749   0.7404     H
H          0.3   0.2596   0.4345     H
H          0.3   0.2596   0.8251     H
H          0.3   0.5655   0.7404     H
H          0.3   0.5655   0.8251     H
O       0.3103   0.5181   0.1888     O
O       0.3103   0.5181   0.3293     O
O       0.3103   0.6707   0.1888     O
O       0.3103   0.6707   0.4819     O
O       0.3103   0.8112   0.3293     O
O       0.3103   0.8112   0.4819     O
N       0.3115   0.4118   0.0945     N
N       0.3115   0.4118   0.3173     N
N       0.3115   0.6827   0.0945     N
N       0.3115   0.6827   0.5882     N
N       0.3115   0.9055   0.3173     N
N       0.3115   0.9055   0.5882     N
H       0.3177   0.3329   0.0243     H
H       0.3177   0.3329   0.3086     H
H       0.3177   0.6914   0.0243     H
H       0.3177   0.6914   0.6671     H
H       0.3177   0.9757   0.3086     H
H       0.3177   0.9757   0.6671     H
C       0.3458   0.1918   0.4338     C
C       0.3458   0.1918    0.758     C
C       0.3458    0.242   0.4338     C
C       0.3458    0.242   0.8082     C
C       0.3458   0.5662    0.758     C
C       0.3458   0.5662   0.8082     C
O       0.3463   0.4768   0.0387     O
O       0.3463   0.4768   0.4381     O
O       0.3463   0.5619   0.0387     O
O       0.3463   0.5619   0.5232     O
O       0.3463   0.9613   0.4381     O
O       0.3463   0.9613   0.5232     O
N        0.365  0.52715   0.0543     N
N        0.365  0.52715  0.47285     N
N        0.365   0.9457  0.47285     N
H       0.3665   0.4498   0.2249     H
H       0.3665   0.7751   0.2249     H
H       0.3665   0.7751   0.5502     H
H       0.4057   0.1291   0.4307     H
H       0.4057   0.1291   0.6984     H
H       0.4057   0.3016   0.4307     H
H       0.4057   0.3016   0.8709     H
H       0.4057   0.5693   0.6984     H
H       0.4057   0.5693   0.8709     H
C       0.4071   0.1655    0.433     C
C       0.4071   0.1655   0.7325     C
C       0.4071   0.2675    0.433     C
C       0.4071   0.2675   0.8345     C
C       0.4071    0.567   0.7325     C
C       0.4071    0.567   0.8345     C
Zn     0.41605  0.44222  0.11057    Zn
Zn     0.41605  0.44222  0.33165    Zn
Zn     0.41605  0.66835  0.11057    Zn
Zn     0.41605  0.66835  0.55778    Zn
Zn     0.41605  0.88943  0.33165    Zn
Zn     0.41605  0.88943  0.55778    Zn
C       0.4186   0.4449  0.22245     C
C       0.4186  0.77755  0.22245     C
C       0.4186  0.77755   0.5551     C
C       0.4189   0.5496   0.0992     C
C       0.4189   0.5496   0.4504     C
C       0.4189   0.9008   0.4504     C
N       0.4459   0.5198   0.1225     N
N       0.4459   0.5198   0.3973     N
N       0.4459   0.6027   0.1225     N
N       0.4459   0.6027   0.4802     N
N       0.4459   0.8775   0.3973     N
N       0.4459   0.8775   0.4802     N
H       0.4461   0.3122   0.0898     H
H       0.4461   0.3122   0.2224     H
H       0.4461   0.7776   0.0898     H
H       0.4461   0.7776   0.6878     H
H       0.4461   0.9102   0.2224     H
H       0.4461   0.9102   0.6878     H
N       0.4583   0.4413    0.179     N
N       0.4583   0.4413   0.2623     N
N       0.4583   0.7377    0.179     N
N       0.4583   0.7377   0.5587     N
N       0.4583    0.821   0.2623     N
N       0.4583    0.821   0.5587     N
H       0.4618   0.2134   0.0372     H
H       0.4618   0.2134   0.1762     H
H       0.4618   0.8238   0.0372     H
H       0.4618   0.8238   0.7866     H
H       0.4618   0.9628   0.1762     H
H       0.4618   0.9628   0.7866     H
C       0.4656   0.2939   0.0519     C
C       0.4656   0.2939    0.242     C
C       0.4656    0.758   0.0519     C
C       0.4656    0.758   0.7061     C
C       0.4656   0.9481    0.242     C
C       0.4656   0.9481   0.7061     C
N       0.4713   0.3792   0.0412     N
N       0.4713   0.3792    0.338     N
N       0.4713    0.662   0.0412     N
N       0.4713    0.662   0.6208     N
N       0.4713   0.9588    0.338     N
N       0.4713   0.9588   0.6208     N
C       0.4722   0.1912   0.4356     C
C       0.4722   0.1912   0.7556     C
C       0.4722   0.2444   0.4356     C
C       0.4722   0.2444   0.8088     C
C       0.4722   0.5644   0.7556     C
C       0.4722   0.5644   0.8088     C
H       0.4768   0.1848   0.5459     H
H       0.4768   0.1848   0.6389     H
H       0.4768   0.3611   0.5459     H
H       0.4768   0.3611   0.8152     H
H       0.4768   0.4541   0.6389     H
H       0.4768   0.4541   0.8152     H
C       0.4792   0.3231   0.0253     C
C       0.4792   0.3231   0.2978     C
C       0.4792   0.7022   0.0253     C
C       0.4792   0.7022   0.6769     C
C       0.4792   0.9747   0.2978     C
C       0.4792   0.9747   0.6769     C
C       0.4806    0.237    0.023     C
C       0.4806    0.237    0.214     C
C       0.4806    0.786    0.023     C
C       0.4806    0.786    0.763     C
C       0.4806    0.977    0.214     C
C       0.4806    0.977    0.763     C
C       0.4936   0.5546   0.1609     C
C       0.4936   0.5546   0.3937     C
C       0.4936   0.6063   0.1609     C
C       0.4936   0.6063   0.4454     C
C       0.4936   0.8391   0.3937     C
C       0.4936   0.8391   0.4454     C
C          0.5     -0.0   0.3874     C
H          0.5     -0.0   0.4228     H
C          0.5     -0.0   0.6126     C
C          0.5   0.3874      0.0     C
C          0.5   0.3874   0.3874     C
H          0.5   0.4228     -0.0     H
H          0.5   0.4228   0.4228     H
H          0.5   0.5772      0.0     H
H          0.5   0.5772   0.5772     H
C          0.5   0.6126      0.0     C
C          0.5   0.6126   0.6126     C
H          0.5      1.0   0.5772     H
C       0.5064   0.1609   0.5546     C
C       0.5064   0.1609   0.6063     C
C       0.5064   0.3937   0.5546     C
C       0.5064   0.3937   0.8391     C
C       0.5064   0.4454   0.6063     C
C       0.5064   0.4454   0.8391     C
C       0.5194    0.023    0.237     C
C       0.5194    0.023    0.786     C
C       0.5194    0.214    0.237     C
C       0.5194    0.214    0.977     C
C       0.5194    0.763    0.786     C
C       0.5194    0.763    0.977     C
C       0.5208   0.0253   0.3231     C
C       0.5208   0.0253   0.7022     C
C       0.5208   0.2978   0.3231     C
C       0.5208   0.2978   0.9747     C
C       0.5208   0.6769   0.7022     C
C       0.5208   0.6769   0.9747     C
H       0.5232   0.5459   0.1848     H
H       0.5232   0.5459   0.3611     H
H       0.5232   0.6389   0.1848     H
H       0.5232   0.6389   0.4541     H
H       0.5232   0.8152   0.3611     H
H       0.5232   0.8152   0.4541     H
C       0.5278   0.4356   0.1912     C
C       0.5278   0.4356   0.2444     C
C       0.5278   0.7556   0.1912     C
C       0.5278   0.7556   0.5644     C
C       0.5278   0.8088   0.2444     C
C       0.5278   0.8088   0.5644     C
N       0.5287   0.0412   0.3792     N
N       0.5287   0.0412    0.662     N
N       0.5287    0.338   0.3792     N
N       0.5287    0.338   0.9588     N
N       0.5287   0.6208    0.662     N
N       0.5287   0.6208   0.9588     N
C       0.5344   0.0519   0.2939     C
C       0.5344   0.0519    0.758     C
C       0.5344    0.242   0.2939     C
C       0.5344    0.242   0.9481     C
C       0.5344   0.7061    0.758     C
C       0.5344   0.7061   0.9481     C
H       0.5382   0.0372   0.2134     H
H       0.5382   0.0372   0.8238     H
H       0.5382   0.1762   0.2134     H
H       0.5382   0.1762   0.9628     H
H       0.5382   0.7866   0.8238     H
H       0.5382   0.7866   0.9628     H
N       0.5417    0.179   0.4413     N
N       0.5417    0.179   0.7377     N
N       0.5417   0.2623   0.4413     N
N       0.5417   0.2623    0.821     N
N       0.5417   0.5587   0.7377     N
N       0.5417   0.5587    0.821     N
H       0.5539   0.0898   0.3122     H
H       0.5539   0.0898   0.7776     H
H       0.5539   0.2224   0.3122     H
H       0.5539   0.2224   0.9102     H
H       0.5539   0.6878   0.7776     H
H       0.5539   0.6878   0.9102     H
N       0.5541   0.1225   0.5198     N
N       0.5541   0.1225   0.6027     N
N       0.5541   0.3973   0.5198     N
N       0.5541   0.3973   0.8775     N
N       0.5541   0.4802   0.6027     N
N       0.5541   0.4802   0.8775     N
C       0.5811   0.0992   0.5496     C
C       0.5811   0.4504   0.5496     C
C       0.5811   0.4504   0.9008     C
C       0.5814  0.22245   0.4449     C
C       0.5814  0.22245  0.77755     C
C       0.5814   0.5551  0.77755     C
Zn     0.58395  0.11057  0.44222    Zn
Zn     0.58395  0.11057  0.66835    Zn
Zn     0.58395  0.33165  0.44222    Zn
Zn     0.58395  0.33165  0.88943    Zn
Zn     0.58395  0.55778  0.66835    Zn
Zn     0.58395  0.55778  0.88943    Zn
C       0.5929    0.433   0.1655     C
C       0.5929    0.433   0.2675     C
C       0.5929   0.7325   0.1655     C
C       0.5929   0.7325    0.567     C
C       0.5929   0.8345   0.2675     C
C       0.5929   0.8345    0.567     C
H       0.5943   0.4307   0.1291     H
H       0.5943   0.4307   0.3016     H
H       0.5943   0.6984   0.1291     H
H       0.5943   0.6984   0.5693     H
H       0.5943   0.8709   0.3016     H
H       0.5943   0.8709   0.5693     H
H       0.6335   0.2249   0.4498     H
H       0.6335   0.2249   0.7751     H
H       0.6335   0.5502   0.7751     H
N        0.635   0.0543  0.52715     N
N        0.635  0.47285  0.52715     N
N        0.635  0.47285   0.9457     N
O       0.6537   0.0387   0.4768     O
O       0.6537   0.0387   0.5619     O
O       0.6537   0.4381   0.4768     O
O       0.6537   0.4381   0.9613     O
O       0.6537   0.5232   0.5619     O
O       0.6537   0.5232   0.9613     O
C       0.6542   0.4338   0.1918     C
C       0.6542   0.4338    0.242     C
C       0.6542    0.758   0.1918     C
C       0.6542    0.758   0.5662     C
C       0.6542   0.8082    0.242     C
C       0.6542   0.8082   0.5662     C
H       0.6823   0.0243   0.3329     H
H       0.6823   0.0243   0.6914     H
H       0.6823   0.3086   0.3329     H
H       0.6823   0.3086   0.9757     H
H       0.6823   0.6671   0.6914     H
H       0.6823   0.6671   0.9757     H
N       0.6885   0.0945   0.4118     N
N       0.6885   0.0945   0.6827     N
N       0.6885   0.3173   0.4118     N
N       0.6885   0.3173   0.9055     N
N       0.6885   0.5882   0.6827     N
N       0.6885   0.5882   0.9055     N
O       0.6897   0.1888   0.5181     O
O       0.6897   0.1888   0.6707     O
O       0.6897   0.3293   0.5181     O
O       0.6897   0.3293   0.8112     O
O       0.6897   0.4819   0.6707     O
O       0.6897   0.4819   0.8112     O
H          0.7   0.4345   0.1749     H
H          0.7   0.4345   0.2596     H
H          0.7   0.7404   0.1749     H
H          0.7   0.7404   0.5655     H
H          0.7   0.8251   0.2596     H
H          0.7   0.8251   0.5655     H
C       0.7126   0.0513   0.3632     C
C       0.7126   0.0513   0.6881     C
C       0.7126   0.3119   0.3632     C
C       0.7126   0.3119   0.9487     C
C       0.7126   0.6368   0.6881     C
C       0.7126   0.6368   0.9487     C
C         0.75   0.1209   0.4402     C
C         0.75   0.1209   0.6807     C
N         0.75   0.1706   0.4963     N
N         0.75   0.1706   0.6743     N
C         0.75   0.3193   0.4402     C
C         0.75   0.3193   0.8791     C
N         0.75   0.3257   0.4963     N
N         0.75   0.3257   0.8294     N
N         0.75   0.5037   0.6743     N
N         0.75   0.5037   0.8294     N
C         0.75   0.5598   0.6807     C
C         0.75   0.5598   0.8791     C
C       0.7874   0.0513   0.3632     C
C       0.7874   0.0513   0.6881     C
C       0.7874   0.3119   0.3632     C
C       0.7874   0.3119   0.9487     C
C       0.7874   0.6368   0.6881     C
C       0.7874   0.6368   0.9487     C
H          0.8   0.4345   0.1749     H
H          0.8   0.4345   0.2596     H
H          0.8   0.7404   0.1749     H
H          0.8   0.7404   0.5655     H
H          0.8   0.8251   0.2596     H
H          0.8   0.8251   0.5655     H
O       0.8103   0.1888   0.5181     O
O       0.8103   0.1888   0.6707     O
O       0.8103   0.3293   0.5181     O
O       0.8103   0.3293   0.8112     O
O       0.8103   0.4819   0.6707     O
O       0.8103   0.4819   0.8112     O
N       0.8115   0.0945   0.4118     N
N       0.8115   0.0945   0.6827     N
N       0.8115   0.3173   0.4118     N
N       0.8115   0.3173   0.9055     N
N       0.8115   0.5882   0.6827     N
N       0.8115   0.5882   0.9055     N
H       0.8177   0.0243   0.3329     H
H       0.8177   0.0243   0.6914     H
H       0.8177   0.3086   0.3329     H
H       0.8177   0.3086   0.9757     H
H       0.8177   0.6671   0.6914     H
H       0.8177   0.6671   0.9757     H
C       0.8458   0.4338   0.1918     C
C       0.8458   0.4338    0.242     C
C       0.8458    0.758   0.1918     C
C       0.8458    0.758   0.5662     C
C       0.8458   0.8082    0.242     C
C       0.8458   0.8082   0.5662     C
O       0.8463   0.0387   0.4768     O
O       0.8463   0.0387   0.5619     O
O       0.8463   0.4381   0.4768     O
O       0.8463   0.4381   0.9613     O
O       0.8463   0.5232   0.5619     O
O       0.8463   0.5232   0.9613     O
N        0.865   0.0543  0.52715     N
N        0.865  0.47285  0.52715     N
N        0.865  0.47285   0.9457     N
H       0.8665   0.2249   0.4498     H
H       0.8665   0.2249   0.7751     H
H       0.8665   0.5502   0.7751     H
H       0.9057   0.4307   0.1291     H
H       0.9057   0.4307   0.3016     H
H       0.9057   0.6984   0.1291     H
H       0.9057   0.6984   0.5693     H
H       0.9057   0.8709   0.3016     H
H       0.9057   0.8709   0.5693     H
C       0.9071    0.433   0.1655     C
C       0.9071    0.433   0.2675     C
C       0.9071   0.7325   0.1655     C
C       0.9071   0.7325    0.567     C
C       0.9071   0.8345   0.2675     C
C       0.9071   0.8345    0.567     C
Zn     0.91605  0.11057  0.44222    Zn
Zn     0.91605  0.11057  0.66835    Zn
Zn     0.91605  0.33165  0.44222    Zn
Zn     0.91605  0.33165  0.88943    Zn
Zn     0.91605  0.55778  0.66835    Zn
Zn     0.91605  0.55778  0.88943    Zn
C       0.9186  0.22245   0.4449     C
C       0.9186  0.22245  0.77755     C
C       0.9186   0.5551  0.77755     C
C       0.9189   0.0992   0.5496     C
C       0.9189   0.4504   0.5496     C
C       0.9189   0.4504   0.9008     C
N       0.9459   0.1225   0.5198     N
N       0.9459   0.1225   0.6027     N
N       0.9459   0.3973   0.5198     N
N       0.9459   0.3973   0.8775     N
N       0.9459   0.4802   0.6027     N
N       0.9459   0.4802   0.8775     N
H       0.9461   0.0898   0.3122     H
H       0.9461   0.0898   0.7776     H
H       0.9461   0.2224   0.3122     H
H       0.9461   0.2224   0.9102     H
H       0.9461   0.6878   0.7776     H
H       0.9461   0.6878   0.9102     H
N       0.9583    0.179   0.4413     N
N       0.9583    0.179   0.7377     N
N       0.9583   0.2623   0.4413     N
N       0.9583   0.2623    0.821     N
N       0.9583   0.5587   0.7377     N
N       0.9583   0.5587    0.821     N
H       0.9618   0.0372   0.2134     H
H       0.9618   0.0372   0.8238     H
H       0.9618   0.1762   0.2134     H
H       0.9618   0.1762   0.9628     H
H       0.9618   0.7866   0.8238     H
H       0.9618   0.7866   0.9628     H
C       0.9656   0.0519   0.2939     C
C       0.9656   0.0519    0.758     C
C       0.9656    0.242   0.2939     C
C       0.9656    0.242   0.9481     C
C       0.9656   0.7061    0.758     C
C       0.9656   0.7061   0.9481     C
N       0.9713   0.0412   0.3792     N
N       0.9713   0.0412    0.662     N
N       0.9713    0.338   0.3792     N
N       0.9713    0.338   0.9588     N
N       0.9713   0.6208    0.662     N
N       0.9713   0.6208   0.9588     N
C       0.9722   0.4356   0.1912     C
C       0.9722   0.4356   0.2444     C
C       0.9722   0.7556   0.1912     C
C       0.9722   0.7556   0.5644     C
C       0.9722   0.8088   0.2444     C
C       0.9722   0.8088   0.5644     C
H       0.9768   0.5459   0.1848     H
H       0.9768   0.5459   0.3611     H
H       0.9768   0.6389   0.1848     H
H       0.9768   0.6389   0.4541     H
H       0.9768   0.8152   0.3611     H
H       0.9768   0.8152   0.4541     H
C       0.9792   0.0253   0.3231     C
C       0.9792   0.0253   0.7022     C
C       0.9792   0.2978   0.3231     C
C       0.9792   0.2978   0.9747     C
C       0.9792   0.6769   0.7022     C
C       0.9792   0.6769   0.9747     C
C       0.9806    0.023    0.237     C
C       0.9806    0.023    0.786     C
C       0.9806    0.214    0.237     C
C       0.9806    0.214    0.977     C
C       0.9806    0.763    0.786     C
C       0.9806    0.763    0.977     C
C       0.9936   0.1609   0.5546     C
C       0.9936   0.1609   0.6063     C
C       0.9936   0.3937   0.5546     C
C       0.9936   0.3937   0.8391     C
C       0.9936   0.4454   0.6063     C
C       0.9936   0.4454   0.8391     C
H          1.0   0.4228     -0.0     H
H          1.0   0.4228   0.4228     H
H          1.0   0.5772     -0.0     H
H          1.0   0.5772   0.5772     H
C          1.0   0.6126     -0.0     C
C          1.0   0.6126   0.6126     C
