data_I
_chemical_name_common  '/home/zhangsd/repos/MofS-CGCNN/ML/data/SSD/clean_cifs/XEHSEJ_clean'
_cell_length_a  9.98310
_cell_length_b 11.37620
_cell_length_c 15.03580
_cell_angle_alpha 91.20300
_cell_angle_beta  90.00000
_cell_angle_gamma 90.00000
_space_group_name_H-M_alt      'P 1'


loop_
_space_group_symop_operation_xyz
  'x, y, z' 

loop_
_atom_site_label
_atom_site_fract_x
_atom_site_fract_y
_atom_site_fract_z
_atom_site_type_symbol
Mg         0.0      0.0      0.0    Mg
Mg         0.0      0.5      0.0    Mg
O      0.01961  0.31573   0.9772     O
O      0.02049  0.36897  0.78517     O
O      0.02671   0.5345  0.86755     O
C      0.03762  0.47965  0.79644     C
O      0.03813  0.81165  0.35972     O
H       0.0608   0.5234   0.7455     H
Mg     0.07062  0.75497  0.13552    Mg
C       0.0837  0.25906  0.03637     C
O      0.08976  0.15103  0.04223     O
O      0.09392   0.1538     0.81     O
Mg     0.12626  0.26002  0.69824    Mg
O      0.12833  0.99584   0.8933     O
H       0.1311   0.3044   0.0799     H
H       0.1315   0.0402   0.5738     H
O      0.13998  0.39157  0.60937     O
O      0.14359  0.90095  0.07005     O
C      0.15159  0.82746  0.32851     C
C      0.15545   0.0599  0.83054     C
O       0.1859  0.80741  0.24807     O
O      0.20201  0.51033   0.0217     O
H       0.2148   0.5009   0.5324     H
H       0.2185    0.857    0.368     H
C       0.2221  0.06565   0.5717     C
H       0.2291   0.0371   0.7941     H
C       0.2346  0.43549  0.56837     C
O      0.24609  0.65424  0.12116     O
O      0.25391  0.15424  0.62116     O
C       0.2654  0.93549  0.06837     C
H       0.2709   0.5371   0.2941     H
C       0.2779  0.56565   0.0717     C
H       0.2815    0.357    0.868     H
H       0.2852   0.0009   0.0324     H
O      0.29799  0.01033   0.5217     O
O       0.3141  0.30741  0.74807     O
C      0.34455   0.5599  0.33054     C
C      0.34841  0.32746  0.82851     C
O      0.35641  0.40095  0.57005     O
O      0.36002  0.89157  0.10937     O
H       0.3685   0.5402   0.0738     H
H       0.3689   0.8044   0.5799     H
O      0.37167  0.49584   0.3933     O
Mg     0.37374  0.76002  0.19824    Mg
O      0.40608   0.6538     0.31     O
O      0.41024  0.65103  0.54223     O
C       0.4163  0.75906  0.53637     C
Mg     0.42938  0.25497  0.63552    Mg
H       0.4392   0.0234   0.2455     H
O      0.46187  0.31165  0.85972     O
C      0.46238  0.97965  0.29644     C
O      0.47329   0.0345  0.36755     O
O      0.47951  0.86897  0.28517     O
O      0.48039  0.81573   0.4772     O
Mg         0.5      0.0      0.5    Mg
Mg         0.5      0.5      0.5    Mg
O      0.51961  0.18427   0.5228     O
O      0.52049  0.13103  0.71483     O
O      0.52671   0.9655  0.63245     O
C      0.53762  0.02035  0.70356     C
O      0.53813  0.68835  0.14028     O
H       0.5608   0.9766   0.7545     H
Mg     0.57062  0.74503  0.36448    Mg
C       0.5837  0.24094  0.46363     C
O      0.58976  0.34897  0.45777     O
O      0.59392   0.3462     0.69     O
Mg     0.62626  0.23998  0.80176    Mg
O      0.62833  0.50416   0.6067     O
H       0.6311   0.1956   0.4201     H
H       0.6315   0.4598   0.9262     H
O      0.63998  0.10843  0.89063     O
O      0.64359  0.59905  0.42995     O
C      0.65159  0.67254  0.17149     C
C      0.65545   0.4401  0.66946     C
O       0.6859  0.69259  0.25193     O
O      0.70201  0.98967   0.4783     O
H       0.7148   0.9991   0.9676     H
H       0.7185    0.643    0.132     H
C       0.7221  0.43435   0.9283     C
H       0.7291   0.4629   0.7059     H
C       0.7346  0.06451  0.93163     C
O      0.74609  0.84576  0.37884     O
O      0.75391  0.34576  0.87884     O
C       0.7654  0.56451  0.43163     C
H       0.7709   0.9629   0.2059     H
C       0.7779  0.93435   0.4283     C
H       0.7815    0.143    0.632     H
H       0.7852   0.4991   0.4676     H
O      0.79799  0.48967   0.9783     O
O       0.8141  0.19259  0.75193     O
C      0.84455   0.9401  0.16946     C
C      0.84841  0.17254  0.67149     C
O      0.85641  0.09905  0.92995     O
O      0.86002  0.60843  0.39063     O
H       0.8685   0.9598   0.4262     H
H       0.8689   0.6956   0.9201     H
O      0.87167  0.00416   0.1067     O
Mg     0.87374  0.73998  0.30176    Mg
O      0.90608   0.8462     0.19     O
O      0.91024  0.84897  0.95777     O
C       0.9163  0.74094  0.96363     C
Mg     0.92938  0.24503  0.86448    Mg
H       0.9392   0.4766   0.2545     H
O      0.96187  0.18835  0.64028     O
C      0.96238  0.52035  0.20356     C
O      0.97329   0.4655  0.13245     O
O      0.97951  0.63103  0.21483     O
O      0.98039  0.68427   0.0228     O
