data_I
_chemical_name_common  '/home/zhangsd/repos/MofS-CGCNN/ML/data/SSD/clean_cifs/XEHSOT_clean'
_cell_length_a  9.81790
_cell_length_b 11.28880
_cell_length_c 14.54650
_cell_angle_alpha 91.62200
_cell_angle_beta  90.00000
_cell_angle_gamma 90.00000
_space_group_name_H-M_alt      'P 1'


loop_
_space_group_symop_operation_xyz
  'x, y, z' 

loop_
_atom_site_label
_atom_site_fract_x
_atom_site_fract_y
_atom_site_fract_z
_atom_site_type_symbol
Mg         0.0      0.0      0.0    Mg
Mg         0.0      0.5      0.0    Mg
O       0.0011  0.53833  0.86243     O
O      0.00304  0.36967  0.77961     O
C       0.0149   0.4813  0.78954     C
O      0.02584  0.31579   0.9742     O
H       0.0361   0.5245   0.7363     H
O      0.06111  0.81435  0.36673     O
O         0.08  0.15051  0.80322     O
Mg     0.08127  0.75611  0.13497    Mg
C       0.1012   0.2587  0.02939     C
O       0.1053   0.1501  0.03593     O
O       0.1069  0.98297  0.87895     O
Mg      0.1088  0.26039  0.68958    Mg
H       0.1175   0.0546   0.5457     H
O      0.12366  0.38826  0.59508     O
C       0.1306   0.0486  0.81452     C
O      0.15341  0.89878  0.06225     O
H       0.1592   0.3041    0.069     H
C       0.1729   0.8328  0.32984     C
H       0.1926     0.02    0.769     H
O      0.20321  0.80957   0.2463     O
H       0.2037   0.4924   0.5134     H
O       0.2069  0.51828  0.00353     O
C       0.2111   0.0742  0.55241     C
C       0.2222   0.4305  0.55441     C
O      0.24154  0.15608  0.61125     O
H       0.2421   0.8675   0.3675     H
H       0.2579   0.3675   0.8675     H
O      0.25846  0.65608  0.11125     O
C       0.2778   0.9305  0.05441     C
C       0.2889   0.5742  0.05241     C
O       0.2931  0.01828  0.50353     O
H       0.2963   0.9924   0.0134     H
O      0.29679  0.30957   0.7463     O
H       0.3074     0.52    0.269     H
C       0.3271   0.3328  0.82984     C
H       0.3408   0.8041    0.569     H
O      0.34659  0.39878  0.56225     O
C       0.3694   0.5486  0.31452     C
O      0.37634  0.88826  0.09508     O
H       0.3825   0.5546   0.0457     H
Mg      0.3912  0.76039  0.18958    Mg
O       0.3931  0.48297  0.37895     O
O       0.3947   0.6501  0.53593     O
C       0.3988   0.7587  0.52939     C
Mg     0.41873  0.25611  0.63497    Mg
O         0.42  0.65051  0.30322     O
O      0.43889  0.31435  0.86673     O
H       0.4639   0.0245   0.2363     H
O      0.47416  0.81579   0.4742     O
C       0.4851   0.9813  0.28954     C
O      0.49696  0.86967  0.27961     O
O       0.4989  0.03833  0.36243     O
Mg         0.5      0.0      0.5    Mg
Mg         0.5      0.5      0.5    Mg
O       0.5011  0.96167  0.63757     O
O      0.50304  0.13033  0.72039     O
C       0.5149   0.0187  0.71046     C
O      0.52584  0.18421   0.5258     O
H       0.5361   0.9755   0.7637     H
O      0.56111  0.68565  0.13327     O
O         0.58  0.34949  0.69678     O
Mg     0.58127  0.74389  0.36503    Mg
C       0.6012   0.2413  0.47061     C
O       0.6053   0.3499  0.46407     O
O       0.6069  0.51703  0.62105     O
Mg      0.6088  0.23961  0.81042    Mg
H       0.6175   0.4454   0.9543     H
O      0.62366  0.11174  0.90492     O
C       0.6306   0.4514  0.68548     C
O      0.65341  0.60122  0.43775     O
H       0.6592   0.1959    0.431     H
C       0.6729   0.6672  0.17016     C
H       0.6926     0.48    0.731     H
O      0.70321  0.69043   0.2537     O
H       0.7037   0.0076   0.9866     H
O       0.7069  0.98172  0.49647     O
C       0.7111   0.4258  0.94759     C
C       0.7222   0.0695  0.94559     C
O      0.74154  0.34392  0.88875     O
H       0.7421   0.6325   0.1325     H
H       0.7579   0.1325   0.6325     H
O      0.75846  0.84392  0.38875     O
C       0.7778   0.5695  0.44559     C
C       0.7889   0.9258  0.44759     C
O       0.7931  0.48172  0.99647     O
H       0.7963   0.5076   0.4866     H
O      0.79679  0.19043   0.7537     O
H       0.8074     0.98    0.231     H
C       0.8271   0.1672  0.67016     C
H       0.8408   0.6959    0.931     H
O      0.84659  0.10122  0.93775     O
C       0.8694   0.9514  0.18548     C
O      0.87634  0.61174  0.40492     O
H       0.8825   0.9454   0.4543     H
Mg      0.8912  0.73961  0.31042    Mg
O       0.8931  0.01703  0.12105     O
O       0.8947   0.8499  0.96407     O
C       0.8988   0.7413  0.97061     C
Mg     0.91873  0.24389  0.86503    Mg
O         0.92  0.84949  0.19678     O
O      0.93889  0.18565  0.63327     O
H       0.9639   0.4755   0.2637     H
O      0.97416  0.68421   0.0258     O
C       0.9851   0.5187  0.21046     C
O      0.99696  0.63033  0.22039     O
O       0.9989  0.46167  0.13757     O
