data_I
_chemical_name_common  '/home/zhangsd/repos/MofS-CGCNN/ML/data/SSD/clean_cifs/XEJTIR_clean'
_cell_length_a 12.44860
_cell_length_b 15.03600
_cell_length_c 16.59610
_cell_angle_alpha 90.00000
_cell_angle_beta  92.07400
_cell_angle_gamma 90.00000
_space_group_name_H-M_alt      'P 1'


loop_
_space_group_symop_operation_xyz
  'x, y, z' 

loop_
_atom_site_label
_atom_site_fract_x
_atom_site_fract_y
_atom_site_fract_z
_atom_site_type_symbol
Cu     0.02259  0.52137  0.23149    Cu
Cu     0.02259  0.97863  0.73149    Cu
N      0.05957  0.13692    0.277     N
N      0.05957  0.36308    0.777     N
N      0.07577   0.5831  0.76718     N
N      0.07577   0.9169  0.26718     N
H       0.0799   0.0716   0.0349     H
H       0.0799   0.4284   0.5349     H
N      0.09842  0.51114  0.33916     N
N      0.09842  0.98886  0.83916     N
N      0.10993  0.51758  0.13453     N
N      0.10993  0.98242  0.63453     N
C       0.1192  0.19476  0.28202     C
C       0.1192  0.30524  0.78202     C
C       0.1364  0.63872  0.76007     C
C       0.1364  0.86128  0.26007     C
H       0.1406   0.0419     0.43     H
H       0.1406   0.4581     0.93     H
C       0.1427  0.00102   0.8995     C
C       0.1427  0.49898   0.3995     C
H       0.1477   0.6958   0.3124     H
H       0.1477   0.8042   0.8124     H
C       0.1528   0.0529  0.03962     C
C       0.1528   0.4471  0.53962     C
C       0.1633  0.51744  0.07991     C
C       0.1633  0.98256  0.57991     C
H       0.1643   0.1734   0.6832     H
H       0.1643   0.3266   0.1832     H
H       0.1766   0.0906   0.1558     H
H       0.1766   0.4094   0.6558     H
C      0.19857  0.23639  0.79045     C
C      0.19857  0.26361  0.29045     C
C       0.2013  0.01413  0.97426     C
C       0.2013  0.48587  0.47426     C
C       0.2082  0.01363  0.43903     C
C       0.2082  0.48637  0.93903     C
C       0.2083  0.71053  0.28188     C
C       0.2083  0.78947  0.78188     C
C       0.2103  0.06414  0.11125     C
C       0.2103  0.43586  0.61125     C
C       0.2115  0.17349  0.72949     C
C       0.2115  0.32651  0.22949     C
C       0.2169  0.70523  0.74869     C
C       0.2169  0.79477  0.24869     C
C       0.2356  0.52183  0.01437     C
C       0.2356  0.97817  0.51437     C
H       0.2575   0.2232   0.4004     H
H       0.2575   0.2768   0.9004     H
H         0.26   0.0325   0.3263     H
H         0.26   0.4675   0.8263     H
C       0.2665  0.23456  0.85863     C
C       0.2665  0.26544  0.35863     C
C       0.2791  0.00778  0.37751     C
C       0.2791  0.49222  0.87751     C
H         0.28   0.5905   0.2927     H
H         0.28   0.9095   0.7927     H
C       0.2872  0.64844  0.27072     C
C       0.2872  0.85156  0.77072     C
C       0.2927  0.11182  0.73704     C
C       0.2927  0.38818  0.23704     C
H       0.3019   0.0696   0.6953     H
H       0.3019   0.4304   0.1953     H
C       0.3049   0.6854  0.70416     C
C       0.3049   0.8146  0.20416     C
C       0.3076  0.51295   0.4826     C
C       0.3076  0.98705   0.9826     C
H       0.3107   0.6281   0.6805     H
H       0.3107   0.8719   0.1805     H
C      0.31683  0.03733  0.11941     C
C      0.31683  0.46267  0.61941     C
C        0.335  0.56234  0.02726     C
C        0.335  0.93766  0.52726     C
H       0.3413   0.5396   0.4382     H
H       0.3413   0.9604   0.9382     H
C       0.3468  0.17187  0.86592     C
C       0.3468  0.32813  0.36592     C
H       0.3545   0.5859   0.0789     H
H       0.3545   0.9141   0.5789     H
C      0.36168  0.11021  0.80468     C
C      0.36168  0.38979  0.30468     C
C       0.3647  0.50189    0.554     C
C       0.3647  0.99811    0.054     C
O      0.36904  0.05062  0.18982     O
O      0.36904  0.44938  0.68982     O
C       0.3773  0.66937  0.22774     C
C       0.3773  0.83063  0.72774     C
C       0.3786   0.5339  0.88926     C
C       0.3786   0.9661  0.38926     C
C       0.3845  0.74701  0.69339     C
C       0.3845  0.75299  0.19339     C
H       0.3924   0.1706   0.9131     H
H       0.3924   0.3294   0.4131     H
C       0.4052  0.56842  0.96555     C
C       0.4052  0.93158  0.46555     C
H       0.4373   0.5211   0.5588     H
H       0.4373   0.9789   0.0588     H
O      0.44082  0.05024  0.81385     O
O      0.44082  0.44976  0.31385     O
H       0.4445   0.7323   0.6623     H
H       0.4445   0.7677   0.1623     H
O      0.44766  0.54391  0.83079     O
O      0.44766  0.95609  0.33079     O
O      0.45565  0.61111  0.21652     O
O      0.45565  0.88889  0.71652     O
H       0.4728   0.5965   0.9749     H
H       0.4728   0.9035   0.4749     H
Al     0.48177  0.01679  0.24623    Al
Al     0.48177  0.48321  0.74623    Al
Al     0.51823  0.51679  0.25377    Al
Al     0.51823  0.98321  0.75377    Al
H       0.5272   0.0965   0.5251     H
H       0.5272   0.4035   0.0251     H
O      0.54435  0.11111  0.28348     O
O      0.54435  0.38889  0.78348     O
O      0.55234  0.04391  0.66921     O
O      0.55234  0.45609  0.16921     O
H       0.5555   0.2323   0.8377     H
H       0.5555   0.2677   0.3377     H
O      0.55918  0.55024  0.68615     O
O      0.55918  0.94976  0.18615     O
H       0.5627   0.0211   0.9412     H
H       0.5627   0.4789   0.4412     H
C       0.5948  0.06842  0.53445     C
C       0.5948  0.43158  0.03445     C
H       0.6076   0.6706   0.5869     H
H       0.6076   0.8294   0.0869     H
C       0.6155  0.24701  0.80661     C
C       0.6155  0.25299  0.30661     C
C       0.6214   0.0339  0.61074     C
C       0.6214   0.4661  0.11074     C
C       0.6227  0.16937  0.27226     C
C       0.6227  0.33063  0.77226     C
O      0.63096  0.55062  0.31018     O
O      0.63096  0.94938  0.81018     O
C       0.6353  0.00189    0.946     C
C       0.6353  0.49811    0.446     C
C      0.63832  0.61021  0.69532     C
C      0.63832  0.88979  0.19532     C
H       0.6455   0.0859   0.4211     H
H       0.6455   0.4141   0.9211     H
C       0.6532  0.67187  0.63408     C
C       0.6532  0.82813  0.13408     C
H       0.6587   0.0396   0.0618     H
H       0.6587   0.4604   0.5618     H
C        0.665  0.06234  0.47274     C
C        0.665  0.43766  0.97274     C
C      0.68317  0.53733  0.38059     C
C      0.68317  0.96267  0.88059     C
H       0.6893   0.1281   0.8195     H
H       0.6893   0.3719   0.3195     H
C       0.6924  0.01295   0.0174     C
C       0.6924  0.48705   0.5174     C
C       0.6951   0.1854  0.79584     C
C       0.6951   0.3146  0.29584     C
H       0.6981   0.5696   0.8047     H
H       0.6981   0.9304   0.3047     H
C       0.7073  0.61182  0.76296     C
C       0.7073  0.88818  0.26296     C
C       0.7128  0.14844  0.22928     C
C       0.7128  0.35156  0.72928     C
H         0.72   0.0905   0.2073     H
H         0.72   0.4095   0.7073     H
C       0.7209  0.50778  0.12249     C
C       0.7209  0.99222  0.62249     C
C       0.7335  0.73456  0.64137     C
C       0.7335  0.76544  0.14137     C
H         0.74   0.5325   0.1737     H
H         0.74   0.9675   0.6737     H
H       0.7425   0.7232   0.0996     H
H       0.7425   0.7768   0.5996     H
C       0.7644  0.02183  0.48563     C
C       0.7644  0.47817  0.98563     C
C       0.7831  0.20523  0.75131     C
C       0.7831  0.29477  0.25131     C
C       0.7885  0.67349  0.77051     C
C       0.7885  0.82651  0.27051     C
C       0.7897  0.56414  0.38875     C
C       0.7897  0.93586  0.88875     C
C       0.7917  0.21053  0.21812     C
C       0.7917  0.28947  0.71812     C
C       0.7918  0.51363  0.06097     C
C       0.7918  0.98637  0.56097     C
C       0.7987  0.51413  0.52574     C
C       0.7987  0.98587  0.02574     C
C      0.80143  0.73639  0.70955     C
C      0.80143  0.76361  0.20955     C
H       0.8234   0.5906   0.3442     H
H       0.8234   0.9094   0.8442     H
H       0.8357   0.6734   0.8168     H
H       0.8357   0.8266   0.3168     H
C       0.8367  0.01744  0.42009     C
C       0.8367  0.48256  0.92009     C
C       0.8472   0.5529  0.46038     C
C       0.8472   0.9471  0.96038     C
H       0.8523   0.1958   0.1876     H
H       0.8523   0.3042   0.6876     H
C       0.8573  0.50102   0.6005     C
C       0.8573  0.99898   0.1005     C
H       0.8594   0.5419     0.07     H
H       0.8594   0.9581     0.57     H
C       0.8636  0.13872  0.73993     C
C       0.8636  0.36128  0.23993     C
C       0.8808  0.69476  0.21798     C
C       0.8808  0.80524  0.71798     C
N      0.89007  0.01758  0.36547     N
N      0.89007  0.48242  0.86547     N
N      0.90158  0.01114  0.16084     N
N      0.90158  0.48886  0.66084     N
H       0.9201   0.5716   0.4651     H
H       0.9201   0.9284   0.9651     H
N      0.92423   0.0831  0.73282     N
N      0.92423   0.4169  0.23282     N
N      0.94043  0.63692    0.223     N
N      0.94043  0.86308    0.723     N
Cu     0.97741  0.02137  0.26851    Cu
Cu     0.97741  0.47863  0.76851    Cu
