data_I
_chemical_name_common  '/home/zhangsd/repos/MofS-CGCNN/ML/data/SSD/clean_cifs/XENCAU_clean'
_cell_length_a 22.31750
_cell_length_b 22.31750
_cell_length_c 21.04290
_cell_angle_alpha 90.00000
_cell_angle_beta  90.00000
_cell_angle_gamma 90.00000
_space_group_name_H-M_alt      'P 1'


loop_
_space_group_symop_operation_xyz
  'x, y, z' 

loop_
_atom_site_label
_atom_site_fract_x
_atom_site_fract_y
_atom_site_fract_z
_atom_site_type_symbol
Co         0.0      0.0      0.0    Co
Co         0.0      0.5      0.0    Co
H       0.0077   0.3352   0.2778     H
H       0.0077   0.8352   0.7222     H
H       0.0154   0.4612   0.8617     H
H       0.0154   0.9612   0.1383     H
H       0.0188   0.1146   0.3216     H
H       0.0188   0.6146   0.6784     H
C       0.0249   0.1543   0.3053     C
C       0.0249   0.6543   0.6947     C
N      0.02657  0.03378   0.0935     N
N      0.02657  0.53378   0.9065     N
H       0.0268   0.1822     0.34     H
H       0.0268   0.6822     0.66     H
H       0.0271   0.1719   0.0982     H
H       0.0271   0.6719   0.9018     H
N       0.0307   0.4953   0.8566     N
N       0.0307   0.9953   0.1434     N
H       0.0345   0.1345   0.0357     H
H       0.0345   0.6345   0.9643     H
H       0.0357   0.3836   0.9358     H
H       0.0357   0.8836   0.0642     H
H        0.046    0.007     0.29     H
H        0.046    0.507     0.71     H
C       0.0494   0.0856   0.1154     C
C       0.0494   0.5856   0.8846     C
H       0.0499   0.4473   0.7489     H
H       0.0499   0.9473   0.2511     H
C       0.0505   0.1418   0.0773     C
C       0.0505   0.6418   0.9227     C
C       0.0555   0.0205   0.1952     C
C       0.0555   0.5205   0.8048     C
N       0.0597   0.3787   0.9628     N
N       0.0597   0.8787   0.0372     N
N      0.06481  0.42658   0.0022     N
N      0.06481  0.92658   0.9978     N
C       0.0655   0.4871   0.7447     C
C       0.0655   0.9871   0.2553     C
H       0.0678   0.2768     0.91     H
H       0.0678   0.7768     0.09     H
C       0.0688   0.0793   0.1784     C
C       0.0688   0.5793   0.8216     C
H       0.0781   0.2771   0.1518     H
H       0.0781   0.7771   0.8482     H
C       0.0827   0.1548   0.2696     C
C       0.0827   0.6548   0.7304     C
H       0.0852   0.2423   0.9722     H
H       0.0852   0.7423   0.0278     H
H       0.0912   0.1552   0.0736     H
H       0.0912   0.6552   0.9264     H
H       0.0948   0.3412   0.1764     H
H       0.0948   0.8412   0.8236     H
C       0.0952   0.3327   0.9804     C
C       0.0952   0.8327   0.0196     C
C       0.0957   0.2749   0.9447     C
C       0.0957   0.7749   0.0553     C
C       0.1014   0.1243   0.2169     C
C       0.1014   0.6243   0.7831     C
H       0.1044   0.4869   0.0958     H
H       0.1044   0.9869   0.9042     H
C       0.1052   0.4099   0.0462     C
C       0.1052   0.9099   0.9538     C
H       0.1078   0.4852   0.7367     H
H       0.1078   0.9852   0.2633     H
C       0.1082   0.3005   0.1727     C
C       0.1082   0.8005   0.8273     C
H       0.1155   0.2845   0.2143     H
H       0.1155   0.7845   0.7857     H
H        0.116   0.4307   0.1387     H
H        0.116   0.9307   0.8613     H
C       0.1252   0.4494   0.0989     C
C       0.1252   0.9494   0.9011     C
C       0.1257   0.3514   0.0331     C
C       0.1257   0.8514   0.9669     C
N       0.1287   0.1903   0.2872     N
N       0.1287   0.6903   0.7128     N
H       0.1336   0.2143   0.3142     H
H       0.1336   0.7143   0.6858     H
H       0.1354   0.2688   0.9284     H
H       0.1354   0.7688   0.0716     H
C       0.1599   0.1448   0.2038     C
C       0.1599   0.6448   0.7962     C
C       0.1644   0.2994   0.1346     C
C       0.1644   0.7994   0.8654     C
H       0.1676   0.4563   0.0961     H
H       0.1676   0.9563   0.9039     H
C       0.1707   0.3188   0.0716     C
C       0.1707   0.8188   0.9284     C
N      0.17658  0.18519   0.2478     N
N      0.17658  0.68519   0.7522     N
H       0.1807    0.134   0.1113     H
H       0.1807    0.634   0.8887     H
H       0.1973   0.2001   0.5011     H
H       0.1973   0.7001   0.4989     H
C       0.1994   0.1248   0.1511     C
C       0.1994   0.6248   0.8489     C
H       0.2063   0.0824   0.1539     H
H       0.2063   0.5824   0.8461     H
H       0.2112   0.2346   0.3883     H
H       0.2112   0.7346   0.6117     H
N      0.21622  0.27657   0.1565     N
N      0.21622  0.77657   0.8435     N
C       0.2295   0.3055   0.0548     C
C       0.2295   0.8055   0.9452     C
H       0.2352   0.1422   0.5133     H
H       0.2352   0.6422   0.4867     H
H       0.2369   0.1456   0.1542     H
H       0.2369   0.6456   0.8458     H
C       0.2371   0.1845   0.5053     C
C       0.2371   0.6845   0.4947     C
H        0.243    0.296     0.96     H
H        0.243    0.796     0.04     H
N       0.2453   0.2193   0.3934     N
N       0.2453   0.7193   0.6066     N
Co        0.25     0.25     0.25    Co
Co        0.25     0.75     0.75    Co
N       0.2547   0.2807   0.1066     N
N       0.2547   0.7807   0.8934     N
H        0.257    0.204     0.54     H
H        0.257    0.704     0.46     H
C       0.2629   0.3155   0.9947     C
C       0.2629   0.8155   0.0053     C
H       0.2631   0.3544   0.3458     H
H       0.2631   0.8544   0.6542     H
H       0.2648   0.3578   0.9867     H
H       0.2648   0.8578   0.0133     H
C       0.2705   0.1945   0.4452     C
C       0.2705   0.6945   0.5548     C
N      0.28378  0.22343   0.3435     N
N      0.28378  0.72343   0.6565     N
H       0.2888   0.2654   0.1117     H
H       0.2888   0.7654   0.8883     H
H       0.2937   0.4176   0.3461     H
H       0.2937   0.9176   0.6539     H
C       0.3006   0.3752   0.3489     C
C       0.3006   0.8752   0.6511     C
H       0.3027   0.2999   0.9989     H
H       0.3027   0.7999   0.0011     H
H       0.3193    0.366   0.3887     H
H       0.3193    0.866   0.6113     H
N      0.32342  0.31481   0.2522     N
N      0.32342  0.81481   0.7478     N
C       0.3293   0.1812   0.4284     C
C       0.3293   0.6812   0.5716     C
H       0.3324   0.0437   0.4039     H
H       0.3324   0.5437   0.5961     H
C       0.3356   0.2006   0.3654     C
C       0.3356   0.7006   0.6346     C
C       0.3401   0.3552   0.2962     C
C       0.3401   0.8552   0.7038     C
H       0.3646   0.2312   0.5716     H
H       0.3646   0.7312   0.4284     H
H       0.3664   0.2857   0.1858     H
H       0.3664   0.7857   0.8142     H
N       0.3713   0.3097   0.2128     N
N       0.3713   0.8097   0.7872     N
C       0.3743   0.1486   0.4669     C
C       0.3743   0.6486   0.5331     C
C       0.3748   0.0506   0.4011     C
C       0.3748   0.5506   0.5989     C
H        0.384   0.0693   0.3613     H
H        0.384   0.5693   0.6387     H
H       0.3845   0.2155   0.2857     H
H       0.3845   0.7155   0.7143     H
C       0.3918   0.1995   0.3273     C
C       0.3918   0.6995   0.6727     C
H       0.3922   0.0148   0.7633     H
H       0.3922   0.5148   0.2367     H
C       0.3948   0.0901   0.4538     C
C       0.3948   0.5901   0.5462     C
H       0.3956   0.0131   0.4042     H
H       0.3956   0.5131   0.5958     H
C       0.3986   0.3757   0.2831     C
C       0.3986   0.8757   0.7169     C
C       0.4043   0.2251   0.5553     C
C       0.4043   0.7251   0.4447     C
C       0.4048   0.1673   0.5196     C
C       0.4048   0.6673   0.4804     C
H       0.4052   0.1588   0.3236     H
H       0.4052   0.6588   0.6764     H
H       0.4088   0.3448   0.4264     H
H       0.4088   0.8448   0.5736     H
H       0.4148   0.2577   0.5278     H
H       0.4148   0.7577   0.4722     H
C       0.4173   0.3452   0.2304     C
C       0.4173   0.8452   0.7696     C
H       0.4219   0.2229   0.3482     H
H       0.4219   0.7229   0.6518     H
C       0.4312   0.4207   0.3216     C
C       0.4312   0.9207   0.6784     C
H       0.4322   0.2232     0.59     H
H       0.4322   0.7232     0.41     H
C       0.4345   0.0129   0.7553     C
C       0.4345   0.5129   0.2447     C
N      0.43519  0.07342   0.4978     N
N      0.43519  0.57342   0.5022     N
N       0.4403   0.1213   0.5372     N
N       0.4403   0.6213   0.4628     N
C       0.4445   0.4795   0.3048     C
C       0.4445   0.9795   0.6952     C
C       0.4495   0.3582   0.4227     C
C       0.4495   0.8582   0.5773     C
H       0.4501   0.0527   0.7511     H
H       0.4501   0.5527   0.2489     H
C       0.4506   0.4144   0.3846     C
C       0.4506   0.9144   0.6154     C
H        0.454    0.493     0.21     H
H        0.454    0.993     0.79     H
H       0.4643   0.1164   0.5642     H
H       0.4643   0.6164   0.4358     H
H       0.4655   0.3655   0.4643     H
H       0.4655   0.8655   0.5357     H
N       0.4693   0.0047   0.6434     N
N       0.4693   0.5047   0.3566     N
H       0.4729   0.3281   0.4018     H
H       0.4729   0.8281   0.5982     H
H       0.4732   0.3178     0.16     H
H       0.4732   0.8178     0.84     H
N      0.47343  0.46622   0.4065     N
N      0.47343  0.96622   0.5935     N
C       0.4751   0.3457   0.1947     C
C       0.4751   0.8457   0.8053     C
H       0.4812   0.3854   0.1784     H
H       0.4812   0.8854   0.8216     H
H       0.4846   0.0388   0.6383     H
H       0.4846   0.5388   0.3617     H
H       0.4923   0.1648   0.2222     H
H       0.4923   0.6648   0.7778     H
Co         0.5      0.0      0.5    Co
Co         0.5      0.5      0.5    Co
H       0.5077   0.3352   0.2222     H
H       0.5077   0.8352   0.7778     H
H       0.5154   0.4612   0.6383     H
H       0.5154   0.9612   0.3617     H
H       0.5188   0.1146   0.1784     H
H       0.5188   0.6146   0.8216     H
C       0.5249   0.1543   0.1947     C
C       0.5249   0.6543   0.8053     C
N      0.52657  0.03378   0.4065     N
N      0.52657  0.53378   0.5935     N
H       0.5268   0.1822     0.16     H
H       0.5268   0.6822     0.84     H
H       0.5271   0.1719   0.4018     H
H       0.5271   0.6719   0.5982     H
N       0.5307   0.4953   0.6434     N
N       0.5307   0.9953   0.3566     N
H       0.5345   0.1345   0.4643     H
H       0.5345   0.6345   0.5357     H
H       0.5357   0.3836   0.5642     H
H       0.5357   0.8836   0.4358     H
H        0.546    0.007     0.21     H
H        0.546    0.507     0.79     H
C       0.5494   0.0856   0.3846     C
C       0.5494   0.5856   0.6154     C
H       0.5499   0.4473   0.7511     H
H       0.5499   0.9473   0.2489     H
C       0.5505   0.1418   0.4227     C
C       0.5505   0.6418   0.5773     C
C       0.5555   0.0205   0.3048     C
C       0.5555   0.5205   0.6952     C
N       0.5597   0.3787   0.5372     N
N       0.5597   0.8787   0.4628     N
N      0.56481  0.42658   0.4978     N
N      0.56481  0.92658   0.5022     N
C       0.5655   0.4871   0.7553     C
C       0.5655   0.9871   0.2447     C
H       0.5678   0.2768     0.59     H
H       0.5678   0.7768     0.41     H
C       0.5688   0.0793   0.3216     C
C       0.5688   0.5793   0.6784     C
H       0.5781   0.2771   0.3482     H
H       0.5781   0.7771   0.6518     H
C       0.5827   0.1548   0.2304     C
C       0.5827   0.6548   0.7696     C
H       0.5852   0.2423   0.5278     H
H       0.5852   0.7423   0.4722     H
H       0.5912   0.1552   0.4264     H
H       0.5912   0.6552   0.5736     H
H       0.5948   0.3412   0.3236     H
H       0.5948   0.8412   0.6764     H
C       0.5952   0.3327   0.5196     C
C       0.5952   0.8327   0.4804     C
C       0.5957   0.2749   0.5553     C
C       0.5957   0.7749   0.4447     C
C       0.6014   0.1243   0.2831     C
C       0.6014   0.6243   0.7169     C
H       0.6044   0.4869   0.4042     H
H       0.6044   0.9869   0.5958     H
C       0.6052   0.4099   0.4538     C
C       0.6052   0.9099   0.5462     C
H       0.6078   0.4852   0.7633     H
H       0.6078   0.9852   0.2367     H
C       0.6082   0.3005   0.3273     C
C       0.6082   0.8005   0.6727     C
H       0.6155   0.2845   0.2857     H
H       0.6155   0.7845   0.7143     H
H        0.616   0.4307   0.3613     H
H        0.616   0.9307   0.6387     H
C       0.6252   0.4494   0.4011     C
C       0.6252   0.9494   0.5989     C
C       0.6257   0.3514   0.4669     C
C       0.6257   0.8514   0.5331     C
N       0.6287   0.1903   0.2128     N
N       0.6287   0.6903   0.7872     N
H       0.6336   0.2143   0.1858     H
H       0.6336   0.7143   0.8142     H
H       0.6354   0.2688   0.5716     H
H       0.6354   0.7688   0.4284     H
C       0.6599   0.1448   0.2962     C
C       0.6599   0.6448   0.7038     C
C       0.6644   0.2994   0.3654     C
C       0.6644   0.7994   0.6346     C
H       0.6676   0.4563   0.4039     H
H       0.6676   0.9563   0.5961     H
C       0.6707   0.3188   0.4284     C
C       0.6707   0.8188   0.5716     C
N      0.67658  0.18519   0.2522     N
N      0.67658  0.68519   0.7478     N
H       0.6807    0.134   0.3887     H
H       0.6807    0.634   0.6113     H
H       0.6973   0.2001   0.9989     H
H       0.6973   0.7001   0.0011     H
C       0.6994   0.1248   0.3489     C
C       0.6994   0.6248   0.6511     C
H       0.7063   0.0824   0.3461     H
H       0.7063   0.5824   0.6539     H
H       0.7112   0.2346   0.1117     H
H       0.7112   0.7346   0.8883     H
N      0.71622  0.27657   0.3435     N
N      0.71622  0.77657   0.6565     N
C       0.7295   0.3055   0.4452     C
C       0.7295   0.8055   0.5548     C
H       0.7352   0.1422   0.9867     H
H       0.7352   0.6422   0.0133     H
H       0.7369   0.1456   0.3458     H
H       0.7369   0.6456   0.6542     H
C       0.7371   0.1845   0.9947     C
C       0.7371   0.6845   0.0053     C
H        0.743    0.296     0.54     H
H        0.743    0.796     0.46     H
N       0.7453   0.2193   0.1066     N
N       0.7453   0.7193   0.8934     N
Co        0.75     0.25     0.25    Co
Co        0.75     0.75     0.75    Co
N       0.7547   0.2807   0.3934     N
N       0.7547   0.7807   0.6066     N
H        0.757    0.204     0.96     H
H        0.757    0.704     0.04     H
C       0.7629   0.3155   0.5053     C
C       0.7629   0.8155   0.4947     C
H       0.7631   0.3544   0.1542     H
H       0.7631   0.8544   0.8458     H
H       0.7648   0.3578   0.5133     H
H       0.7648   0.8578   0.4867     H
C       0.7705   0.1945   0.0548     C
C       0.7705   0.6945   0.9452     C
N      0.78378  0.22343   0.1565     N
N      0.78378  0.72343   0.8435     N
H       0.7888   0.2654   0.3883     H
H       0.7888   0.7654   0.6117     H
H       0.7937   0.4176   0.1539     H
H       0.7937   0.9176   0.8461     H
C       0.8006   0.3752   0.1511     C
C       0.8006   0.8752   0.8489     C
H       0.8027   0.2999   0.5011     H
H       0.8027   0.7999   0.4989     H
H       0.8193    0.366   0.1113     H
H       0.8193    0.866   0.8887     H
N      0.82342  0.31481   0.2478     N
N      0.82342  0.81481   0.7522     N
C       0.8293   0.1812   0.0716     C
C       0.8293   0.6812   0.9284     C
H       0.8324   0.0437   0.0961     H
H       0.8324   0.5437   0.9039     H
C       0.8356   0.2006   0.1346     C
C       0.8356   0.7006   0.8654     C
C       0.8401   0.3552   0.2038     C
C       0.8401   0.8552   0.7962     C
H       0.8646   0.2312   0.9284     H
H       0.8646   0.7312   0.0716     H
H       0.8664   0.2857   0.3142     H
H       0.8664   0.7857   0.6858     H
N       0.8713   0.3097   0.2872     N
N       0.8713   0.8097   0.7128     N
C       0.8743   0.1486   0.0331     C
C       0.8743   0.6486   0.9669     C
C       0.8748   0.0506   0.0989     C
C       0.8748   0.5506   0.9011     C
H        0.884   0.0693   0.1387     H
H        0.884   0.5693   0.8613     H
H       0.8845   0.2155   0.2143     H
H       0.8845   0.7155   0.7857     H
C       0.8918   0.1995   0.1727     C
C       0.8918   0.6995   0.8273     C
H       0.8922   0.0148   0.7367     H
H       0.8922   0.5148   0.2633     H
C       0.8948   0.0901   0.0462     C
C       0.8948   0.5901   0.9538     C
H       0.8956   0.0131   0.0958     H
H       0.8956   0.5131   0.9042     H
C       0.8986   0.3757   0.2169     C
C       0.8986   0.8757   0.7831     C
C       0.9043   0.2251   0.9447     C
C       0.9043   0.7251   0.0553     C
C       0.9048   0.1673   0.9804     C
C       0.9048   0.6673   0.0196     C
H       0.9052   0.1588   0.1764     H
H       0.9052   0.6588   0.8236     H
H       0.9088   0.3448   0.0736     H
H       0.9088   0.8448   0.9264     H
H       0.9148   0.2577   0.9722     H
H       0.9148   0.7577   0.0278     H
C       0.9173   0.3452   0.2696     C
C       0.9173   0.8452   0.7304     C
H       0.9219   0.2229   0.1518     H
H       0.9219   0.7229   0.8482     H
C       0.9312   0.4207   0.1784     C
C       0.9312   0.9207   0.8216     C
H       0.9322   0.2232     0.91     H
H       0.9322   0.7232     0.09     H
C       0.9345   0.0129   0.7447     C
C       0.9345   0.5129   0.2553     C
N      0.93519  0.07342   0.0022     N
N      0.93519  0.57342   0.9978     N
N       0.9403   0.1213   0.9628     N
N       0.9403   0.6213   0.0372     N
C       0.9445   0.4795   0.1952     C
C       0.9445   0.9795   0.8048     C
C       0.9495   0.3582   0.0773     C
C       0.9495   0.8582   0.9227     C
H       0.9501   0.0527   0.7489     H
H       0.9501   0.5527   0.2511     H
C       0.9506   0.4144   0.1154     C
C       0.9506   0.9144   0.8846     C
H        0.954    0.493     0.29     H
H        0.954    0.993     0.71     H
H       0.9643   0.1164   0.9358     H
H       0.9643   0.6164   0.0642     H
H       0.9655   0.3655   0.0357     H
H       0.9655   0.8655   0.9643     H
N       0.9693   0.0047   0.8566     N
N       0.9693   0.5047   0.1434     N
H       0.9729   0.3281   0.0982     H
H       0.9729   0.8281   0.9018     H
H       0.9732   0.3178     0.34     H
H       0.9732   0.8178     0.66     H
N      0.97343  0.46622   0.0935     N
N      0.97343  0.96622   0.9065     N
C       0.9751   0.3457   0.3053     C
C       0.9751   0.8457   0.6947     C
H       0.9812   0.3854   0.3216     H
H       0.9812   0.8854   0.6784     H
H       0.9846   0.0388   0.8617     H
H       0.9846   0.5388   0.1383     H
H       0.9923   0.1648   0.2778     H
H       0.9923   0.6648   0.7222     H
