data_I
_chemical_name_common  '/home/zhangsd/repos/MofS-CGCNN/ML/data/SSD/clean_cifs/XIFHIF_clean'
_cell_length_a  8.58510
_cell_length_b 15.41180
_cell_length_c 28.04670
_cell_angle_alpha 90.00000
_cell_angle_beta  90.00000
_cell_angle_gamma 90.00000
_space_group_name_H-M_alt      'P 1'


loop_
_space_group_symop_operation_xyz
  'x, y, z' 

loop_
_atom_site_label
_atom_site_fract_x
_atom_site_fract_y
_atom_site_fract_z
_atom_site_type_symbol
C       0.0131   0.5097   0.5765     C
C       0.0131   0.5097   0.9235     C
C       0.0298   0.5876    0.551     C
C       0.0298   0.5876    0.949     C
O       0.0437   0.2831  0.52197     O
O       0.0437   0.2831  0.97803     O
O       0.0498   0.2096  0.66257     O
O       0.0498   0.2096  0.83743     O
Tb      0.0516  0.79758  0.08614    Tb
Tb      0.0516  0.79758  0.41386    Tb
H       0.0862   0.4848   0.5968     H
H       0.0862   0.4848   0.9032     H
C       0.1024   0.4011   0.0258     C
C       0.1024   0.4011   0.4742     C
H       0.1157   0.6243   0.5514     H
H       0.1157   0.6243   0.9486     H
O       0.1244   0.6556  0.10301     O
O       0.1244   0.6556  0.39699     O
C       0.1301   0.5224   0.0658     C
C       0.1301   0.5224   0.4342     C
O       0.1342   0.2631     0.75     O
C       0.1479   0.2701   0.6641     C
C       0.1479   0.2701   0.8359     C
C       0.1479   0.3352   0.5102     C
C       0.1479   0.3352   0.9898     C
H       0.1566   0.9066   0.2049     H
H       0.1566   0.9066   0.2951     H
O       0.1632   0.1206  0.56106     O
O       0.1632   0.1206  0.93894     O
C        0.194   0.3044   0.7112     C
C        0.194   0.3044   0.7888     C
C       0.2039   0.6058   0.0775     C
C       0.2039   0.6058   0.4225     C
O       0.2044   0.4671  0.03465     O
O       0.2044   0.4671  0.46535     O
O       0.2068   0.3037  0.62736     O
O       0.2068   0.3037  0.87264     O
C       0.2114   0.8691   0.2248     C
C       0.2114   0.8691   0.2752     C
O       0.2154   0.8386   0.0258     O
O       0.2154   0.8386   0.4742     O
O       0.2846   0.3386   0.5258     O
O       0.2846   0.3386   0.9742     O
C       0.2886   0.3691   0.7248     C
C       0.2886   0.3691   0.7752     C
O       0.2932   0.8037  0.12736     O
O       0.2932   0.8037  0.37264     O
O       0.2956   0.9671  0.53465     O
O       0.2956   0.9671  0.96535     O
C       0.2961   0.1058   0.5775     C
C       0.2961   0.1058   0.9225     C
C        0.306   0.8044   0.2112     C
C        0.306   0.8044   0.2888     C
O       0.3368   0.6206  0.06106     O
O       0.3368   0.6206  0.43894     O
H       0.3434   0.4066   0.7049     H
H       0.3434   0.4066   0.7951     H
C       0.3521   0.7701   0.1641     C
C       0.3521   0.7701   0.3359     C
C       0.3521   0.8352   0.0102     C
C       0.3521   0.8352   0.4898     C
O       0.3658   0.7631     0.25     O
C       0.3699   0.0224   0.5658     C
C       0.3699   0.0224   0.9342     C
O       0.3756   0.1556  0.60301     O
O       0.3756   0.1556  0.89699     O
H       0.3843   0.1243   0.0514     H
H       0.3843   0.1243   0.4486     H
C       0.3976   0.9011   0.5258     C
C       0.3976   0.9011   0.9742     C
H       0.4138   0.9848   0.0968     H
H       0.4138   0.9848   0.4032     H
Tb      0.4484  0.29758  0.58614    Tb
Tb      0.4484  0.29758  0.91386    Tb
O       0.4502   0.7096  0.16257     O
O       0.4502   0.7096  0.33743     O
O       0.4563   0.7831  0.02197     O
O       0.4563   0.7831  0.47803     O
C       0.4702   0.0876    0.051     C
C       0.4702   0.0876    0.449     C
C       0.4869   0.0097   0.0765     C
C       0.4869   0.0097   0.4235     C
C       0.5131   0.9903   0.5765     C
C       0.5131   0.9903   0.9235     C
C       0.5298   0.9124    0.551     C
C       0.5298   0.9124    0.949     C
O       0.5437   0.2169  0.52197     O
O       0.5437   0.2169  0.97803     O
O       0.5498   0.2904  0.66257     O
O       0.5498   0.2904  0.83743     O
Tb      0.5516  0.70242  0.08614    Tb
Tb      0.5516  0.70242  0.41386    Tb
H       0.5862   0.0152   0.5968     H
H       0.5862   0.0152   0.9032     H
C       0.6024   0.0989   0.0258     C
C       0.6024   0.0989   0.4742     C
H       0.6157   0.8757   0.5514     H
H       0.6157   0.8757   0.9486     H
O       0.6244   0.8444  0.10301     O
O       0.6244   0.8444  0.39699     O
C       0.6301   0.9776   0.0658     C
C       0.6301   0.9776   0.4342     C
O       0.6342   0.2369     0.75     O
C       0.6479   0.1648   0.5102     C
C       0.6479   0.1648   0.9898     C
C       0.6479   0.2299   0.6641     C
C       0.6479   0.2299   0.8359     C
H       0.6566   0.5934   0.2049     H
H       0.6566   0.5934   0.2951     H
O       0.6632   0.3794  0.56106     O
O       0.6632   0.3794  0.93894     O
C        0.694   0.1956   0.7112     C
C        0.694   0.1956   0.7888     C
C       0.7039   0.8942   0.0775     C
C       0.7039   0.8942   0.4225     C
O       0.7044   0.0329  0.03465     O
O       0.7044   0.0329  0.46535     O
O       0.7068   0.1963  0.62736     O
O       0.7068   0.1963  0.87264     O
C       0.7114   0.6309   0.2248     C
C       0.7114   0.6309   0.2752     C
O       0.7154   0.6614   0.0258     O
O       0.7154   0.6614   0.4742     O
O       0.7846   0.1614   0.5258     O
O       0.7846   0.1614   0.9742     O
C       0.7886   0.1309   0.7248     C
C       0.7886   0.1309   0.7752     C
O       0.7932   0.6963  0.12736     O
O       0.7932   0.6963  0.37264     O
O       0.7956   0.5329  0.53465     O
O       0.7956   0.5329  0.96535     O
C       0.7961   0.3942   0.5775     C
C       0.7961   0.3942   0.9225     C
C        0.806   0.6956   0.2112     C
C        0.806   0.6956   0.2888     C
O       0.8368   0.8794  0.06106     O
O       0.8368   0.8794  0.43894     O
H       0.8434   0.0934   0.7049     H
H       0.8434   0.0934   0.7951     H
C       0.8521   0.6648   0.0102     C
C       0.8521   0.6648   0.4898     C
C       0.8521   0.7299   0.1641     C
C       0.8521   0.7299   0.3359     C
O       0.8658   0.7369     0.25     O
C       0.8699   0.4776   0.5658     C
C       0.8699   0.4776   0.9342     C
O       0.8756   0.3444  0.60301     O
O       0.8756   0.3444  0.89699     O
H       0.8843   0.3757   0.0514     H
H       0.8843   0.3757   0.4486     H
C       0.8976   0.5989   0.5258     C
C       0.8976   0.5989   0.9742     C
H       0.9138   0.5152   0.0968     H
H       0.9138   0.5152   0.4032     H
Tb      0.9484  0.20242  0.58614    Tb
Tb      0.9484  0.20242  0.91386    Tb
O       0.9502   0.7904  0.16257     O
O       0.9502   0.7904  0.33743     O
O       0.9563   0.7169  0.02197     O
O       0.9563   0.7169  0.47803     O
C       0.9702   0.4124    0.051     C
C       0.9702   0.4124    0.449     C
C       0.9869   0.4903   0.0765     C
C       0.9869   0.4903   0.4235     C
