data_I
_chemical_name_common  '/home/zhangsd/repos/MofS-CGCNN/ML/data/SSD/clean_cifs/XIGFOJ_manual'
_cell_length_a  9.03890
_cell_length_b 24.49800
_cell_length_c 45.85300
_cell_angle_alpha 90.00000
_cell_angle_beta  90.00000
_cell_angle_gamma 90.00000
_space_group_name_H-M_alt      'P 1'


loop_
_space_group_symop_operation_xyz
  'x, y, z' 

loop_
_atom_site_label
_atom_site_fract_x
_atom_site_fract_y
_atom_site_fract_z
_atom_site_type_symbol
O       0.0039  0.61371  0.83396     O
O       0.0039  0.88629  0.33396     O
O       0.0172  0.50731  0.19546     O
O       0.0172  0.99269  0.69546     O
H       0.0195   0.5546   0.2454     H
H       0.0195   0.9454   0.7454     H
C       0.0279  0.71785  0.80923     C
C       0.0279  0.78215  0.30923     C
C       0.0299   0.7355  0.29329     C
C       0.0299   0.7645  0.79329     C
H       0.0301   0.6252   0.2784     H
H       0.0301   0.8748   0.7784     H
H       0.0421   0.2091   0.2034     H
H       0.0421   0.2909   0.7034     H
H       0.0451   0.2131   0.6767     H
H       0.0451   0.2869   0.1767     H
H       0.0514   0.0342   0.4132     H
H       0.0514   0.4658   0.9132     H
H       0.0589   0.0409   0.4633     H
H       0.0589   0.4591   0.9633     H
C       0.0613   0.5876  0.23964     C
C       0.0613   0.9124  0.73964     C
C       0.0681  0.62967  0.25972     C
C       0.0681  0.87033  0.75972     C
Cd     0.08588  0.03713  0.64915    Cd
Cd     0.08588  0.46287  0.14915    Cd
C       0.0992  0.54897  0.18988     C
C       0.0992  0.95103  0.68988     C
C       0.1136  0.59225  0.21144     C
C       0.1136  0.90775  0.71144     C
C       0.1182  0.62185  0.81911     C
C       0.1182  0.87815  0.31911     C
O       0.1314  0.00869  0.36162     O
O       0.1314  0.49131  0.86162     O
C       0.1318  0.67735  0.80499     C
C       0.1318  0.82265  0.30499     C
C       0.1328  0.67862  0.25143     C
C       0.1328  0.82138  0.75143     C
C       0.1333  0.02118  0.42326     C
C       0.1333  0.47882  0.92326     C
C       0.1351   0.0235   0.4533     C
C       0.1351   0.4765   0.9533     C
C       0.1371  0.72615  0.27208     C
C       0.1371  0.77385  0.77208     C
H       0.1684   0.0749   0.5069     H
H       0.1684   0.4251   0.0069     H
O       0.1704  0.55144  0.16607     O
O       0.1704  0.94856  0.66607     O
H       0.1722   0.2397   0.2565     H
H       0.1722   0.2603   0.7565     H
C       0.1757  0.64259  0.20361     C
C       0.1757  0.85741  0.70361     C
O       0.1761     0.04   0.6052     O
O       0.1761     0.46   0.1052     O
H       0.1799   0.1611   0.2826     H
H       0.1799   0.3389   0.7826     H
H       0.1813   0.0719   0.5587     H
H       0.1813   0.4281   0.0587     H
C       0.1854  0.68383  0.22358     C
C       0.1854  0.81617  0.72358     C
C       0.2033   0.0438  0.51628     C
C       0.2033   0.4562  0.01628     C
C       0.2104     0.04  0.54935     C
C       0.2104     0.46  0.04935     C
H       0.2105   0.6479   0.1847     H
H       0.2105   0.8521   0.6847     H
O       0.2185  0.58948  0.81491     O
O       0.2185  0.91052  0.31491     O
H       0.2293   0.7166   0.2181     H
H       0.2293   0.7834   0.7181     H
C        0.246  0.68705  0.78507     C
C        0.246  0.81295  0.28507     C
C       0.2499  0.73372  0.76934     C
C       0.2499  0.76628  0.26934     C
Cd        0.25      0.0  0.31325    Cd
C         0.25      0.0  0.37511     C
C         0.25      0.0  0.40806     C
C         0.25      0.0  0.46857     C
C         0.25      0.0  0.50122     C
C         0.25      0.0  0.56799     C
C         0.25      0.0  0.60201     C
C         0.25      0.5  0.00122     C
C         0.25      0.5  0.06799     C
C         0.25      0.5  0.10201     C
Cd        0.25      0.5  0.81325    Cd
C         0.25      0.5  0.87511     C
C         0.25      0.5  0.90806     C
C         0.25      0.5  0.96857     C
C       0.2501  0.23372  0.26934     C
C       0.2501  0.26628  0.76934     C
C        0.254  0.18705  0.28507     C
C        0.254  0.31295  0.78507     C
H       0.2707   0.2166   0.7181     H
H       0.2707   0.2834   0.2181     H
O       0.2815  0.08948  0.31491     O
O       0.2815  0.41052  0.81491     O
H       0.2895   0.1479   0.6847     H
H       0.2895   0.3521   0.1847     H
C       0.2896     0.54  0.04935     C
C       0.2896     0.96  0.54935     C
C       0.2967   0.5438  0.01628     C
C       0.2967   0.9562  0.51628     C
C       0.3146  0.18383  0.72358     C
C       0.3146  0.31617  0.22358     C
H       0.3187   0.5719   0.0587     H
H       0.3187   0.9281   0.5587     H
H       0.3201   0.6611   0.7826     H
H       0.3201   0.8389   0.2826     H
O       0.3239     0.54   0.1052     O
O       0.3239     0.96   0.6052     O
C       0.3243  0.14259  0.70361     C
C       0.3243  0.35741  0.20361     C
H       0.3278   0.7397   0.7565     H
H       0.3278   0.7603   0.2565     H
O       0.3296  0.05144  0.66607     O
O       0.3296  0.44856  0.16607     O
H       0.3316   0.5749   0.0069     H
H       0.3316   0.9251   0.5069     H
C       0.3629  0.22615  0.77208     C
C       0.3629  0.27385  0.27208     C
C       0.3649   0.5235   0.9533     C
C       0.3649   0.9765   0.4533     C
C       0.3667  0.52118  0.92326     C
C       0.3667  0.97882  0.42326     C
C       0.3672  0.17862  0.75143     C
C       0.3672  0.32138  0.25143     C
C       0.3682  0.17735  0.30499     C
C       0.3682  0.32265  0.80499     C
O       0.3686  0.50869  0.86162     O
O       0.3686  0.99131  0.36162     O
C       0.3818  0.12185  0.31911     C
C       0.3818  0.37815  0.81911     C
C       0.3864  0.09225  0.71144     C
C       0.3864  0.40775  0.21144     C
C       0.4008  0.04897  0.68988     C
C       0.4008  0.45103  0.18988     C
Cd     0.41412  0.53713  0.14915    Cd
Cd     0.41412  0.96287  0.64915    Cd
C       0.4319  0.12967  0.75972     C
C       0.4319  0.37033  0.25972     C
C       0.4387   0.0876  0.73964     C
C       0.4387   0.4124  0.23964     C
H       0.4411   0.5409   0.9633     H
H       0.4411   0.9591   0.4633     H
H       0.4486   0.5342   0.9132     H
H       0.4486   0.9658   0.4132     H
H       0.4549   0.7131   0.1767     H
H       0.4549   0.7869   0.6767     H
H       0.4579   0.7091   0.7034     H
H       0.4579   0.7909   0.2034     H
H       0.4699   0.1252   0.7784     H
H       0.4699   0.3748   0.2784     H
C       0.4701   0.2355  0.79329     C
C       0.4701   0.2645  0.29329     C
C       0.4721  0.21785  0.30923     C
C       0.4721  0.28215  0.80923     C
H       0.4805   0.0546   0.7454     H
H       0.4805   0.4454   0.2454     H
O       0.4828  0.00731  0.69546     O
O       0.4828  0.49269  0.19546     O
O       0.4961  0.11371  0.33396     O
O       0.4961  0.38629  0.83396     O
O       0.5039  0.61371  0.16604     O
O       0.5039  0.88629  0.66604     O
O       0.5172  0.50731  0.80454     O
O       0.5172  0.99269  0.30454     O
H       0.5195   0.5546   0.7546     H
H       0.5195   0.9454   0.2546     H
C       0.5279  0.71785  0.19077     C
C       0.5279  0.78215  0.69077     C
C       0.5299   0.7355  0.70671     C
C       0.5299   0.7645  0.20671     C
H       0.5301   0.6252   0.7216     H
H       0.5301   0.8748   0.2216     H
H       0.5421   0.2091   0.7966     H
H       0.5421   0.2909   0.2966     H
H       0.5451   0.2131   0.3233     H
H       0.5451   0.2869   0.8233     H
H       0.5514   0.0342   0.5868     H
H       0.5514   0.4658   0.0868     H
H       0.5589   0.0409   0.5367     H
H       0.5589   0.4591   0.0367     H
C       0.5613   0.5876  0.76036     C
C       0.5613   0.9124  0.26036     C
C       0.5681  0.62967  0.74028     C
C       0.5681  0.87033  0.24028     C
Cd     0.58588  0.03713  0.35085    Cd
Cd     0.58588  0.46287  0.85085    Cd
C       0.5992  0.54897  0.81012     C
C       0.5992  0.95103  0.31012     C
C       0.6136  0.59225  0.78856     C
C       0.6136  0.90775  0.28856     C
C       0.6182  0.62185  0.18089     C
C       0.6182  0.87815  0.68089     C
O       0.6314  0.00869  0.63838     O
O       0.6314  0.49131  0.13838     O
C       0.6318  0.67735  0.19501     C
C       0.6318  0.82265  0.69501     C
C       0.6328  0.67862  0.74857     C
C       0.6328  0.82138  0.24857     C
C       0.6333  0.02118  0.57674     C
C       0.6333  0.47882  0.07674     C
C       0.6351   0.0235   0.5467     C
C       0.6351   0.4765   0.0467     C
C       0.6371  0.72615  0.72792     C
C       0.6371  0.77385  0.22792     C
H       0.6684   0.0749   0.4931     H
H       0.6684   0.4251   0.9931     H
O       0.6704  0.55144  0.83393     O
O       0.6704  0.94856  0.33393     O
H       0.6722   0.2397   0.7435     H
H       0.6722   0.2603   0.2435     H
C       0.6757  0.64259  0.79639     C
C       0.6757  0.85741  0.29639     C
O       0.6761     0.04   0.3948     O
O       0.6761     0.46   0.8948     O
H       0.6799   0.1611   0.7174     H
H       0.6799   0.3389   0.2174     H
H       0.6813   0.0719   0.4413     H
H       0.6813   0.4281   0.9413     H
C       0.6854  0.68383  0.77642     C
C       0.6854  0.81617  0.27642     C
C       0.7033   0.0438  0.48372     C
C       0.7033   0.4562  0.98372     C
C       0.7104     0.04  0.45065     C
C       0.7104     0.46  0.95065     C
H       0.7105   0.6479   0.8153     H
H       0.7105   0.8521   0.3153     H
O       0.7185  0.58948  0.18509     O
O       0.7185  0.91052  0.68509     O
H       0.7293   0.7166   0.7819     H
H       0.7293   0.7834   0.2819     H
C        0.746  0.68705  0.21493     C
C        0.746  0.81295  0.71493     C
C       0.7499  0.73372  0.23066     C
C       0.7499  0.76628  0.73066     C
C         0.75      0.0  0.39799     C
C         0.75      0.0  0.43201     C
C         0.75      0.0  0.49878     C
C         0.75      0.0  0.53143     C
C         0.75      0.0  0.59194     C
C         0.75      0.0  0.62489     C
Cd        0.75      0.0  0.68675    Cd
C         0.75      0.5  0.03143     C
C         0.75      0.5  0.09194     C
C         0.75      0.5  0.12489     C
Cd        0.75      0.5  0.18675    Cd
C         0.75      0.5  0.89799     C
C         0.75      0.5  0.93201     C
C         0.75      0.5  0.99878     C
C       0.7501  0.23372  0.73066     C
C       0.7501  0.26628  0.23066     C
C        0.754  0.18705  0.71493     C
C        0.754  0.31295  0.21493     C
H       0.7707   0.2166   0.2819     H
H       0.7707   0.2834   0.7819     H
O       0.7815  0.08948  0.68509     O
O       0.7815  0.41052  0.18509     O
H       0.7895   0.1479   0.3153     H
H       0.7895   0.3521   0.8153     H
C       0.7896     0.54  0.95065     C
C       0.7896     0.96  0.45065     C
C       0.7967   0.5438  0.98372     C
C       0.7967   0.9562  0.48372     C
C       0.8146  0.18383  0.27642     C
C       0.8146  0.31617  0.77642     C
H       0.8187   0.5719   0.9413     H
H       0.8187   0.9281   0.4413     H
H       0.8201   0.6611   0.2174     H
H       0.8201   0.8389   0.7174     H
O       0.8239     0.54   0.8948     O
O       0.8239     0.96   0.3948     O
C       0.8243  0.14259  0.29639     C
C       0.8243  0.35741  0.79639     C
H       0.8278   0.7397   0.2435     H
H       0.8278   0.7603   0.7435     H
O       0.8296  0.05144  0.33393     O
O       0.8296  0.44856  0.83393     O
H       0.8316   0.5749   0.9931     H
H       0.8316   0.9251   0.4931     H
C       0.8629  0.22615  0.22792     C
C       0.8629  0.27385  0.72792     C
C       0.8649   0.5235   0.0467     C
C       0.8649   0.9765   0.5467     C
C       0.8667  0.52118  0.07674     C
C       0.8667  0.97882  0.57674     C
C       0.8672  0.17862  0.24857     C
C       0.8672  0.32138  0.74857     C
C       0.8682  0.17735  0.69501     C
C       0.8682  0.32265  0.19501     C
O       0.8686  0.50869  0.13838     O
O       0.8686  0.99131  0.63838     O
C       0.8818  0.12185  0.68089     C
C       0.8818  0.37815  0.18089     C
C       0.8864  0.09225  0.28856     C
C       0.8864  0.40775  0.78856     C
C       0.9008  0.04897  0.31012     C
C       0.9008  0.45103  0.81012     C
Cd     0.91412  0.53713  0.85085    Cd
Cd     0.91412  0.96287  0.35085    Cd
C       0.9319  0.12967  0.24028     C
C       0.9319  0.37033  0.74028     C
C       0.9387   0.0876  0.26036     C
C       0.9387   0.4124  0.76036     C
H       0.9411   0.5409   0.0367     H
H       0.9411   0.9591   0.5367     H
H       0.9486   0.5342   0.0868     H
H       0.9486   0.9658   0.5868     H
H       0.9549   0.7131   0.8233     H
H       0.9549   0.7869   0.3233     H
H       0.9579   0.7091   0.2966     H
H       0.9579   0.7909   0.7966     H
H       0.9699   0.1252   0.2216     H
H       0.9699   0.3748   0.7216     H
C       0.9701   0.2355  0.20671     C
C       0.9701   0.2645  0.70671     C
C       0.9721  0.21785  0.69077     C
C       0.9721  0.28215  0.19077     C
H       0.9805   0.0546   0.2546     H
H       0.9805   0.4454   0.7546     H
O       0.9828  0.00731  0.30454     O
O       0.9828  0.49269  0.80454     O
O       0.9961  0.11371  0.66604     O
O       0.9961  0.38629  0.16604     O
