data_I
_chemical_name_common  '/home/zhangsd/repos/MofS-CGCNN/ML/data/SSD/clean_cifs/XILTAP_clean'
_cell_length_a 22.05800
_cell_length_b 16.90680
_cell_length_c 16.24000
_cell_angle_alpha 90.00000
_cell_angle_beta  121.36000
_cell_angle_gamma 90.00000
_space_group_name_H-M_alt      'P 1'


loop_
_space_group_symop_operation_xyz
  'x, y, z' 

loop_
_atom_site_label
_atom_site_fract_x
_atom_site_fract_y
_atom_site_fract_z
_atom_site_type_symbol
N          0.0   0.3807      0.0     N
Mn         0.0      0.5      0.0    Mn
N          0.0   0.6193      0.0     N
C       0.0033   0.2547   0.9617     C
C       0.0033   0.7453   0.9617     C
C       0.0052    0.331   0.9353     C
C       0.0052    0.669   0.9353     C
H       0.0061   0.2098   0.9307     H
H       0.0061   0.7902   0.9307     H
N       0.0179      0.5   0.8914     N
C       0.0199   0.3552   0.8666     C
C       0.0199   0.6448   0.8666     C
C       0.0205   0.2936   0.8018     C
C       0.0205   0.7064   0.8018     C
C       0.0228   0.1075   0.6225     C
C       0.0228   0.8925   0.6225     C
C       0.0251   0.4337   0.8432     C
C       0.0251   0.5663   0.8432     C
C       0.0253   0.1735   0.6867     C
C       0.0253   0.8265   0.6867     C
C       0.0319   0.3592   0.4942     C
C       0.0319   0.6408   0.4942     C
C       0.0323      0.5   0.4962     C
O       0.0358   0.0827   0.4411     O
O       0.0358   0.9173   0.4411     O
C        0.037    0.263   0.2715     C
C        0.037    0.737   0.2715     C
C       0.0373   0.2035   0.3292     C
C       0.0373   0.7965   0.3292     C
C       0.0386   0.4621    0.772     C
C       0.0386   0.5379    0.772     C
H       0.0464   0.4305   0.7314     H
H       0.0464   0.5695   0.7314     H
H       0.0531   0.3123   0.4922     H
H       0.0531   0.6877   0.4922     H
C       0.0564   0.4286   0.4871     C
C       0.0564   0.5714   0.4871     C
Zn      0.0782      0.0  0.54794    Zn
H       0.0801   0.1837   0.3791     H
H       0.0801   0.8163   0.3791     H
H       0.0806   0.2831   0.2854     H
H       0.0806   0.7169   0.2854     H
O       0.0813   0.0844   0.6351     O
O       0.0813   0.9156   0.6351     O
C       0.0823   0.2015   0.7583     C
C       0.0823   0.7985   0.7583     C
C       0.0839   0.2634   0.8171     C
C       0.0839   0.7366   0.8171     C
H       0.1196      0.0   0.4075     H
C       0.1204   0.4251   0.4735     C
C       0.1204   0.5749   0.4735     C
H       0.1253   0.1795   0.7723     H
H       0.1253   0.8205   0.7723     H
H        0.127   0.2838   0.8657     H
H        0.127   0.7162   0.8657     H
N       0.1437      0.5   0.4638     N
O       0.1482   0.3655   0.4707     O
O       0.1482   0.6345   0.4707     O
H       0.1555      0.5   0.3135     H
C       0.1641      0.0   0.4638     C
N       0.1722      0.0   0.5524     N
C       0.1992      0.5    0.371     C
C       0.2039      0.5   0.4532     C
H       0.2277      0.0   0.4038     H
C       0.2302      0.0   0.4627     C
C       0.2332      0.0   0.6278     C
H       0.2359      0.0   0.6869     H
H       0.2641      0.5   0.3131     H
C       0.2668      0.5   0.3722     C
C       0.2698      0.5   0.5373     C
H       0.2723      0.5   0.5962     H
C       0.2961      0.0   0.5468     C
C       0.3008      0.0    0.629     C
N       0.3278      0.5   0.4476     N
C       0.3359      0.5   0.5362     C
H       0.3445      0.0   0.6865     H
O       0.3518   0.1345   0.5293     O
O       0.3518   0.8655   0.5293     O
N       0.3563      0.0   0.5362     N
H        0.373   0.2162   0.1343     H
H        0.373   0.7838   0.1343     H
H       0.3747   0.3205   0.2277     H
H       0.3747   0.6795   0.2277     H
C       0.3796   0.0749   0.5265     C
C       0.3796   0.9251   0.5265     C
H       0.3804      0.5   0.5925     H
C       0.4161   0.2366   0.1829     C
C       0.4161   0.7634   0.1829     C
C       0.4177   0.2985   0.2417     C
C       0.4177   0.7015   0.2417     C
O       0.4187   0.4156   0.3649     O
O       0.4187   0.5844   0.3649     O
H       0.4194   0.2169   0.7146     H
H       0.4194   0.7831   0.7146     H
H       0.4199   0.3163   0.6209     H
H       0.4199   0.6837   0.6209     H
Zn      0.4218      0.5  0.45206    Zn
C       0.4436   0.0714   0.5129     C
C       0.4436   0.9286   0.5129     C
H       0.4469   0.1877   0.5078     H
H       0.4469   0.8123   0.5078     H
H       0.4536   0.0695   0.2686     H
H       0.4536   0.9305   0.2686     H
C       0.4614   0.0379    0.228     C
C       0.4614   0.9621    0.228     C
C       0.4627   0.2965   0.6708     C
C       0.4627   0.7035   0.6708     C
C        0.463    0.237   0.7285     C
C        0.463    0.763   0.7285     C
O       0.4642   0.4173   0.5589     O
O       0.4642   0.5827   0.5589     O
C       0.4677      0.0   0.5038     C
C       0.4681   0.1408   0.5058     C
C       0.4681   0.8592   0.5058     C
C       0.4747   0.3265   0.3133     C
C       0.4747   0.6735   0.3133     C
C       0.4749   0.0663   0.1568     C
C       0.4749   0.9337   0.1568     C
C       0.4772   0.3925   0.3775     C
C       0.4772   0.6075   0.3775     C
C       0.4795   0.2064   0.1982     C
C       0.4795   0.7936   0.1982     C
C       0.4801   0.1448   0.1334     C
C       0.4801   0.8552   0.1334     C
N       0.4821      0.0   0.1086     N
H       0.4939   0.2902   0.0693     H
H       0.4939   0.7098   0.0693     H
C       0.4948    0.169   0.0647     C
C       0.4948    0.831   0.0647     C
C       0.4967   0.2453   0.0383     C
C       0.4967   0.7547   0.0383     C
Mn         0.5      0.0      0.0    Mn
N          0.5   0.1193      0.0     N
N          0.5   0.8807      0.0     N
C       0.5033   0.2453   0.9617     C
C       0.5033   0.7547   0.9617     C
C       0.5052    0.169   0.9353     C
C       0.5052    0.831   0.9353     C
H       0.5061   0.2902   0.9307     H
H       0.5061   0.7098   0.9307     H
N       0.5179      0.0   0.8914     N
C       0.5199   0.1448   0.8666     C
C       0.5199   0.8552   0.8666     C
C       0.5205   0.2064   0.8018     C
C       0.5205   0.7936   0.8018     C
C       0.5228   0.3925   0.6225     C
C       0.5228   0.6075   0.6225     C
C       0.5251   0.0663   0.8432     C
C       0.5251   0.9337   0.8432     C
C       0.5253   0.3265   0.6867     C
C       0.5253   0.6735   0.6867     C
C       0.5319   0.1408   0.4942     C
C       0.5319   0.8592   0.4942     C
C       0.5323      0.0   0.4962     C
O       0.5358   0.4173   0.4411     O
O       0.5358   0.5827   0.4411     O
C        0.537    0.237   0.2715     C
C        0.537    0.763   0.2715     C
C       0.5373   0.2965   0.3292     C
C       0.5373   0.7035   0.3292     C
C       0.5386   0.0379    0.772     C
C       0.5386   0.9621    0.772     C
H       0.5464   0.0695   0.7314     H
H       0.5464   0.9305   0.7314     H
H       0.5531   0.1877   0.4922     H
H       0.5531   0.8123   0.4922     H
C       0.5564   0.0714   0.4871     C
C       0.5564   0.9286   0.4871     C
Zn      0.5782      0.5  0.54794    Zn
H       0.5801   0.3163   0.3791     H
H       0.5801   0.6837   0.3791     H
H       0.5806   0.2169   0.2854     H
H       0.5806   0.7831   0.2854     H
O       0.5813   0.4156   0.6351     O
O       0.5813   0.5844   0.6351     O
C       0.5823   0.2985   0.7583     C
C       0.5823   0.7015   0.7583     C
C       0.5839   0.2366   0.8171     C
C       0.5839   0.7634   0.8171     C
H       0.6196      0.5   0.4075     H
C       0.6204   0.0749   0.4735     C
C       0.6204   0.9251   0.4735     C
H       0.6253   0.3205   0.7723     H
H       0.6253   0.6795   0.7723     H
H        0.627   0.2162   0.8657     H
H        0.627   0.7838   0.8657     H
N       0.6437      0.0   0.4638     N
O       0.6482   0.1345   0.4707     O
O       0.6482   0.8655   0.4707     O
H       0.6555      0.0   0.3135     H
C       0.6641      0.5   0.4638     C
N       0.6722      0.5   0.5524     N
C       0.6992      0.0    0.371     C
C       0.7039      0.0   0.4532     C
H       0.7277      0.5   0.4038     H
C       0.7302      0.5   0.4627     C
C       0.7332      0.5   0.6278     C
H       0.7359      0.5   0.6869     H
H       0.7641      0.0   0.3131     H
C       0.7668      0.0   0.3722     C
C       0.7698      0.0   0.5373     C
H       0.7723      0.0   0.5962     H
C       0.7961      0.5   0.5468     C
C       0.8008      0.5    0.629     C
N       0.8278      0.0   0.4476     N
C       0.8359      0.0   0.5362     C
H       0.8445      0.5   0.6865     H
O       0.8518   0.3655   0.5293     O
O       0.8518   0.6345   0.5293     O
N       0.8563      0.5   0.5362     N
H        0.873   0.2838   0.1343     H
H        0.873   0.7162   0.1343     H
H       0.8747   0.1795   0.2277     H
H       0.8747   0.8205   0.2277     H
C       0.8796   0.4251   0.5265     C
C       0.8796   0.5749   0.5265     C
H       0.8804      0.0   0.5925     H
C       0.9161   0.2634   0.1829     C
C       0.9161   0.7366   0.1829     C
C       0.9177   0.2015   0.2417     C
C       0.9177   0.7985   0.2417     C
O       0.9187   0.0844   0.3649     O
O       0.9187   0.9156   0.3649     O
H       0.9194   0.2831   0.7146     H
H       0.9194   0.7169   0.7146     H
H       0.9199   0.1837   0.6209     H
H       0.9199   0.8163   0.6209     H
Zn      0.9218      0.0  0.45206    Zn
C       0.9436   0.4286   0.5129     C
C       0.9436   0.5714   0.5129     C
H       0.9469   0.3123   0.5078     H
H       0.9469   0.6877   0.5078     H
H       0.9536   0.4305   0.2686     H
H       0.9536   0.5695   0.2686     H
C       0.9614   0.4621    0.228     C
C       0.9614   0.5379    0.228     C
C       0.9627   0.2035   0.6708     C
C       0.9627   0.7965   0.6708     C
C        0.963    0.263   0.7285     C
C        0.963    0.737   0.7285     C
O       0.9642   0.0827   0.5589     O
O       0.9642   0.9173   0.5589     O
C       0.9677      0.5   0.5038     C
C       0.9681   0.3592   0.5058     C
C       0.9681   0.6408   0.5058     C
C       0.9747   0.1735   0.3133     C
C       0.9747   0.8265   0.3133     C
C       0.9749   0.4337   0.1568     C
C       0.9749   0.5663   0.1568     C
C       0.9772   0.1075   0.3775     C
C       0.9772   0.8925   0.3775     C
C       0.9795   0.2936   0.1982     C
C       0.9795   0.7064   0.1982     C
C       0.9801   0.3552   0.1334     C
C       0.9801   0.6448   0.1334     C
N       0.9821      0.5   0.1086     N
H       0.9939   0.2098   0.0693     H
H       0.9939   0.7902   0.0693     H
C       0.9948    0.331   0.0647     C
C       0.9948    0.669   0.0647     C
C       0.9967   0.2547   0.0383     C
C       0.9967   0.7453   0.0383     C
