data_I
_chemical_name_common  '/home/zhangsd/repos/MofS-CGCNN/ML/data/SSD/clean_cifs/XILVIZ_clean'
_cell_length_a 13.37200
_cell_length_b 14.16400
_cell_length_c 16.71300
_cell_angle_alpha 69.62600
_cell_angle_beta  68.78600
_cell_angle_gamma 73.54400
_space_group_name_H-M_alt      'P 1'


loop_
_space_group_symop_operation_xyz
  'x, y, z' 

loop_
_atom_site_label
_atom_site_fract_x
_atom_site_fract_y
_atom_site_fract_z
_atom_site_type_symbol
O       0.0015   0.3411   0.1251     O
O       0.0331   0.3755     0.94     O
H       0.0415   0.2259    0.257     H
Zn     0.08223   0.5671  0.95932    Zn
H       0.0837   0.2346   0.8741     H
C       0.0859   0.3672    0.116     C
C       0.1099   0.2371   0.2497     C
C       0.1193   0.4083   0.8888     C
O       0.1316   0.4455   0.0585     O
C       0.1449   0.2548   0.8282     C
H        0.146   0.1266    0.368     H
C       0.1582   0.3095   0.1795     C
O       0.1618   0.4838    0.874     O
N       0.1696   0.6501   0.9379     N
C        0.174   0.1753    0.316     C
H       0.1769   0.5988   0.0814     H
H       0.1805   0.2831   0.4346     H
H       0.1842   0.1455   0.7621     H
C       0.1872   0.3415   0.8144     C
H        0.188    0.293   0.5731     H
C       0.2032   0.6457   0.0274     C
C        0.211   0.2006   0.7602     C
H       0.2132   0.7249   0.8316     H
C       0.2208   0.7172   0.8868     C
C       0.2308   0.2431   0.4652     C
C       0.2353   0.2487   0.5399     C
O        0.237   0.9788   0.9327     O
C       0.2556   0.3246   0.1672     C
H       0.2633   0.1331   0.9541     H
C       0.2713   0.7116    0.024     C
C       0.2771   0.1969    0.293     C
C       0.2822   0.3701   0.7535     C
H       0.2846   0.3761   0.1185     H
C        0.285   0.7881   0.8694     C
H       0.2908   0.6967   0.0757     H
C       0.2992   0.2188   0.6987     C
H       0.3101   0.4238   0.7526     H
C       0.3109   0.7915   0.9572     C
H       0.3112   0.8303   0.8126     H
C       0.3148   0.2668   0.2237     C
C       0.3202   0.1618   0.4385     C
C        0.327   0.9523   0.9525     C
C       0.3294   0.1717   0.5624     C
C       0.3296   0.1061   0.9667     C
C       0.3364   0.3072   0.6891     C
C       0.3434   0.1349    0.359     C
H       0.3448   0.2402   0.9722     H
C       0.3532   0.1542     0.64     C
N       0.3645   0.8529   0.9594     N
C        0.369    0.008   0.9712     C
N       0.3752   0.1119   0.5046     N
C       0.3782   0.1719   0.9791     C
H       0.3845   0.2781   0.2121     H
H       0.3964   0.3265   0.6413     H
H       0.4056   0.0491   0.2188     H
C       0.4191   0.0535   0.3399     C
C       0.4425   0.0198   0.2618     C
H       0.4435   0.0971   0.7818     H
C       0.4442   0.0765   0.6615     C
C        0.467    0.802   0.9831     C
C       0.4744   0.0604   0.7395     C
C       0.4772   0.9639   0.9928     C
C        0.478   0.1384    0.002     C
N       0.4945   0.9894   0.3881     N
O       0.4967   0.2918   0.0116     O
Mn         0.5      0.0      0.5    Mn
O       0.5033   0.7082   0.9884     O
N       0.5055   0.0106   0.6119     N
C        0.522   0.8616    0.998     C
C       0.5228   0.0361   0.0072     C
C       0.5256   0.9396   0.2605     C
C        0.533    0.198   0.0169     C
C       0.5558   0.9235   0.3385     C
H       0.5565   0.9029   0.2182     H
C       0.5575   0.9802   0.7382     C
C       0.5809   0.9465   0.6601     C
H       0.5944   0.9509   0.7812     H
H       0.6036   0.6735   0.3587     H
H       0.6155   0.7219   0.7879     H
C       0.6218   0.8281   0.0209     C
N       0.6248   0.8881   0.4954     N
C        0.631    0.992   0.0288     C
N       0.6355   0.1471   0.0406     N
C       0.6468   0.8458     0.36     C
H       0.6552   0.7598   0.0278     H
C       0.6566   0.8651    0.641     C
C       0.6636   0.6928   0.3109     C
C       0.6704   0.8939   0.0333     C
C       0.6706   0.8283   0.4376     C
C        0.673   0.0477   0.0475     C
C       0.6798   0.8382   0.5615     C
C       0.6852   0.7332   0.7763     C
H       0.6888   0.1697   0.1874     H
C       0.6891   0.2085   0.0428     C
H       0.6899   0.5762   0.2474     H
C       0.7008   0.7812   0.3013     C
H       0.7092   0.3033   0.9243     H
C        0.715   0.2119   0.1306     C
H       0.7154   0.6239   0.8815     H
C       0.7178   0.6299   0.2465     C
C       0.7229   0.8031    0.707     C
C       0.7287   0.2884    0.976     C
H       0.7367   0.8669   0.0459     H
C       0.7444   0.6754   0.8328     C
O        0.763   0.0212   0.0673     O
C       0.7647   0.7513   0.4601     C
C       0.7692   0.7569   0.5348     C
C       0.7792   0.2828   0.1132     C
H       0.7868   0.2751   0.1684     H
C        0.789   0.7994   0.2398     C
C       0.7968   0.3543   0.9726     C
H        0.812    0.707   0.4269     H
C       0.8128   0.6585   0.1856     C
H       0.8158   0.8545   0.2379     H
H       0.8195   0.7169   0.5654     H
H       0.8231   0.4012   0.9186     H
C        0.826   0.8247    0.684     C
N       0.8304   0.3499   0.0621     N
O       0.8382   0.5162    0.126     O
C       0.8418   0.6905   0.8205     C
H        0.854   0.8734    0.632     H
C       0.8551   0.7452   0.1718     C
O       0.8684   0.5545   0.9415     O
C       0.8807   0.5917   0.1112     C
C       0.8901   0.7629   0.7503     C
C       0.9141   0.6328    0.884     C
H       0.9163   0.7654   0.1259     H
Zn     0.91777   0.4329  0.04068    Zn
H       0.9585   0.7741    0.743     H
O       0.9669   0.6245     0.06     O
O       0.9985   0.6589   0.8749     O
