data_I
_chemical_name_common  '/home/zhangsd/repos/MofS-CGCNN/ML/data/SSD/clean_cifs/XIYYEL_clean'
_cell_length_a 15.37100
_cell_length_b 15.37100
_cell_length_c 15.37100
_cell_angle_alpha 90.00000
_cell_angle_beta  90.00000
_cell_angle_gamma 90.00000
_space_group_name_H-M_alt      'P 1'


loop_
_space_group_symop_operation_xyz
  'x, y, z' 

loop_
_atom_site_label
_atom_site_fract_x
_atom_site_fract_y
_atom_site_fract_z
_atom_site_type_symbol
O       0.0111   0.1363   0.6211     O
O       0.0111   0.8637   0.8789     O
C       0.0367   0.2133    0.625     C
C       0.0367   0.7867    0.875     C
O       0.1137   0.2389   0.6289     O
O       0.1137   0.7611   0.8711     O
O       0.1211   0.4889   0.8637     O
O       0.1211   0.5111   0.6363     O
Zn       0.125    0.375    0.625    Zn
C        0.125   0.4633   0.7867     C
C        0.125   0.5367   0.7133     C
Zn       0.125    0.625    0.875    Zn
O       0.1289   0.3863   0.7611     O
O       0.1289   0.6137   0.7389     O
O       0.1363   0.3789   0.4889     O
O       0.1363   0.6211   0.0111     O
C       0.2133    0.375   0.4633     C
C       0.2133    0.625   0.0367     C
O       0.2389   0.3711   0.3863     O
O       0.2389   0.6289   0.1137     O
O       0.2611   0.3711   0.6137     O
O       0.2611   0.6289   0.8863     O
C       0.2867    0.375   0.5367     C
C       0.2867    0.625   0.9633     C
O       0.3637   0.3789   0.5111     O
O       0.3637   0.6211   0.9889     O
O       0.3711   0.3863   0.2389     O
O       0.3711   0.6137   0.2611     O
Zn       0.375    0.375    0.375    Zn
C        0.375   0.4633   0.2133     C
C        0.375   0.5367   0.2867     C
Zn       0.375    0.625    0.125    Zn
O       0.3789   0.4889   0.1363     O
O       0.3789   0.5111   0.3637     O
O       0.3863   0.2389   0.3711     O
O       0.3863   0.7611   0.1289     O
C       0.4633   0.2133    0.375     C
C       0.4633   0.7867    0.125     C
O       0.4889   0.1363   0.3789     O
O       0.4889   0.8637   0.1211     O
O       0.5111   0.3637   0.3789     O
O       0.5111   0.6363   0.1211     O
C       0.5367   0.2867    0.375     C
C       0.5367   0.7133    0.125     C
O       0.6137   0.2611   0.3711     O
O       0.6137   0.7389   0.1289     O
O       0.6211   0.0111   0.1363     O
O       0.6211   0.9889   0.3637     O
C        0.625   0.0367   0.2133     C
Zn       0.625    0.125    0.375    Zn
Zn       0.625    0.875    0.125    Zn
C        0.625   0.9633   0.2867     C
O       0.6289   0.1137   0.2389     O
O       0.6289   0.8863   0.2611     O
O       0.6363   0.1211   0.5111     O
O       0.6363   0.8789   0.9889     O
C       0.7133    0.125   0.5367     C
C       0.7133    0.875   0.9633     C
O       0.7389   0.1289   0.6137     O
O       0.7389   0.8711   0.8863     O
O       0.7611   0.1289   0.3863     O
O       0.7611   0.8711   0.1137     O
C       0.7867    0.125   0.4633     C
C       0.7867    0.875   0.0367     C
O       0.8637   0.1211   0.4889     O
O       0.8637   0.8789   0.0111     O
O       0.8711   0.1137   0.7611     O
O       0.8711   0.8863   0.7389     O
C        0.875   0.0367   0.7867     C
Zn       0.875    0.125    0.625    Zn
Zn       0.875    0.875    0.875    Zn
C        0.875   0.9633   0.7133     C
O       0.8789   0.0111   0.8637     O
O       0.8789   0.9889   0.6363     O
O       0.8863   0.2611   0.6289     O
O       0.8863   0.7389   0.8711     O
C       0.9633   0.2867    0.625     C
C       0.9633   0.7133    0.875     C
O       0.9889   0.3637   0.6211     O
O       0.9889   0.6363   0.8789     O
