data_I
_chemical_name_common  '/home/zhangsd/repos/MofS-CGCNN/ML/data/SSD/clean_cifs/XOCWOD_clean'
_cell_length_a 10.51360
_cell_length_b 11.46500
_cell_length_c 13.41750
_cell_angle_alpha 69.08400
_cell_angle_beta  78.60700
_cell_angle_gamma 63.54200
_space_group_name_H-M_alt      'P 1'


loop_
_space_group_symop_operation_xyz
  'x, y, z' 

loop_
_atom_site_label
_atom_site_fract_x
_atom_site_fract_y
_atom_site_fract_z
_atom_site_type_symbol
U          0.0      0.5      0.5     U
C       0.0021   0.6565   0.1472     C
C       0.0133   0.2673   0.7854     C
H       0.0968   0.3586   0.9584     H
C       0.1063   0.7088   0.2745     C
C       0.1111   0.3129   0.9095     C
O       0.1139   0.6364   0.3731     O
O       0.1346   0.2504   0.5212     O
C       0.1391   0.5382   0.1408     C
C       0.1468   0.1661   0.7745     C
O       0.1505   0.4626   0.0863     O
H        0.158   0.1126   0.7325     H
O       0.1869   0.7643   0.2291     O
O       0.2392   0.5036   0.1983     O
C        0.246   0.2151   0.8948     C
C       0.2555   0.2546   0.4921     C
C       0.2657   0.1413   0.8247     C
O       0.2671    0.366    0.466     O
H       0.2874   0.0015   0.5842     H
O        0.327   0.1971   0.0514     O
C       0.3622   0.1944   0.9557     C
C       0.3737   0.0006   0.5499     C
U      0.37696  0.28657   0.1636     U
C       0.3836   0.1241   0.4946     C
Er     0.40114  0.76955  0.24985    Er
C       0.4068   0.0416   0.7958     C
O       0.4097   0.7016   0.5808     O
O       0.4185     0.92   0.8193     O
C        0.468   0.7475   0.6213     C
O       0.4841   0.1769   0.9168     O
C        0.487   0.8762   0.5561     C
O       0.4961   0.9216   0.2464     O
O       0.4992   0.3061   0.2819     O
O       0.5008   0.6939   0.7181     O
O       0.5039   0.0784   0.7536     O
C        0.513   0.1238   0.4439     C
O       0.5159   0.8231   0.0832     O
C        0.532   0.2525   0.3787     C
O       0.5815     0.08   0.1807     O
O       0.5903   0.2984   0.4192     O
C       0.5932   0.9584   0.2042     C
Er     0.59886  0.23045  0.75015    Er
C       0.6164   0.8759   0.5054     C
U      0.62304  0.71343   0.8364     U
C       0.6263   0.9994   0.4501     C
C       0.6378   0.8056   0.0443     C
O        0.673   0.8029   0.9486     O
H       0.7126   0.9985   0.4158     H
O       0.7329    0.634    0.534     O
C       0.7343   0.8587   0.1753     C
C       0.7445   0.7454   0.5079     C
C        0.754   0.7849   0.1052     C
O       0.7608   0.4964   0.8017     O
O       0.8131   0.2357   0.7709     O
H        0.842   0.8874   0.2675     H
O       0.8495   0.5374   0.9137     O
C       0.8532   0.8339   0.2255     C
C       0.8609   0.4618   0.8592     C
O       0.8654   0.7496   0.4788     O
O       0.8861   0.3636   0.6269     O
C       0.8889   0.6871   0.0905     C
C       0.8937   0.2912   0.7255     C
H       0.9032   0.6414   0.0416     H
C       0.9867   0.7327   0.2146     C
C       0.9979   0.3435   0.8528     C
