data_I
_chemical_name_common  '/home/zhangsd/repos/MofS-CGCNN/ML/data/SSD/clean_cifs/XOJWEZ_clean'
_cell_length_a  7.18100
_cell_length_b 11.35110
_cell_length_c 11.35110
_cell_angle_alpha 66.32210
_cell_angle_beta  71.56000
_cell_angle_gamma 71.55990
_space_group_name_H-M_alt      'P 1'


loop_
_space_group_symop_operation_xyz
  'x, y, z' 

loop_
_atom_site_label
_atom_site_fract_x
_atom_site_fract_y
_atom_site_fract_z
_atom_site_type_symbol
N      0.04106  0.04444  0.25024     N
H       0.0433   0.1519   0.5587     H
C       0.0475   0.0646   0.1252     C
C       0.0485   0.6691   0.3575     C
H       0.0591   0.6495   0.2805     H
H       0.0718   0.8229   0.8715     H
H       0.0749    0.755   0.3312     H
C       0.0751   0.3309   0.6425     C
C       0.0878   0.8509   0.9363     C
H       0.1337   0.7751   0.0067     H
H       0.1447   0.6044   0.4066     H
H       0.1557   0.3956   0.5934     H
H       0.1611    0.245   0.6688     H
N       0.2214   0.9685   0.2733     N
C       0.2373   0.9354   0.8748     C
C       0.2374   0.0016   0.0682     C
H       0.2539   0.9413   0.3481     H
H       0.2662   0.6285   0.6771     H
C       0.3072   0.9984   0.9318     C
H        0.332   0.5291   0.5999     H
N      0.33574  0.95556  0.74976     N
Cu     0.34052  0.88889  0.61111    Cu
C       0.3446     0.94    0.167     C
C        0.375   0.5637   0.6491     C
H       0.4155   0.4933   0.7249     H
C       0.4516     0.06    0.833     C
H        0.461   0.4709   0.4001     H
N       0.4632   0.0315   0.7267     N
H       0.4891   0.2195   0.8505     H
Br     0.49303  0.09474  0.40526    Br
N      0.54106  0.75024  0.54444     N
H       0.5433   0.0587   0.6519     H
C       0.5475   0.6252   0.5646     C
C       0.5485   0.8575   0.1691     C
H       0.5591   0.7805   0.1495     H
H       0.5718   0.3715   0.3229     H
H       0.5749   0.8312    0.255     H
C       0.5751   0.1425   0.8309     C
C       0.5878   0.4363   0.3509     C
H       0.6337   0.5067   0.2751     H
H       0.6447   0.9066   0.1044     H
H       0.6557   0.0934   0.8956     H
H       0.6611   0.1688    0.745     H
N       0.7214   0.7733   0.4685     N
C       0.7373   0.3748   0.4354     C
C       0.7374   0.5682   0.5016     C
H       0.7539   0.8481   0.4413     H
H       0.7662   0.1771   0.1285     H
C       0.8072   0.4318   0.4984     C
H        0.832   0.0999   0.0291     H
N      0.83574  0.24976  0.45556     N
Cu     0.84052  0.11111  0.38889    Cu
C       0.8446    0.667     0.44     C
C        0.875   0.1491   0.0637     C
H       0.9155   0.2249   0.9933     H
C       0.9516    0.333     0.56     C
H        0.961   0.9001   0.9709     H
N       0.9632   0.2267   0.5315     N
H       0.9891   0.3505   0.7195     H
Br     0.99303  0.90526  0.59474    Br
