data_I
_chemical_name_common  '/home/zhangsd/repos/MofS-CGCNN/ML/data/SSD/clean_cifs/XOTGUI_clean'
_cell_length_a  9.02790
_cell_length_b 18.13620
_cell_length_c  8.56310
_cell_angle_alpha 90.00000
_cell_angle_beta  102.73500
_cell_angle_gamma 90.00000
_space_group_name_H-M_alt      'P 1'


loop_
_space_group_symop_operation_xyz
  'x, y, z' 

loop_
_atom_site_label
_atom_site_fract_x
_atom_site_fract_y
_atom_site_fract_z
_atom_site_type_symbol
O       0.0099    0.596   0.4962     O
O       0.0099    0.904   0.9962     O
C       0.0574   0.5313   0.4973     C
C       0.0574   0.9687   0.9973     C
O       0.1433   0.2324   0.1346     O
O       0.1433   0.2676   0.6346     O
O       0.1476   0.1745   0.8028     O
O       0.1476   0.3255   0.3028     O
O       0.1899   0.5129   0.4959     O
O       0.1899   0.9871   0.9959     O
C       0.2036    0.231   0.7536     C
C       0.2036    0.269   0.2536     C
Nd     0.26854  0.11924  0.06426    Nd
Nd     0.26854  0.38077  0.56426    Nd
C       0.3621    0.243   0.3512     C
C       0.3621    0.257   0.8512     C
O       0.4031   0.0647   0.8643     O
O       0.4031   0.4353   0.3643     O
O       0.4164   0.1866   0.3027     O
O       0.4164   0.3134   0.8027     O
O       0.4207   0.2186   0.9712     O
O       0.4207   0.2814   0.4712     O
C       0.4751    0.007   0.9087     C
C       0.4751    0.493   0.4087     C
O       0.4879   0.0409   0.1806     O
O       0.4879   0.4591   0.6806     O
O       0.5121   0.5409   0.3194     O
O       0.5121   0.9591   0.8194     O
C       0.5249    0.507   0.5913     C
C       0.5249    0.993   0.0913     C
O       0.5793   0.7186   0.5288     O
O       0.5793   0.7814   0.0288     O
O       0.5836   0.6866   0.1973     O
O       0.5836   0.8134   0.6973     O
O       0.5969   0.5647   0.6357     O
O       0.5969   0.9353   0.1357     O
C       0.6379    0.743   0.1488     C
C       0.6379    0.757   0.6488     C
Nd     0.73146  0.61924  0.43574    Nd
Nd     0.73146  0.88077  0.93574    Nd
C       0.7964    0.731   0.7464     C
C       0.7964    0.769   0.2464     C
O       0.8101   0.0129   0.0041     O
O       0.8101   0.4871   0.5041     O
O       0.8524   0.6745   0.6972     O
O       0.8524   0.8255   0.1972     O
O       0.8567   0.7324   0.3654     O
O       0.8567   0.7676   0.8654     O
C       0.9426   0.0313   0.0027     C
C       0.9426   0.4687   0.5027     C
O       0.9901    0.096   0.0038     O
O       0.9901    0.404   0.5038     O
