data_I
_chemical_name_common  '/home/zhangsd/repos/MofS-CGCNN/ML/data/SSD/clean_cifs/XOVVOU_clean'
_cell_length_a 13.73260
_cell_length_b 13.73260
_cell_length_c 14.08220
_cell_angle_alpha 87.48100
_cell_angle_beta  87.48100
_cell_angle_gamma 60.13790
_space_group_name_H-M_alt      'P 1'


loop_
_space_group_symop_operation_xyz
  'x, y, z' 

loop_
_atom_site_label
_atom_site_fract_x
_atom_site_fract_y
_atom_site_fract_z
_atom_site_type_symbol
N       0.0127   0.5123   0.7605     N
C       0.0144   0.9856     0.75     C
C        0.015   0.8892   0.7864     C
Zn     0.02332  0.56112  0.88988    Zn
O      0.02968  0.69788   0.8648     O
H       0.0503   0.1079   0.1887     H
N       0.0508    0.487   0.3819     N
N       0.0619   0.4779   0.6075     N
C       0.0765   0.4669     0.29     C
O       0.0902   0.8222   0.2725     O
N       0.0923   0.9077     0.25     N
C       0.0965   0.4769    0.694     C
H       0.1079   0.0503   0.6887     H
C       0.1108    0.985   0.7136     C
C       0.1163   0.7887   0.7844     C
C       0.1185   0.6829   0.8203     C
N       0.1238   0.3844   0.0414     N
N      0.14387  0.43367   0.9617     N
H       0.1482   0.4412   0.2638     H
Zn     0.15365  0.46203  0.48721    Zn
H       0.1706   0.4542   0.7076     H
O       0.1778   0.9098   0.2275     O
O      0.19913  0.59033   0.8059     O
C       0.2113   0.8837   0.7156     C
C       0.2128   0.7872     0.75     C
C        0.221    0.291   0.0587     C
H       0.2309   0.2405   0.1087     H
H       0.2405   0.2309   0.6087     H
C       0.2502   0.3678    0.937     C
N       0.2782   0.3014   0.4967     N
H       0.2803   0.7197     0.75     H
H       0.2855   0.3815   0.8845     H
C        0.291    0.221   0.5587     C
N       0.3014   0.2782   0.9967     N
O      0.30212  0.97032   0.6352     O
C       0.3171   0.8815   0.6797     C
C       0.3678   0.2502    0.437     C
H       0.3815   0.2855   0.3845     H
N       0.3844   0.1238   0.5414     N
O      0.40967  0.80087   0.6941     O
N      0.43367  0.14387   0.4617     N
Zn     0.43888  0.97668  0.61012    Zn
H       0.4412   0.1482   0.7638     H
H       0.4542   0.1706   0.2076     H
Zn     0.46203  0.15365  0.98721    Zn
C       0.4669   0.0765     0.79     C
C       0.4769   0.0965    0.194     C
N       0.4779   0.0619   0.1075     N
N        0.487   0.0508   0.8819     N
N       0.4877   0.9873   0.7395     N
N       0.5123   0.0127   0.2605     N
N        0.513   0.9492   0.1181     N
N       0.5221   0.9381   0.8925     N
C       0.5231   0.9035    0.806     C
C       0.5331   0.9235     0.21     C
Zn     0.53797  0.84635  0.01279    Zn
H       0.5458   0.8294   0.7924     H
H       0.5588   0.8518   0.2362     H
Zn     0.56112  0.02332  0.38988    Zn
N      0.56633  0.85613   0.5383     N
O      0.59033  0.19913   0.3059     O
N       0.6156   0.8762   0.4586     N
H       0.6185   0.7145   0.6155     H
C       0.6322   0.7498    0.563     C
C       0.6829   0.1185   0.3203     C
O      0.69788  0.02968   0.3648     O
N       0.6986   0.7218   0.0033     N
C        0.709    0.779   0.4413     C
H       0.7145   0.6185   0.1155     H
H       0.7197   0.2803     0.25     H
N       0.7218   0.6986   0.5033     N
C       0.7498   0.6322    0.063     C
H       0.7595   0.7691   0.3913     H
H       0.7691   0.7595   0.8913     H
C        0.779    0.709   0.9413     C
C       0.7872   0.2128     0.25     C
C       0.7887   0.1163   0.2844     C
O      0.80087  0.40967   0.1941     O
O       0.8222   0.0902   0.7725     O
H       0.8294   0.5458   0.2924     H
Zn     0.84635  0.53797  0.51279    Zn
H       0.8518   0.5588   0.7362     H
N      0.85613  0.56633   0.0383     N
N       0.8762   0.6156   0.9586     N
C       0.8815   0.3171   0.1797     C
C       0.8837   0.2113   0.2156     C
C       0.8892    0.015   0.2864     C
H       0.8921   0.9497   0.3113     H
C       0.9035   0.5231    0.306     C
N       0.9077   0.0923     0.75     N
O       0.9098   0.1778   0.7275     O
C       0.9235   0.5331     0.71     C
N       0.9381   0.5221   0.3925     N
N       0.9492    0.513   0.6181     N
H       0.9497   0.8921   0.8113     H
O      0.97032  0.30212   0.1352     O
Zn     0.97668  0.43888  0.11012    Zn
C        0.985   0.1108   0.2136     C
C       0.9856   0.0144     0.25     C
N       0.9873   0.4877   0.2395     N
