data_I
_chemical_name_common  '/home/zhangsd/repos/MofS-CGCNN/ML/data/SSD/clean_cifs/XOVXAI_clean'
_cell_length_a 11.09800
_cell_length_b 11.19400
_cell_length_c 16.58700
_cell_angle_alpha 99.08500
_cell_angle_beta  109.29600
_cell_angle_gamma 91.09800
_space_group_name_H-M_alt      'P 1'


loop_
_space_group_symop_operation_xyz
  'x, y, z' 

loop_
_atom_site_label
_atom_site_fract_x
_atom_site_fract_y
_atom_site_fract_z
_atom_site_type_symbol
O       0.0015    0.069    0.765     O
N       0.0017   0.3452   0.1307     N
H       0.0037   0.2171   0.2895     H
O        0.004   0.1276   0.6003     O
C       0.0053   0.7464    0.828     C
C        0.014   0.2788   0.2603     C
H       0.0227   0.8259   0.8579     H
O       0.0265   0.6793    0.956     O
C       0.0325   0.0264   0.6201     C
C       0.0347   0.4622   0.1713     C
O       0.0401    0.069   0.4017     O
C       0.0413   0.5553   0.1156     C
C       0.0494   0.3993   0.3053     C
C       0.0579   0.4885   0.2651     C
O       0.0604   0.3883   0.9084     O
H        0.067   0.4154    0.365     H
Co     0.07936  0.23274  0.96403    Co
C       0.1023   0.6171   0.3052     C
H       0.1092   0.3392   0.6339     H
O       0.1107   0.8307   0.1106     O
O       0.1172   0.6911   0.2595     O
O       0.1207   0.6413   0.3857     O
C       0.1209    0.087   0.8092     C
O       0.1214   0.1019   0.0479     O
H       0.1226    0.898   0.0957     H
O       0.1414   0.5674   0.1025     O
C       0.1635    0.013   0.6753     C
O       0.1681   0.1444   0.8859     O
Co     0.17249  0.80943  0.46057    Co
Co     0.17774  0.86659  0.25096    Co
C       0.1941   0.3237   0.6599     C
H       0.1968   0.3807   0.7817     H
Co     0.20119  0.70816  0.04874    Co
O       0.2077   0.9727   0.5465     O
C       0.2111   0.0366   0.7638     C
O       0.2142   0.2561   0.5228     O
C       0.2398   0.1163   0.0949     C
Co     0.24146  0.08115  0.45632    Co
O       0.2434   0.0392   0.2419     O
C       0.2441   0.3468    0.748     C
O        0.248   0.9085   0.3897     O
N       0.2524   0.9861   0.6331     N
N       0.2622   0.2784   0.6066     N
O       0.2719   0.3178   0.0415     O
C       0.2751   0.1415   0.2897     C
O       0.2754   0.1664   0.3678     O
C       0.2826   0.2262   0.1598     C
N       0.3069   0.3238   0.1271     N
C       0.3081   0.2421    0.252     C
O       0.3231   0.0465   0.0863     O
H       0.3269   0.8955   0.4046     H
C       0.3355    0.017   0.8024     C
C       0.3558    0.435   0.1774     C
C       0.3627   0.3513   0.3009     C
O       0.3632    0.808   0.2656     O
H       0.3649   0.0276   0.8627     H
H       0.3652   0.5005   0.1512     H
C       0.3704   0.3173   0.7859     C
C       0.3773   0.9675   0.6729     C
O       0.3779   0.7212   0.1371     O
H       0.3821   0.3604   0.3607     H
C       0.3876   0.2584   0.6466     C
C       0.3912   0.4506   0.2672     C
H       0.4063   0.3289    0.846     H
C       0.4198   0.9843   0.7635     C
C       0.4216   0.7556   0.2206     C
H       0.4314   0.9449   0.6416     H
H       0.4316   0.5229   0.3027     H
O       0.4349   0.1125   0.5413     O
C       0.4423   0.2718   0.7367     C
C       0.4545   0.2228   0.5813     C
O       0.4737   0.6938   0.4251     O
H       0.4961    0.027   0.2047     H
H       0.5039    0.973   0.7953     H
O       0.5263   0.3062   0.5749     O
C       0.5455   0.7772   0.4187     C
C       0.5577   0.7282   0.2633     C
O       0.5651   0.8875   0.4587     O
H       0.5684   0.4771   0.6973     H
H       0.5686   0.0551   0.3584     H
C       0.5784   0.2444   0.7794     C
C       0.5802   0.0157   0.2365     C
H       0.5937   0.6711    0.154     H
C       0.6088   0.5494   0.7328     C
C       0.6124   0.7416   0.3534     C
H       0.6179   0.6396   0.6393     H
O       0.6221   0.2788   0.8629     O
C       0.6227   0.0325   0.3271     C
C       0.6296   0.6827   0.2141     C
H       0.6348   0.4995   0.8488     H
H       0.6351   0.9724   0.1373     H
O       0.6368    0.192   0.7344     O
C       0.6373   0.6487   0.6991     C
C       0.6442    0.565   0.8226     C
C       0.6645    0.983   0.1976     C
H       0.6731   0.1045   0.5954     H
O       0.6769   0.9535   0.9137     O
C       0.6919   0.7579    0.748     C
N       0.6931   0.6762   0.8729     N
C       0.7174   0.7738   0.8402     C
O       0.7246   0.8336   0.6322     O
C       0.7249   0.8585   0.7103     C
O       0.7281   0.6822   0.9585     O
N       0.7378   0.7216   0.3934     N
N       0.7476   0.0139   0.3669     N
O        0.752   0.0915   0.6103     O
C       0.7559   0.6532    0.252     C
O       0.7566   0.9608   0.7581     O
Co     0.75854  0.91885  0.54368    Co
C       0.7602   0.8837   0.9051     C
O       0.7858   0.7439   0.4772     O
C       0.7889   0.9634   0.2362     C
O       0.7923   0.0273   0.4535     O
Co     0.79881  0.29184  0.95126    Co
H       0.8032   0.6193   0.2183     H
C       0.8059   0.6763   0.3401     C
Co     0.82226  0.13341  0.74904    Co
Co     0.82751  0.19057  0.53943    Co
O       0.8319   0.8556   0.1141     O
C       0.8365    0.987   0.3247     C
O       0.8586   0.4326   0.8975     O
H       0.8774    0.102   0.9043     H
O       0.8786   0.8981   0.9521     O
C       0.8791    0.913   0.1908     C
O       0.8793   0.3587   0.6143     O
O       0.8828   0.3089   0.7405     O
O       0.8893   0.1693   0.8894     O
H       0.8908   0.6608   0.3661     H
C       0.8977   0.3829   0.6948     C
Co     0.92064  0.76726  0.03597    Co
H        0.933   0.5846    0.635     H
O       0.9396   0.6117   0.0916     O
C       0.9421   0.5115   0.7349     C
C       0.9506   0.6007   0.6947     C
C       0.9587   0.4447   0.8844     C
O       0.9599    0.931   0.5983     O
C       0.9653   0.5378   0.8287     C
C       0.9675   0.9736   0.3799     C
O       0.9735   0.3207    0.044     O
H       0.9773   0.1741   0.1421     H
C        0.986   0.7212   0.7397     C
C       0.9947   0.2536    0.172     C
O        0.996   0.8724   0.3997     O
H       0.9963   0.7829   0.7105     H
N       0.9983   0.6548   0.8693     N
O       0.9985    0.931    0.235     O
