data_I
_chemical_name_common  '/home/zhangsd/repos/MofS-CGCNN/ML/data/SSD/clean_cifs/XUJPEY_clean'
_cell_length_a 10.71100
_cell_length_b 13.79630
_cell_length_c 18.75110
_cell_angle_alpha 90.00000
_cell_angle_beta  98.15800
_cell_angle_gamma 90.00000
_space_group_name_H-M_alt      'P 1'


loop_
_space_group_symop_operation_xyz
  'x, y, z' 

loop_
_atom_site_label
_atom_site_fract_x
_atom_site_fract_y
_atom_site_fract_z
_atom_site_type_symbol
C       0.0023   0.1597  0.55842     C
C       0.0023   0.3403  0.05842     C
C       0.0077   0.2409  0.04456     C
C       0.0077   0.2591  0.54456     C
O       0.0382  0.04061  0.40137     O
O       0.0382  0.45939  0.90137     O
H       0.0779   0.1237   0.5704     H
H       0.0779   0.3763   0.0704     H
H       0.1022   0.6204   0.4794     H
H       0.1022   0.8796   0.9794     H
C       0.1055   0.6881  0.47071     C
C       0.1055   0.8119  0.97071     C
C       0.1137    0.614  0.94532     C
C       0.1137    0.886  0.44532     C
C       0.1209   0.5064  0.93342     C
C       0.1209   0.9936  0.43342     C
C       0.1309   0.1929  0.03925     C
C       0.1309   0.3071  0.53925     C
O       0.1319  0.10984  0.01226     O
O       0.1319  0.39016  0.51226     O
C       0.2209   0.7331  0.47319     C
C       0.2209   0.7669  0.97319     C
C       0.2245   0.6669  0.96119     C
C       0.2245   0.8331  0.46119     C
O      0.23001  0.24131  0.06147     O
O      0.23001  0.25869  0.56147     O
O       0.2316  0.02895  0.46491     O
O       0.2316  0.47105  0.96491     O
H       0.3036   0.6349   0.9639     H
H       0.3036   0.8651   0.4639     H
O      0.31788  0.19516   0.4324     O
O      0.31788  0.30484   0.9324     O
O        0.319  0.13383  0.65586     O
O        0.319  0.36617  0.15586     O
C       0.3447   0.6818  0.49093     C
C       0.3447   0.8182  0.99093     C
O      0.34687  0.59198  0.48147     O
O      0.34687  0.90802  0.98147     O
O       0.3545  0.19957  0.84731     O
O       0.3545  0.30043  0.34731     O
C       0.3558   0.2173  0.37298     C
C       0.3558   0.2827  0.87298     C
O      0.35831  0.10297  0.96977     O
O      0.35831  0.39703  0.46977     O
H       0.3854   0.2037   0.2358     H
H       0.3854   0.2963   0.7358     H
Ni       0.398   0.2323  0.02411    Ni
Ni       0.398   0.2677  0.52411    Ni
C       0.4095   0.1353  0.33316     C
C       0.4095   0.3647  0.83316     C
C       0.4163   0.1001  0.62732     C
C       0.4163   0.1461  0.25982     C
C       0.4163   0.3539  0.75982     C
C       0.4163   0.3999  0.12732     C
O      0.43681  0.73516  0.51428     O
O      0.43681  0.76484  0.01428     O
H       0.4459   0.0588   0.7683     H
H       0.4459   0.4412   0.2683     H
O      0.44942  0.13233  0.57242     O
O      0.44942  0.36767  0.07242     O
H       0.4508   0.0442   0.4178     H
H       0.4508   0.4558   0.9178     H
C       0.4576    0.053  0.36822     C
C       0.4576    0.447  0.86822     C
C       0.4676   0.0736  0.22147     C
C       0.4676   0.4264  0.72147     C
O       0.4701  0.17183  0.11897     O
O       0.4701  0.32817  0.61897     O
C       0.4706   0.0853  0.14124     C
C       0.4706   0.4147  0.64124     C
O      0.47321  0.00972  0.10483     O
O      0.47321  0.49028  0.60483     O
C       0.4815   0.0091  0.74253     C
C       0.4815   0.4909  0.24253     C
C        0.483   0.0185  0.66881     C
C        0.483   0.4815  0.16881     C
Ni         0.5      0.0      0.0    Ni
Ni         0.5      0.5      0.5    Ni
C        0.517   0.5185  0.83119     C
C        0.517   0.9815  0.33119     C
C       0.5185   0.5091  0.75747     C
C       0.5185   0.9909  0.25747     C
O      0.52679  0.50972  0.39517     O
O      0.52679  0.99028  0.89517     O
C       0.5294   0.5853  0.35876     C
C       0.5294   0.9147  0.85876     C
O       0.5299  0.67183  0.38103     O
O       0.5299  0.82817  0.88103     O
C       0.5324   0.5736  0.27853     C
C       0.5324   0.9264  0.77853     C
C       0.5424    0.553  0.13178     C
C       0.5424    0.947  0.63178     C
H       0.5492   0.5442   0.0822     H
H       0.5492   0.9558   0.5822     H
O      0.55058  0.63233  0.92758     O
O      0.55058  0.86767  0.42758     O
H       0.5541   0.5588   0.7317     H
H       0.5541   0.9412   0.2317     H
O      0.56319  0.23516  0.98572     O
O      0.56319  0.26484  0.48572     O
C       0.5837   0.6001  0.87268     C
C       0.5837   0.6461  0.24018     C
C       0.5837   0.8539  0.74018     C
C       0.5837   0.8999  0.37268     C
C       0.5905   0.6353  0.16684     C
C       0.5905   0.8647  0.66684     C
Ni       0.602   0.7323  0.47589    Ni
Ni       0.602   0.7677  0.97589    Ni
H       0.6146   0.7037   0.2642     H
H       0.6146   0.7963   0.7642     H
O      0.64169  0.60297  0.53023     O
O      0.64169  0.89703  0.03023     O
C       0.6442   0.7173  0.12702     C
C       0.6442   0.7827  0.62702     C
O       0.6455  0.69957  0.65269     O
O       0.6455  0.80043  0.15269     O
O      0.65313  0.09198  0.01853     O
O      0.65313  0.40802  0.51853     O
C       0.6553   0.1818  0.00907     C
C       0.6553   0.3182  0.50907     C
O        0.681  0.63383  0.84414     O
O        0.681  0.86617  0.34414     O
O      0.68212  0.69516   0.0676     O
O      0.68212  0.80484   0.5676     O
H       0.6964   0.1349   0.5361     H
H       0.6964   0.3651   0.0361     H
O       0.7684  0.52895  0.03509     O
O       0.7684  0.97105  0.53509     O
O      0.76999  0.74131  0.43853     O
O      0.76999  0.75869  0.93853     O
C       0.7755   0.1669  0.53881     C
C       0.7755   0.3331  0.03881     C
C       0.7791   0.2331  0.02681     C
C       0.7791   0.2669  0.52681     C
O       0.8681  0.60984  0.48774     O
O       0.8681  0.89016  0.98774     O
C       0.8691   0.6929  0.46075     C
C       0.8691   0.8071  0.96075     C
C       0.8791   0.0064  0.56658     C
C       0.8791   0.4936  0.06658     C
C       0.8863    0.114  0.55468     C
C       0.8863    0.386  0.05468     C
C       0.8945   0.1881  0.02929     C
C       0.8945   0.3119  0.52929     C
H       0.8978   0.1204   0.0206     H
H       0.8978   0.3796   0.5206     H
H       0.9221   0.6237   0.9296     H
H       0.9221   0.8763   0.4296     H
O       0.9618  0.54061  0.09863     O
O       0.9618  0.95939  0.59863     O
C       0.9923   0.7409  0.45544     C
C       0.9923   0.7591  0.95544     C
C       0.9977   0.6597  0.94158     C
C       0.9977   0.8403  0.44158     C
