data_I
_chemical_name_common  '/home/zhangsd/repos/MofS-CGCNN/ML/data/SSD/clean_cifs/XUJPOI_clean'
_cell_length_a 14.00860
_cell_length_b 16.33200
_cell_length_c 16.62200
_cell_angle_alpha 90.00000
_cell_angle_beta  90.00000
_cell_angle_gamma 90.00000
_space_group_name_H-M_alt      'P 1'


loop_
_space_group_symop_operation_xyz
  'x, y, z' 

loop_
_atom_site_label
_atom_site_fract_x
_atom_site_fract_y
_atom_site_fract_z
_atom_site_type_symbol
Ni         0.0      0.0      0.5    Ni
Ni         0.0      0.5      0.0    Ni
O       0.0042  0.62877  0.00144     O
O       0.0042  0.87123  0.50144     O
Ni     0.02632  0.67556  0.88934    Ni
Ni     0.02632  0.82444  0.38934    Ni
O      0.04746  0.73516  0.30384     O
O      0.04746  0.76484  0.80384     O
C      0.04815  0.18729  0.47714     C
C      0.04815  0.31271  0.97714     C
H       0.0536   0.2426   0.3664     H
H       0.0536   0.2574   0.8664     H
O      0.06128  0.50731  0.11069     O
O      0.06128  0.99269  0.61069     O
H       0.0615    0.145   0.3614     H
H       0.0615    0.355   0.8614     H
H       0.0637   0.6075   0.2233     H
H       0.0637   0.8925   0.7233     H
O      0.06753  0.24182   0.5276     O
O      0.06753  0.25818   0.0276     O
C      0.08157   0.1938  0.39127     C
C      0.08157   0.3062  0.89127     C
O      0.08225   0.1167  0.66622     O
O      0.08225   0.3833  0.16622     O
C      0.09061  0.03946  0.66385     C
C      0.09061  0.46054  0.16385     C
C      0.10771  0.70039  0.34831     C
C      0.10771  0.79961  0.84831     C
C      0.10947  0.57972  0.25543     C
C      0.10947  0.92028  0.75543     C
O       0.1264  0.59738  0.84994     O
O       0.1264  0.90262  0.34994     O
O      0.13306  0.50046  0.94737     O
O      0.13306  0.99954  0.44737     O
O      0.13326  0.73145  0.41405     O
O      0.13326  0.76855  0.91405     O
C      0.13842  0.50159  0.23421     C
C      0.13842  0.99841  0.73421     C
C      0.14662  0.61808   0.3233     C
C      0.14662  0.88192   0.8233     C
H       0.1513    0.198   0.3901     H
H       0.1513    0.302   0.8901     H
C      0.16182   0.5356  0.88434     C
C      0.16182   0.9644  0.38434     C
C      0.21062  0.03695  0.77827     C
C      0.21062  0.46305  0.27827     C
C      0.21905  0.57976  0.36688     C
C      0.21905  0.92024  0.86688     C
H       0.2309   0.0906   0.7641     H
H       0.2309   0.4094   0.2641     H
H       0.2455   0.6058   0.4129     H
H       0.2455   0.8942   0.9129     H
C       0.2474  0.00321  0.34273     C
C       0.2474  0.49679  0.84273     C
C       0.2526  0.50321  0.34273     C
C       0.2526  0.99679  0.84273     C
H       0.2545   0.1058   0.4129     H
H       0.2545   0.3942   0.9129     H
H       0.2691   0.5906   0.7641     H
H       0.2691   0.9094   0.2641     H
C      0.28095  0.07976  0.36688     C
C      0.28095  0.42024  0.86688     C
C      0.28938  0.53695  0.77827     C
C      0.28938  0.96305  0.27827     C
C      0.33818   0.0356  0.88434     C
C      0.33818   0.4644  0.38434     C
H       0.3487    0.698   0.3901     H
H       0.3487    0.802   0.8901     H
C      0.35338  0.11808   0.3233     C
C      0.35338  0.38192   0.8233     C
C      0.36158  0.00159  0.23421     C
C      0.36158  0.49841  0.73421     C
O      0.36674  0.23145  0.41405     O
O      0.36674  0.26855  0.91405     O
O      0.36694  0.00046  0.94737     O
O      0.36694  0.49954  0.44737     O
O       0.3736  0.09738  0.84994     O
O       0.3736  0.40262  0.34994     O
C      0.39053  0.07972  0.25543     C
C      0.39053  0.42028  0.75543     C
C      0.39229  0.20039  0.34831     C
C      0.39229  0.29961  0.84831     C
C      0.40939  0.53946  0.66385     C
C      0.40939  0.96054  0.16385     C
O      0.41775   0.6167  0.66622     O
O      0.41775   0.8833  0.16622     O
C      0.41843   0.6938  0.39127     C
C      0.41843   0.8062  0.89127     C
O      0.43247  0.74182   0.5276     O
O      0.43247  0.75818   0.0276     O
H       0.4363   0.1075   0.2233     H
H       0.4363   0.3925   0.7233     H
H       0.4385    0.645   0.3614     H
H       0.4385    0.855   0.8614     H
O      0.43872  0.00731  0.11069     O
O      0.43872  0.49269  0.61069     O
H       0.4464   0.7426   0.3664     H
H       0.4464   0.7574   0.8664     H
C      0.45185  0.68729  0.47714     C
C      0.45185  0.81271  0.97714     C
O      0.45254  0.23516  0.30384     O
O      0.45254  0.26484  0.80384     O
Ni     0.47368  0.17556  0.88934    Ni
Ni     0.47368  0.32444  0.38934    Ni
O       0.4958  0.12877  0.00144     O
O       0.4958  0.37123  0.50144     O
Ni         0.5      0.0      0.0    Ni
Ni         0.5      0.5      0.5    Ni
O       0.5042  0.62877  0.49856     O
O       0.5042  0.87123  0.99856     O
Ni     0.52632  0.67556  0.61066    Ni
Ni     0.52632  0.82444  0.11066    Ni
O      0.54746  0.73516  0.19616     O
O      0.54746  0.76484  0.69616     O
C      0.54815  0.18729  0.02286     C
C      0.54815  0.31271  0.52286     C
H       0.5536   0.2426   0.1336     H
H       0.5536   0.2574   0.6336     H
O      0.56128  0.50731  0.38931     O
O      0.56128  0.99269  0.88931     O
H       0.5615    0.145   0.1386     H
H       0.5615    0.355   0.6386     H
H       0.5637   0.6075   0.2767     H
H       0.5637   0.8925   0.7767     H
O      0.56753  0.24182   0.9724     O
O      0.56753  0.25818   0.4724     O
C      0.58157   0.1938  0.10873     C
C      0.58157   0.3062  0.60873     C
O      0.58225   0.1167  0.83378     O
O      0.58225   0.3833  0.33378     O
C      0.59061  0.03946  0.83615     C
C      0.59061  0.46054  0.33615     C
C      0.60771  0.70039  0.15169     C
C      0.60771  0.79961  0.65169     C
C      0.60947  0.57972  0.24457     C
C      0.60947  0.92028  0.74457     C
O       0.6264  0.59738  0.65006     O
O       0.6264  0.90262  0.15006     O
O      0.63306  0.50046  0.55263     O
O      0.63306  0.99954  0.05263     O
O      0.63326  0.73145  0.08595     O
O      0.63326  0.76855  0.58595     O
C      0.63842  0.50159  0.26579     C
C      0.63842  0.99841  0.76579     C
C      0.64662  0.61808   0.1767     C
C      0.64662  0.88192   0.6767     C
H       0.6513    0.198   0.1099     H
H       0.6513    0.302   0.6099     H
C      0.66182   0.5356  0.61566     C
C      0.66182   0.9644  0.11566     C
C      0.71062  0.03695  0.72173     C
C      0.71062  0.46305  0.22173     C
C      0.71905  0.57976  0.13312     C
C      0.71905  0.92024  0.63312     C
H       0.7309   0.0906   0.7359     H
H       0.7309   0.4094   0.2359     H
H       0.7455   0.6058   0.0871     H
H       0.7455   0.8942   0.5871     H
C       0.7474  0.00321  0.15727     C
C       0.7474  0.49679  0.65727     C
C       0.7526  0.50321  0.15727     C
C       0.7526  0.99679  0.65727     C
H       0.7545   0.1058   0.0871     H
H       0.7545   0.3942   0.5871     H
H       0.7691   0.5906   0.7359     H
H       0.7691   0.9094   0.2359     H
C      0.78095  0.07976  0.13312     C
C      0.78095  0.42024  0.63312     C
C      0.78938  0.53695  0.72173     C
C      0.78938  0.96305  0.22173     C
C      0.83818   0.0356  0.61566     C
C      0.83818   0.4644  0.11566     C
H       0.8487    0.698   0.1099     H
H       0.8487    0.802   0.6099     H
C      0.85338  0.11808   0.1767     C
C      0.85338  0.38192   0.6767     C
C      0.86158  0.00159  0.26579     C
C      0.86158  0.49841  0.76579     C
O      0.86674  0.23145  0.08595     O
O      0.86674  0.26855  0.58595     O
O      0.86694  0.00046  0.55263     O
O      0.86694  0.49954  0.05263     O
O       0.8736  0.09738  0.65006     O
O       0.8736  0.40262  0.15006     O
C      0.89053  0.07972  0.24457     C
C      0.89053  0.42028  0.74457     C
C      0.89229  0.20039  0.15169     C
C      0.89229  0.29961  0.65169     C
C      0.90939  0.53946  0.83615     C
C      0.90939  0.96054  0.33615     C
O      0.91775   0.6167  0.83378     O
O      0.91775   0.8833  0.33378     O
C      0.91843   0.6938  0.10873     C
C      0.91843   0.8062  0.60873     C
O      0.93247  0.74182   0.9724     O
O      0.93247  0.75818   0.4724     O
H       0.9363   0.1075   0.2767     H
H       0.9363   0.3925   0.7767     H
H       0.9385    0.645   0.1386     H
H       0.9385    0.855   0.6386     H
O      0.93872  0.00731  0.38931     O
O      0.93872  0.49269  0.88931     O
H       0.9464   0.7426   0.1336     H
H       0.9464   0.7574   0.6336     H
C      0.95185  0.68729  0.02286     C
C      0.95185  0.81271  0.52286     C
O      0.95254  0.23516  0.19616     O
O      0.95254  0.26484  0.69616     O
Ni     0.97368  0.17556  0.61066    Ni
Ni     0.97368  0.32444  0.11066    Ni
O       0.9958  0.12877  0.49856     O
O       0.9958  0.37123  0.99856     O
