data_I
_chemical_name_common  '/home/zhangsd/repos/MofS-CGCNN/ML/data/SSD/clean_cifs/XUJQAV_clean'
_cell_length_a 14.13490
_cell_length_b 16.29610
_cell_length_c 16.52400
_cell_angle_alpha 90.00000
_cell_angle_beta  90.00000
_cell_angle_gamma 90.00000
_space_group_name_H-M_alt      'P 1'


loop_
_space_group_symop_operation_xyz
  'x, y, z' 

loop_
_atom_site_label
_atom_site_fract_x
_atom_site_fract_y
_atom_site_fract_z
_atom_site_type_symbol
Ni         0.0      0.0      0.5    Ni
Ni         0.0      0.5      0.0    Ni
O      0.00589  0.12681  0.49895     O
O      0.00589  0.37319  0.99895     O
Ni     0.02728  0.17263  0.38602    Ni
Ni     0.02728  0.32737  0.88602    Ni
C        0.047  0.68656   0.9795     C
C        0.047  0.81344   0.4795     C
H       0.0485   0.7438   0.8693     H
H       0.0485   0.7562   0.3693     H
O      0.05129  0.23903  0.79906     O
O      0.05129  0.26097  0.29906     O
H       0.0561   0.6461   0.8625     H
H       0.0561   0.8539   0.3625     H
O      0.05962  0.00762  0.61133     O
O      0.05962  0.49238  0.11133     O
O      0.06654  0.74042  0.03075     O
O      0.06654  0.75958  0.53075     O
H         0.07   0.1114   0.7198     H
H         0.07   0.3886   0.2198     H
C      0.07701  0.69448  0.89282     C
C      0.07701  0.80552  0.39282     C
O      0.08198  0.61616  0.16901     O
O      0.08198  0.88384  0.66901     O
C      0.08987   0.5391  0.16545     C
C      0.08987   0.9609  0.66545     C
C      0.11163  0.20494  0.84502     C
C      0.11163  0.29506  0.34502     C
C      0.11333  0.08305  0.75374     C
C      0.11333  0.41695  0.25374     C
O      0.12485  0.09115  0.34715     O
O      0.12485  0.40885  0.84715     O
O      0.13333  0.50079  0.94907     O
O      0.13333  0.99921  0.44907     O
O      0.13573  0.23759  0.91087     O
O      0.13573  0.26241  0.41087     O
C      0.13894  0.00329   0.7352     C
C      0.13894  0.49671   0.2352     C
H       0.1461   0.6987     0.89     H
H       0.1461   0.8013     0.39     H
C      0.15028  0.12225  0.82145     C
C      0.15028  0.37775  0.32145     C
C      0.16179  0.03209  0.38431     C
C      0.16179  0.46791  0.88431     C
C      0.20818  0.53592  0.28068     C
C      0.20818  0.96408  0.78068     C
C      0.22011  0.08294  0.86651     C
C      0.22011  0.41706  0.36651     C
H       0.2254   0.5909   0.2687     H
H       0.2254   0.9091   0.7687     H
H       0.2458   0.1092   0.9129     H
H       0.2458   0.3908   0.4129     H
C      0.24756  0.50591  0.84428     C
C      0.24756  0.99409  0.34428     C
C      0.25244  0.00591  0.84428     C
C      0.25244  0.49409  0.34428     C
H       0.2542   0.6092   0.9129     H
H       0.2542   0.8908   0.4129     H
H       0.2746   0.0909   0.2687     H
H       0.2746   0.4091   0.7687     H
C      0.27989  0.58294  0.86651     C
C      0.27989  0.91706  0.36651     C
C      0.29182  0.03592  0.28068     C
C      0.29182  0.46408  0.78068     C
C      0.33821  0.53209  0.38431     C
C      0.33821  0.96791  0.88431     C
C      0.34972  0.62225  0.82145     C
C      0.34972  0.87775  0.32145     C
H       0.3539   0.1987     0.89     H
H       0.3539   0.3013     0.39     H
C      0.36106  0.50329   0.7352     C
C      0.36106  0.99671   0.2352     C
O      0.36427  0.73759  0.91087     O
O      0.36427  0.76241  0.41087     O
O      0.36667  0.00079  0.94907     O
O      0.36667  0.49921  0.44907     O
O      0.37515  0.59115  0.34715     O
O      0.37515  0.90885  0.84715     O
C      0.38667  0.58305  0.75374     C
C      0.38667  0.91695  0.25374     C
C      0.38837  0.70494  0.84502     C
C      0.38837  0.79506  0.34502     C
C      0.41013   0.0391  0.16545     C
C      0.41013   0.4609  0.66545     C
O      0.41802  0.11616  0.16901     O
O      0.41802  0.38384  0.66901     O
C      0.42299  0.19448  0.89282     C
C      0.42299  0.30552  0.39282     C
H         0.43   0.6114   0.7198     H
H         0.43   0.8886   0.2198     H
O      0.43346  0.24042  0.03075     O
O      0.43346  0.25958  0.53075     O
O      0.44038  0.50762  0.61133     O
O      0.44038  0.99238  0.11133     O
H       0.4439   0.1461   0.8625     H
H       0.4439   0.3539   0.3625     H
O      0.44871  0.73903  0.79906     O
O      0.44871  0.76097  0.29906     O
H       0.4515   0.2438   0.8693     H
H       0.4515   0.2562   0.3693     H
C        0.453  0.18656   0.9795     C
C        0.453  0.31344   0.4795     C
Ni     0.47272  0.67263  0.38602    Ni
Ni     0.47272  0.82737  0.88602    Ni
O      0.49411  0.62681  0.49895     O
O      0.49411  0.87319  0.99895     O
Ni         0.5      0.0      0.0    Ni
Ni         0.5      0.5      0.5    Ni
O      0.50589  0.12681  0.00105     O
O      0.50589  0.37319  0.50105     O
Ni     0.52728  0.17263  0.11398    Ni
Ni     0.52728  0.32737  0.61398    Ni
C        0.547  0.68656   0.5205     C
C        0.547  0.81344   0.0205     C
H       0.5485   0.7438   0.6307     H
H       0.5485   0.7562   0.1307     H
O      0.55129  0.23903  0.70094     O
O      0.55129  0.26097  0.20094     O
H       0.5561   0.6461   0.6375     H
H       0.5561   0.8539   0.1375     H
O      0.55962  0.00762  0.88867     O
O      0.55962  0.49238  0.38867     O
O      0.56654  0.74042  0.46925     O
O      0.56654  0.75958  0.96925     O
H         0.57   0.1114   0.7802     H
H         0.57   0.3886   0.2802     H
C      0.57701  0.69448  0.60718     C
C      0.57701  0.80552  0.10718     C
O      0.58198  0.61616  0.33099     O
O      0.58198  0.88384  0.83099     O
C      0.58987   0.5391  0.33455     C
C      0.58987   0.9609  0.83455     C
C      0.61163  0.20494  0.65498     C
C      0.61163  0.29506  0.15498     C
C      0.61333  0.08305  0.74626     C
C      0.61333  0.41695  0.24626     C
O      0.62485  0.09115  0.15285     O
O      0.62485  0.40885  0.65285     O
O      0.63333  0.50079  0.55093     O
O      0.63333  0.99921  0.05093     O
O      0.63573  0.23759  0.58913     O
O      0.63573  0.26241  0.08913     O
C      0.63894  0.00329   0.7648     C
C      0.63894  0.49671   0.2648     C
H       0.6461   0.6987     0.61     H
H       0.6461   0.8013     0.11     H
C      0.65028  0.12225  0.67855     C
C      0.65028  0.37775  0.17855     C
C      0.66179  0.03209  0.11569     C
C      0.66179  0.46791  0.61569     C
C      0.70818  0.53592  0.21932     C
C      0.70818  0.96408  0.71932     C
C      0.72011  0.08294  0.63349     C
C      0.72011  0.41706  0.13349     C
H       0.7254   0.5909   0.2313     H
H       0.7254   0.9091   0.7313     H
H       0.7458   0.1092   0.5871     H
H       0.7458   0.3908   0.0871     H
C      0.74756  0.50591  0.65572     C
C      0.74756  0.99409  0.15572     C
C      0.75244  0.00591  0.65572     C
C      0.75244  0.49409  0.15572     C
H       0.7542   0.6092   0.5871     H
H       0.7542   0.8908   0.0871     H
H       0.7746   0.0909   0.2313     H
H       0.7746   0.4091   0.7313     H
C      0.77989  0.58294  0.63349     C
C      0.77989  0.91706  0.13349     C
C      0.79182  0.03592  0.21932     C
C      0.79182  0.46408  0.71932     C
C      0.83821  0.53209  0.11569     C
C      0.83821  0.96791  0.61569     C
C      0.84972  0.62225  0.67855     C
C      0.84972  0.87775  0.17855     C
H       0.8539   0.1987     0.61     H
H       0.8539   0.3013     0.11     H
C      0.86106  0.50329   0.7648     C
C      0.86106  0.99671   0.2648     C
O      0.86427  0.73759  0.58913     O
O      0.86427  0.76241  0.08913     O
O      0.86667  0.00079  0.55093     O
O      0.86667  0.49921  0.05093     O
O      0.87515  0.59115  0.15285     O
O      0.87515  0.90885  0.65285     O
C      0.88667  0.58305  0.74626     C
C      0.88667  0.91695  0.24626     C
C      0.88837  0.70494  0.65498     C
C      0.88837  0.79506  0.15498     C
C      0.91013   0.0391  0.33455     C
C      0.91013   0.4609  0.83455     C
O      0.91802  0.11616  0.33099     O
O      0.91802  0.38384  0.83099     O
C      0.92299  0.19448  0.60718     C
C      0.92299  0.30552  0.10718     C
H         0.93   0.6114   0.7802     H
H         0.93   0.8886   0.2802     H
O      0.93346  0.24042  0.46925     O
O      0.93346  0.25958  0.96925     O
O      0.94038  0.50762  0.88867     O
O      0.94038  0.99238  0.38867     O
H       0.9439   0.1461   0.6375     H
H       0.9439   0.3539   0.1375     H
O      0.94871  0.73903  0.70094     O
O      0.94871  0.76097  0.20094     O
H       0.9515   0.2438   0.6307     H
H       0.9515   0.2562   0.1307     H
C        0.953  0.18656   0.5205     C
C        0.953  0.31344   0.0205     C
Ni     0.97272  0.67263  0.11398    Ni
Ni     0.97272  0.82737  0.61398    Ni
O      0.99411  0.62681  0.00105     O
O      0.99411  0.87319  0.50105     O
