data_I
_chemical_name_common  '/home/zhangsd/repos/MofS-CGCNN/ML/data/SSD/clean_cifs/XULCIR_clean'
_cell_length_a 11.62840
_cell_length_b 16.31480
_cell_length_c 17.88610
_cell_angle_alpha 90.00000
_cell_angle_beta  90.00000
_cell_angle_gamma 90.00000
_space_group_name_H-M_alt      'P 1'


loop_
_space_group_symop_operation_xyz
  'x, y, z' 

loop_
_atom_site_label
_atom_site_fract_x
_atom_site_fract_y
_atom_site_fract_z
_atom_site_type_symbol
C       0.0641      0.0      0.5     C
C       0.0641   0.1006   0.1888     C
C       0.0641   0.3994   0.6888     C
C       0.0641      0.5      0.0     C
C       0.0641   0.6006   0.3112     C
C       0.0641   0.8994   0.8112     C
H       0.0886   0.1679   0.2824     H
H       0.0886   0.3321   0.7824     H
H       0.0886   0.6679   0.2176     H
H       0.0886   0.8321   0.7176     H
H        0.089   0.0764   0.4147     H
H        0.089   0.4236   0.9147     H
H        0.089   0.5764   0.0853     H
H        0.089   0.9236   0.5853     H
H       0.0897   0.0336   0.0955     H
H       0.0897   0.4664   0.5955     H
H       0.0897   0.5336   0.4045     H
H       0.0897   0.9664   0.9045     H
C       0.1265   0.0446   0.4503     C
C       0.1265   0.1418   0.2433     C
C       0.1265   0.3582   0.7433     C
C       0.1265   0.4554   0.9503     C
C       0.1265   0.5446   0.0497     C
C       0.1265   0.6418   0.2567     C
C       0.1265   0.8582   0.7567     C
C       0.1265   0.9554   0.5497     C
C       0.1271   0.0625   0.1331     C
C       0.1271   0.4375   0.6331     C
C       0.1271   0.5625   0.3669     C
C       0.1271   0.9375   0.8669     C
N       0.2318   0.1978   0.9023     N
N       0.2318   0.3022   0.4023     N
N       0.2318   0.6978   0.5977     N
N       0.2318   0.8022   0.0977     N
C       0.2442   0.1439   0.2391     C
C       0.2442   0.3561   0.7391     C
C       0.2442   0.6439   0.2609     C
C       0.2442   0.8561   0.7609     C
C       0.2449   0.0431   0.4523     C
C       0.2449   0.4569   0.9523     C
C       0.2449   0.5431   0.0477     C
C       0.2449   0.9569   0.5477     C
C       0.2455   0.0675   0.1334     C
C       0.2455   0.4325   0.6334     C
C       0.2455   0.5675   0.3666     C
C       0.2455   0.9325   0.8666     C
H        0.284   0.1721   0.2761     H
H        0.284   0.3279   0.7761     H
H        0.284   0.6721   0.2239     H
H        0.284   0.8279   0.7239     H
H       0.2845   0.0747   0.4176     H
H       0.2845   0.4253   0.9176     H
H       0.2845   0.5747   0.0824     H
H       0.2845   0.9253   0.5824     H
H       0.2859   0.0412   0.0955     H
H       0.2859   0.4588   0.5955     H
H       0.2859   0.5412   0.4045     H
H       0.2859   0.9588   0.9045     H
N        0.305  0.10792   0.1853     N
N        0.305  0.39208   0.6853     N
N        0.305  0.60792   0.3147     N
N        0.305  0.89208   0.8147     N
N       0.3052      0.0      0.5     N
N       0.3052      0.5      0.0     N
C        0.331   0.1973   0.9016     C
C        0.331   0.3027   0.4016     C
C        0.331   0.6973   0.5984     C
C        0.331   0.8027   0.0984     C
Mn         0.5      0.0      0.5    Mn
N          0.5   0.0191   0.8486     N
C          0.5   0.0856   0.8674     C
Mn         0.5  0.11042  0.18173    Mn
N          0.5   0.1217     0.45     N
N          0.5   0.1485   0.0662     N
C          0.5   0.1644   0.0038     C
C          0.5   0.1897   0.4337     C
Fe         0.5  0.19794  0.90044    Fe
N          0.5   0.2294   0.2406     N
C          0.5   0.2384   0.7981     C
C          0.5   0.2616   0.2981     C
N          0.5   0.2706   0.7406     N
Fe         0.5  0.30206  0.40044    Fe
C          0.5   0.3103   0.9337     C
C          0.5   0.3356   0.5038     C
N          0.5   0.3515   0.5662     N
N          0.5   0.3783     0.95     N
Mn         0.5  0.38958  0.68173    Mn
C          0.5   0.4144   0.3674     C
N          0.5   0.4809   0.3486     N
Mn         0.5      0.5      0.0    Mn
N          0.5   0.5191   0.6514     N
C          0.5   0.5856   0.6326     C
Mn         0.5  0.61042  0.31827    Mn
N          0.5   0.6217     0.05     N
N          0.5   0.6485   0.4338     N
C          0.5   0.6644   0.4962     C
C          0.5   0.6897   0.0663     C
Fe         0.5  0.69794  0.59956    Fe
N          0.5   0.7294   0.2594     N
C          0.5   0.7384   0.7019     C
C          0.5   0.7616   0.2019     C
N          0.5   0.7706   0.7594     N
Fe         0.5  0.80206  0.09956    Fe
C          0.5   0.8103   0.5663     C
C          0.5   0.8356   0.9962     C
N          0.5   0.8515   0.9338     N
N          0.5   0.8783     0.55     N
Mn         0.5  0.88958  0.81827    Mn
C          0.5   0.9144   0.1326     C
N          0.5   0.9809   0.1514     N
C        0.669   0.1973   0.9016     C
C        0.669   0.3027   0.4016     C
C        0.669   0.6973   0.5984     C
C        0.669   0.8027   0.0984     C
N       0.6948      0.0      0.5     N
N       0.6948      0.5      0.0     N
N        0.695  0.10792   0.1853     N
N        0.695  0.39208   0.6853     N
N        0.695  0.60792   0.3147     N
N        0.695  0.89208   0.8147     N
H       0.7141   0.0412   0.0955     H
H       0.7141   0.4588   0.5955     H
H       0.7141   0.5412   0.4045     H
H       0.7141   0.9588   0.9045     H
H       0.7155   0.0747   0.4176     H
H       0.7155   0.4253   0.9176     H
H       0.7155   0.5747   0.0824     H
H       0.7155   0.9253   0.5824     H
H        0.716   0.1721   0.2761     H
H        0.716   0.3279   0.7761     H
H        0.716   0.6721   0.2239     H
H        0.716   0.8279   0.7239     H
C       0.7545   0.0675   0.1334     C
C       0.7545   0.4325   0.6334     C
C       0.7545   0.5675   0.3666     C
C       0.7545   0.9325   0.8666     C
C       0.7551   0.0431   0.4523     C
C       0.7551   0.4569   0.9523     C
C       0.7551   0.5431   0.0477     C
C       0.7551   0.9569   0.5477     C
C       0.7558   0.1439   0.2391     C
C       0.7558   0.3561   0.7391     C
C       0.7558   0.6439   0.2609     C
C       0.7558   0.8561   0.7609     C
N       0.7682   0.1978   0.9023     N
N       0.7682   0.3022   0.4023     N
N       0.7682   0.6978   0.5977     N
N       0.7682   0.8022   0.0977     N
C       0.8729   0.0625   0.1331     C
C       0.8729   0.4375   0.6331     C
C       0.8729   0.5625   0.3669     C
C       0.8729   0.9375   0.8669     C
C       0.8735   0.0446   0.4503     C
C       0.8735   0.1418   0.2433     C
C       0.8735   0.3582   0.7433     C
C       0.8735   0.4554   0.9503     C
C       0.8735   0.5446   0.0497     C
C       0.8735   0.6418   0.2567     C
C       0.8735   0.8582   0.7567     C
C       0.8735   0.9554   0.5497     C
H       0.9103   0.0336   0.0955     H
H       0.9103   0.4664   0.5955     H
H       0.9103   0.5336   0.4045     H
H       0.9103   0.9664   0.9045     H
H        0.911   0.0764   0.4147     H
H        0.911   0.4236   0.9147     H
H        0.911   0.5764   0.0853     H
H        0.911   0.9236   0.5853     H
H       0.9114   0.1679   0.2824     H
H       0.9114   0.3321   0.7824     H
H       0.9114   0.6679   0.2176     H
H       0.9114   0.8321   0.7176     H
C       0.9359      0.0      0.5     C
C       0.9359   0.1006   0.1888     C
C       0.9359   0.3994   0.6888     C
C       0.9359      0.5      0.0     C
C       0.9359   0.6006   0.3112     C
C       0.9359   0.8994   0.8112     C
