data_I
_chemical_name_common  '/home/zhangsd/repos/MofS-CGCNN/ML/data/SSD/clean_cifs/XUWKEH_clean'
_cell_length_a 31.01900
_cell_length_b  7.18570
_cell_length_c  8.10300
_cell_angle_alpha 90.00000
_cell_angle_beta  96.03800
_cell_angle_gamma 90.00000
_space_group_name_H-M_alt      'P 1'


loop_
_space_group_symop_operation_xyz
  'x, y, z' 

loop_
_atom_site_label
_atom_site_fract_x
_atom_site_fract_y
_atom_site_fract_z
_atom_site_type_symbol
Mn         0.0   0.4866      0.0    Mn
N       0.0469    0.705   0.0653     N
N       0.0489    0.268    0.976     N
C       0.0753    0.813    0.067     C
C       0.0767    0.164    0.994     C
Mo     0.13035    0.982  0.05151    Mo
C       0.1366    0.179    0.256     C
N       0.1392    0.691    0.364     N
C       0.1393    0.182    0.861     C
N        0.142    0.286    0.755     N
C       0.1465    0.803    0.856     C
C       0.1477    0.795    0.258     C
Mn     0.14778   0.4797   0.5588    Mn
N       0.1562    0.275   0.3665     N
N       0.1572    0.704   0.7557     N
K      0.19472   0.4826   0.0913     K
C       0.2007    0.013    0.083     C
N        0.237    0.951   0.1006     N
N        0.263    0.451   0.8994     N
C       0.2993    0.513    0.917     C
K      0.30528   0.9826   0.9087     K
N       0.3428    0.204   0.2443     N
N       0.3438    0.775   0.6335     N
Mn     0.35222   0.9797   0.4412    Mn
C       0.3523    0.295    0.742     C
C       0.3535    0.303    0.144     C
N        0.358    0.786    0.245     N
C       0.3607    0.682    0.139     C
N       0.3608    0.191    0.636     N
C       0.3634    0.679    0.744     C
Mo     0.36965    0.482  0.94849    Mo
C       0.4233    0.664    0.006     C
C       0.4247    0.313    0.933     C
N       0.4511    0.768    0.024     N
N       0.4531    0.205   0.9347     N
Mn         0.5   0.9866      0.0    Mn
N       0.5469    0.205   0.0653     N
N       0.5489    0.768    0.976     N
C       0.5753    0.313    0.067     C
C       0.5767    0.664    0.994     C
Mo     0.63035    0.482  0.05151    Mo
C       0.6366    0.679    0.256     C
N       0.6392    0.191    0.364     N
C       0.6393    0.682    0.861     C
N        0.642    0.786    0.755     N
C       0.6465    0.303    0.856     C
C       0.6477    0.295    0.258     C
Mn     0.64778   0.9797   0.5588    Mn
N       0.6562    0.775   0.3665     N
N       0.6572    0.204   0.7557     N
K      0.69472   0.9826   0.0913     K
C       0.7007    0.513    0.083     C
N        0.737    0.451   0.1006     N
N        0.763    0.951   0.8994     N
C       0.7993    0.013    0.917     C
K      0.80528   0.4826   0.9087     K
N       0.8428    0.704   0.2443     N
N       0.8438    0.275   0.6335     N
Mn     0.85222   0.4797   0.4412    Mn
C       0.8523    0.795    0.742     C
C       0.8535    0.803    0.144     C
N        0.858    0.286    0.245     N
C       0.8607    0.182    0.139     C
N       0.8608    0.691    0.636     N
C       0.8634    0.179    0.744     C
Mo     0.86965    0.982  0.94849    Mo
C       0.9233    0.164    0.006     C
C       0.9247    0.813    0.933     C
N       0.9511    0.268    0.024     N
N       0.9531    0.705   0.9347     N
