data_I
_chemical_name_common  '/home/zhangsd/repos/MofS-CGCNN/ML/data/SSD/clean_cifs/YANBAR03_clean'
_cell_length_a 11.37290
_cell_length_b  9.94630
_cell_length_c 14.51180
_cell_angle_alpha 90.00000
_cell_angle_beta  91.27830
_cell_angle_gamma 90.00000
_space_group_name_H-M_alt      'P 1'


loop_
_space_group_symop_operation_xyz
  'x, y, z' 

loop_
_atom_site_label
_atom_site_fract_x
_atom_site_fract_y
_atom_site_fract_z
_atom_site_type_symbol
Co         0.0      0.0      0.5    Co
Co         0.0      0.5      0.0    Co
H       0.0043   0.2875    0.524     H
O      0.00984   0.8779  0.61547     O
C      0.01732  0.51772   0.2101     C
O      0.02093  0.29386   0.9994     O
H       0.0235     0.46   0.7356     H
H       0.0316   0.2103   0.2766     H
O      0.04272  0.49926  0.86083     O
C      0.05544  0.14291  0.31951     C
H       0.0611   0.1213   0.0404     H
C      0.06203    0.728  0.43877     C
C        0.078   0.2142  0.04833     C
O      0.09867  0.84919  0.43364     O
O      0.10439  0.62863  0.40008     O
O      0.12868  0.50825  0.21747     O
O      0.15095  0.10206  0.54212     O
O      0.15195  0.08268  0.30426     O
O      0.15736  0.24471  0.10835     O
H       0.1588   0.7588   0.1264     H
C      0.18203  0.83055  0.16599     C
O      0.18492  0.52599  0.02297     O
H       0.1956    0.656   0.9266     H
O      0.19561  0.80342  0.25163     O
O      0.19646  0.94243  0.12989     O
Co     0.23921  0.61426  0.30919    Co
C      0.24098  0.59905  0.96605     C
Co     0.24523  0.92208  0.36647    Co
Co     0.25477  0.42208  0.13353    Co
C      0.25902  0.09905  0.53395     C
Co     0.26079  0.11426  0.19081    Co
O      0.30354  0.44243  0.37011     O
O      0.30439  0.30342  0.24837     O
H       0.3044    0.156   0.5734     H
O      0.31508  0.02599  0.47703     O
C      0.31797  0.33055  0.33401     C
H       0.3412   0.2588   0.3736     H
O      0.34264  0.74471  0.39165     O
O      0.34805  0.58268  0.19574     O
O      0.34905  0.60206  0.95788     O
O      0.37132  0.00825  0.28253     O
O      0.39561  0.12863  0.09992     O
O      0.40133  0.34919  0.06636     O
C        0.422   0.7142  0.45167     C
C      0.43797    0.228  0.06123     C
H       0.4389   0.6213   0.4596     H
C      0.44456  0.64291  0.18049     C
O      0.45728  0.99926  0.63917     O
H       0.4684   0.7103   0.2234     H
H       0.4765     0.96   0.7644     H
O      0.47907  0.79386   0.5006     O
C      0.48268  0.01772   0.2899     C
O      0.49016   0.3779  0.88453     O
H       0.4957   0.7875    0.976     H
Co         0.5      0.0      0.5    Co
Co         0.5      0.5      0.0    Co
H       0.5043   0.2125    0.024     H
O      0.50984   0.6221  0.11547     O
C      0.51732  0.98228   0.7101     C
O      0.52093  0.20614   0.4994     O
H       0.5235     0.04   0.2356     H
H       0.5316   0.2897   0.7766     H
O      0.54272  0.00074  0.36083     O
C      0.55544  0.35709  0.81951     C
H       0.5611   0.3787   0.5404     H
C      0.56203    0.772  0.93877     C
C        0.578   0.2858  0.54833     C
O      0.59867  0.65081  0.93364     O
O      0.60439  0.87137  0.90008     O
O      0.62868  0.99175  0.71747     O
O      0.65095  0.39794  0.04212     O
O      0.65195  0.41732  0.80426     O
O      0.65736  0.25529  0.60835     O
H       0.6588   0.7412   0.6264     H
C      0.68203  0.66945  0.66599     C
O      0.68492  0.97401  0.52297     O
H       0.6956    0.844   0.4266     H
O      0.69561  0.69658  0.75163     O
O      0.69646  0.55757  0.62989     O
Co     0.73921  0.88574  0.80919    Co
C      0.74098  0.90095  0.46605     C
Co     0.74523  0.57792  0.86647    Co
Co     0.75477  0.07792  0.63353    Co
C      0.75902  0.40095  0.03395     C
Co     0.76079  0.38574  0.69081    Co
O      0.80354  0.05757  0.87011     O
O      0.80439  0.19658  0.74837     O
H       0.8044    0.344   0.0734     H
O      0.81508  0.47401  0.97703     O
C      0.81797  0.16945  0.83401     C
H       0.8412   0.2412   0.8736     H
O      0.84264  0.75529  0.89165     O
O      0.84805  0.91732  0.69574     O
O      0.84905  0.89794  0.45788     O
O      0.87132  0.49175  0.78253     O
O      0.89561  0.37137  0.59992     O
O      0.90133  0.15081  0.56636     O
C        0.922   0.7858  0.95167     C
C      0.93797    0.272  0.56123     C
H       0.9389   0.8787   0.9596     H
C      0.94456  0.85709  0.68049     C
O      0.95728  0.50074  0.13917     O
H       0.9684   0.7897   0.7234     H
H       0.9765     0.54   0.2644     H
O      0.97907  0.70614   0.0006     O
C      0.98268  0.48228   0.7899     C
O      0.99016   0.1221  0.38453     O
H       0.9957   0.7125    0.476     H
