data_I
_chemical_name_common  '/home/zhangsd/repos/MofS-CGCNN/ML/data/SSD/clean_cifs/YAPRUE_charged'
_cell_length_a 15.45400
_cell_length_b 18.73450
_cell_length_c 18.73450
_cell_angle_alpha 80.20550
_cell_angle_beta  65.64120
_cell_angle_gamma 65.64120
_space_group_name_H-M_alt      'P 1'


loop_
_space_group_symop_operation_xyz
  'x, y, z' 

loop_
_atom_site_label
_atom_site_fract_x
_atom_site_fract_y
_atom_site_fract_z
_atom_site_type_symbol
H       0.0004   0.5516   0.1768     H
O       0.0004   0.5929   0.9011     O
H       0.0006   0.9043   0.6849     H
H       0.0024   0.5522   0.0164     H
O       0.0046    0.937   0.5768     O
H       0.0086    0.373    0.136     H
H        0.014   0.7221   0.8401     H
H        0.016     0.13   0.7436     H
H       0.0188   0.9836   0.5522     H
H       0.0196   0.3195   0.0121     H
C       0.0204   0.8001   0.2771     C
O       0.0225   0.2635   0.9279     O
H       0.0277   0.3895   0.2731     H
H         0.03   0.7402   0.0922     H
H       0.0316   0.0763   0.4415     H
H       0.0317   0.9879   0.3195     H
C        0.032   0.1706    0.704     C
O       0.0378   0.0296   0.6612     O
H       0.0388   0.8442    0.279     H
O         0.04   0.6679   0.7469     O
O       0.0445   0.3435   0.0381     O
O       0.0485   0.7411   0.3315     O
C       0.0511   0.0921   0.6073     C
C       0.0518   0.3586   0.2252     C
C       0.0536   0.9048   0.6314     C
H       0.0589   0.7782   0.2234     H
H         0.06   0.4034   0.8544     H
H       0.0605   0.2218   0.7766     H
C       0.0617   0.0895   0.3849     C
C       0.0623   0.2752   0.2494     C
H       0.0624   0.2965   0.9031     H
C       0.0642    0.633   0.0468     C
O       0.0674   0.6612   0.9704     O
C       0.0717   0.6783   0.8047     C
H       0.0785   0.1844   0.4092     H
O       0.0804   0.7723   0.6081     O
O       0.0819    0.654    0.162     O
O       0.0826   0.9619   0.3435     O
H       0.0827   0.2443   0.2025     H
C       0.0841   0.6862   0.0864     C
C       0.0925   0.6045   0.8537     C
O       0.0943    0.134   0.6294     O
H       0.0966   0.6598   0.6956     H
C       0.0976   0.1999   0.7229     C
H       0.0985   0.0693   0.5541     H
H       0.0986   0.7264    0.641     H
H       0.1079   0.4415   0.9237     H
C        0.111   0.9532    0.633     C
O        0.114   0.3588   0.8662     O
H       0.1174   0.5787   0.0427     H
O       0.1211   0.2589   0.6685     O
H       0.1222   0.9078   0.7402     H
H       0.1227   0.7226   0.3182     H
H       0.1231   0.2665   0.3337     H
C       0.1245    0.136   0.3766     C
C       0.1296   0.8211   0.6071     C
O       0.1317   0.7752   0.7316     O
C       0.1349   0.0119   0.3379     C
H       0.1397   0.5586   0.8176     H
H       0.1423   0.4242   0.0474     H
C       0.1432   0.6073   0.9079     C
H       0.1446    0.864    0.373     H
C       0.1458   0.2391   0.2839     C
H        0.146   0.7436     0.87     H
C       0.1468   0.3379   0.9881     C
H       0.1479   0.4159   0.1569     H
C       0.1512   0.3849   0.9105     C
C       0.1558     0.36   0.1696     C
H       0.1601   0.9573   0.5787     H
H        0.162   0.1558    0.721     H
H       0.1635   0.2774   0.6818     H
C       0.1635   0.7003   0.7677     C
O       0.1638   0.1582    0.299     O
H       0.1666   0.0249   0.2815     H
O       0.1677   0.8112   0.3946     O
H       0.1678   0.5541   0.9307     H
C       0.1705   0.9136   0.6862     C
H       0.1772   0.8232   0.5516     H
H       0.1788   0.0134    0.708     H
C       0.1872   0.3684   0.0316     C
C       0.1884   0.6889   0.0401     C
H       0.1897   0.9526   0.4242     H
H       0.1915   0.2815   0.9751     H
O       0.1919   0.3203   0.0987     O
H       0.1922    0.708   0.9866     H
H       0.1929   0.3224   0.7802     H
C       0.1939   0.7895   0.6553     C
C       0.2026    0.704   0.8294     C
O       0.2062   0.0929   0.4035     O
O       0.2139   0.7365   0.0721     O
C       0.2188   0.9684   0.3684     C
H       0.2192   0.6607   0.7269     H
O       0.2283   0.6294    0.866     O
C       0.2285   0.9599   0.6889     C
O       0.2304   0.3253   0.2029     O
O       0.2399   0.3073   0.7259     O
H       0.2407   0.6348    0.035     H
O       0.2439    0.838    0.654     O
C       0.2471   0.2462    0.224     C
H       0.2482   0.7378   0.6324     H
C       0.2605   0.3766    0.864     C
H        0.262   0.7035   0.0969     H
H       0.2629   0.4092   0.8156     H
H        0.273   0.2146   0.1762     H
O       0.2731   0.6927   0.2741     O
C       0.2755   0.0218    0.361     C
H       0.2757    0.965   0.6348     H
C        0.277   0.7748   0.3586     C
H       0.2823   0.7766   0.7782     H
Cs       0.283  0.16272  0.50094    Cs
H       0.2852   0.7975   0.2443     H
O        0.286   0.9279   0.7365     O
O       0.2904   0.4742    0.028     O
O       0.2906   0.9013   0.3203     O
H       0.2955   0.6776   0.2198     H
C       0.2973    0.361   0.9782     C
C       0.2975   0.7229   0.8001     C
O       0.2991   0.4035   0.9071     O
H       0.3008   0.7269   0.3895     H
H       0.3048   0.2496   0.3062     H
H       0.3048   0.8431   0.4159     H
H       0.3069   0.0344   0.3044     H
C       0.3117   0.7506   0.2752     C
H       0.3178   0.5966   0.1456     H
H       0.3178    0.721   0.8442     H
O       0.3184    0.972   0.4742     O
O        0.322    0.299   0.8418     O
H        0.322    0.494   0.0518     H
C       0.3254   0.8304     0.36     C
H        0.327   0.2025   0.7557     H
C       0.3287   0.2158   0.2612     C
H       0.3365   0.1621   0.2811     H
C       0.3375   0.2494   0.7248     C
O        0.339   0.6412   0.1338     O
H       0.3391   0.0121   0.6805     H
H       0.3413   0.3044   0.9656     H
H       0.3424   0.3673   0.0665     H
C       0.3441   0.3939   0.0157     C
H       0.3512   0.6805   0.9879     H
H       0.3589   0.9031   0.7035     H
C       0.3598   0.9843   0.3939     C
O       0.3735   0.1888   0.6054     O
H       0.3738   0.9482    0.494     H
O         0.38   0.6685   0.7411     O
H       0.3816    0.136    0.627     H
C       0.3849   0.2839   0.7609     C
O        0.388   0.0381   0.6565     O
H       0.3896   0.3337   0.7335     H
H        0.398   0.0187   0.3833     H
H       0.4089   0.9335   0.3673     H
C       0.4104   0.2252   0.6414     C
H       0.4167   0.3833   0.9813     H
H       0.4172   0.2731   0.6105     H
H       0.4175   0.2691   0.1875     H
O       0.4248   0.2156   0.2066     O
H       0.4257   0.4476   0.1224     H
O       0.4261   0.6565   0.9619     O
C       0.4297   0.7161   0.2391     C
O       0.4333   0.7971   0.3253     O
H       0.4409   0.6818   0.7226     H
Cs     0.44572  0.50094  0.83728    Cs
C       0.4466   0.6151   0.0895     C
H       0.4481   0.7185   0.0249     H
H       0.4492   0.8238   0.2146     H
H        0.452   0.3402   0.3044     H
O       0.4548   0.3321   0.2531     O
H       0.4568   0.6663   0.2665     H
O       0.4608   0.2277   0.3919     O
O       0.4628    0.701   0.1582     O
H       0.4634   0.8544   0.5966     H
H        0.466   0.2736    0.359     H
C       0.4711    0.776   0.2462     C
C       0.4728   0.6621   0.0119     C
O       0.4728   0.8662   0.6412     O
H        0.473   0.9751   0.7185     H
H       0.4731   0.5585   0.0763     H
C       0.4847   0.9881   0.6621     C
H       0.4876   0.1762   0.7854     H
H       0.4877   0.5908   0.1844     H
C       0.4933    0.224   0.7538     C
O       0.4944   0.4071   0.0989     O
H       0.4986   0.2811   0.8379     H
C       0.5011   0.6234    0.136     C
O       0.5122   0.0987   0.6797     O
H       0.5153   0.7802   0.6776     H
C       0.5158   0.1696     0.64     C
H       0.5159   0.4414   0.1824     H
H       0.5176    0.627    0.864     H
O       0.5184    0.063   0.4232     O
H       0.5295   0.7557   0.7975     H
C       0.5361   0.9105   0.6151     C
C       0.5445   0.2612   0.7842     C
O       0.5472   0.7259   0.6927     O
H       0.5481   0.8776   0.4476     H
H       0.5494   0.9237   0.5585     H
C       0.5507   0.3955   0.1463     C
H        0.552   0.1768   0.4484     H
H       0.5544   0.3062   0.7504     H
H       0.5546   0.0164   0.4478     H
C       0.5547   0.3217   0.1953     C
C       0.5556   0.0316   0.6316     C
O       0.5557   0.2029   0.6747     O
C       0.5578   0.1789   0.3929     C
O       0.5623   0.6054   0.8112     O
H       0.5638   0.1569   0.5841     H
H       0.5665   0.0474   0.5758     H
H        0.571   0.4478   0.9836     H
H       0.5762   0.2779   0.1599     H
O       0.5814   0.4232    0.937     O
C       0.5869   0.7248   0.7506     C
C       0.5872   0.6316   0.9684     C
C       0.5898   0.0952   0.3686     C
H       0.5898   0.0957   0.3151     H
C       0.5899   0.7388   0.2158     C
O       0.5933   0.9011   0.4071     O
H        0.605   0.8125   0.2691     H
H       0.6068   0.3393   0.2731     H
O       0.6097   0.5965   0.0929     O
O       0.6109   0.6797   0.9013     O
H        0.611   0.6938   0.2496     H
H       0.6113   0.6956   0.0344     H
H       0.6139   0.5758   0.9526     H
H       0.6176   0.7189   0.1621     H
H       0.6184   0.2622   0.3676     H
O        0.621   0.8418    0.701     O
O       0.6314   0.7934   0.2156     O
C       0.6315   0.2997   0.2323     C
C       0.6356   0.6414   0.7748     C
C       0.6365    0.639   0.0218     C
C       0.6371    0.864   0.6234     C
O       0.6385   0.2248   0.2684     O
C       0.6387   0.2105   0.3447     C
O       0.6404   0.2066   0.7844     O
H       0.6457   0.9656   0.6956     H
H       0.6526   0.4459   0.0693     H
C       0.6583   0.9782    0.639     C
C       0.6584   0.3927   0.0921     C
H       0.6638   0.7854   0.8238     H
C       0.6688   0.7609   0.7161     C
H       0.6721   0.8156   0.5908     H
C        0.685   0.3686   0.9048     C
C       0.6854     0.64   0.8304     C
H       0.6855   0.3151   0.9043     H
H       0.6866   0.1875   0.7309     H
O       0.6885   0.3919   0.7723     O
H       0.6903   0.6105   0.7269     H
H       0.6961   0.0427   0.4213     H
C        0.697   0.8537   0.3955     C
C       0.6972   0.0468    0.367     C
H       0.6983   0.8176   0.4414     H
O        0.699   0.3388   0.0296     O
O       0.7026   0.9071   0.5965     O
O       0.7079   0.7469   0.3321     O
H       0.7097   0.0665   0.6327     H
C       0.7173   0.7538    0.776     C
H       0.7207   0.5841   0.8431     H
H       0.7219   0.9307   0.4459     H
H       0.7233   0.7335   0.6663     H
O       0.7237   0.3706    0.134     O
O       0.7286   0.9704   0.3388     O
H       0.7288   0.4484   0.8232     H
O       0.7359    0.162    0.346     O
C        0.736    0.296   0.1706     C
H       0.7361   0.8401   0.2779     H
C       0.7367   0.3929   0.8211     C
C        0.738   0.0157   0.6061     C
H       0.7388   0.4213   0.9573     H
H       0.7396    0.359   0.7264     H
C        0.744    0.367   0.9532     C
C         0.75   0.8047   0.3217     C
C       0.7505   0.9079   0.3927     C
C       0.7537   0.6061   0.9843     C
H       0.7564   0.6956   0.3402     H
O       0.7586   0.6747   0.7971     O
H       0.7596   0.2564     0.13     H
O       0.7646    0.028   0.5258     O
H       0.7702   0.0922   0.2598     H
C       0.7703   0.0864   0.3138     C
H       0.7762   0.6327   0.9335     H
H       0.7797   0.8379   0.7189     H
H       0.7813   0.6167   0.0187     H
Cs     0.78394  0.49906  0.16272    Cs
O       0.7869   0.2531   0.6679     O
O       0.7896   0.3315   0.2589     O
H       0.7922   0.3044   0.6598     H
O       0.7926   0.5258    0.972     O
H          0.8   0.9813   0.6167     H
C       0.8057   0.7842   0.7388     C
H        0.816   0.0518    0.506     H
C       0.8205   0.2771   0.1999     C
H        0.825    0.641   0.2736     H
H       0.8371   0.2234   0.2218     H
H       0.8453   0.3182   0.2774     H
O        0.847   0.7844   0.7934     O
C       0.8492   0.3447   0.7895     C
O       0.8527   0.6081   0.2277     O
H       0.8541   0.1599   0.7221     H
C       0.8567   0.3138   0.9136     C
O       0.8577    0.866   0.3706     O
H       0.8606   0.7504   0.6938     H
H       0.8624   0.2598   0.9078     H
O       0.8633   0.2684   0.7752     O
C       0.8638   0.7677   0.2997     C
H       0.8678    0.506   0.9482     H
H       0.8733   0.1224   0.5524     H
H       0.8741   0.7309   0.8125     H
H       0.8755    0.035   0.3652     H
C       0.8764   0.1953   0.6783     C
C       0.8773   0.0401   0.3111     C
H       0.8799   0.7269   0.3393     H
H       0.8806   0.3676   0.7378     H
H        0.883    0.279   0.1558     H
H       0.8868    0.292   0.0134     H
H       0.8896     0.87   0.2564     H
O       0.8979    0.346    0.838     O
H       0.9002   0.9866    0.292     H
O       0.9015   0.0989   0.5929     O
H       0.9049   0.6849   0.0957     H
C       0.9066   0.8294    0.296     C
O       0.9069   0.7316   0.2248     O
H       0.9105   0.3652    0.965     H
H       0.9144   0.1456   0.4034     H
C       0.9174   0.3111   0.9599     C
C       0.9312   0.2323   0.7003     C
O       0.9416   0.5768    0.063     O
H       0.9461   0.2731   0.6607     H
C       0.9462   0.1463   0.6045     C
Cs     0.94666  0.83728  0.49906    Cs
O       0.9504   0.0721   0.2635     O
C       0.9507   0.6071   0.1789     C
H       0.9573   0.1824   0.5586     H
C       0.9584   0.6314   0.0952     C
H       0.9655   0.0969   0.2965     H
O       0.9658   0.2741   0.3073     O
H       0.9731   0.2198   0.3224     H
O       0.9789   0.3946   0.1888     O
O       0.9802   0.1338   0.3588     O
C       0.9834   0.6553   0.2105     C
H        0.986   0.6324   0.2622     H
H       0.9957   0.5524   0.8776     H
