data_I
_chemical_name_common  '/home/zhangsd/repos/MofS-CGCNN/ML/data/SSD/clean_cifs/YARBAW_clean'
_cell_length_a 19.46900
_cell_length_b 18.07700
_cell_length_c 13.26500
_cell_angle_alpha 90.00000
_cell_angle_beta  131.21300
_cell_angle_gamma 90.00000
_space_group_name_H-M_alt      'P 1'


loop_
_space_group_symop_operation_xyz
  'x, y, z' 

loop_
_atom_site_label
_atom_site_fract_x
_atom_site_fract_y
_atom_site_fract_z
_atom_site_type_symbol
Ni         0.0      0.0      0.0    Ni
Ni         0.0      0.0      0.5    Ni
C          0.0   0.4684     0.75     C
C          0.0   0.5316     0.25     C
C       0.0188   0.3399   0.5573     C
C       0.0188   0.6601   0.0573     C
H       0.0268    0.161   0.4625     H
H       0.0268    0.839   0.9625     H
C       0.0297    0.151    0.121     C
C       0.0297    0.849    0.621     C
H       0.0354   0.4365   0.8281     H
H       0.0354   0.5635   0.3281     H
C       0.0374   0.4395   0.1466     C
C       0.0374   0.5605   0.6466     C
H       0.0377   0.3064   0.6245     H
H       0.0377   0.6936   0.1245     H
H        0.045   0.2517   0.1963     H
H        0.045   0.7483   0.6963     H
C        0.056   0.4225   0.4597     C
C        0.056   0.5775   0.9597     C
N       0.0666  0.08369   0.1433     N
N       0.0666  0.91631   0.6433     N
C       0.0668   0.4892   0.2488     C
C       0.0668   0.5108   0.7488     C
C       0.0722   0.3562   0.0422     C
C       0.0722   0.6438   0.5422     C
C       0.0724   0.2055   0.2167     C
C       0.0724   0.7945   0.7167     C
C       0.0822   0.3737   0.5563     C
C       0.0822   0.6263   0.0563     C
H       0.1001   0.4454   0.4629     H
H       0.1001   0.5546   0.9629     H
C       0.1024   0.4047    0.145     C
C       0.1024   0.5953    0.645     C
H       0.1146   0.3342   0.0404     H
H       0.1146   0.6658   0.5404     H
O      0.12369  0.03586   0.5666     O
O      0.12369  0.96414   0.0666     O
H       0.1439   0.3626   0.6234     H
H       0.1439   0.6374   0.1234     H
C       0.1476   0.0711   0.2642     C
C       0.1476   0.9289   0.7642     C
O       0.1533   0.0437    0.972     O
O       0.1533   0.9563    0.472     O
C       0.1555   0.1926   0.3426     C
C       0.1555   0.8074   0.8426     C
C       0.1593   0.4935   0.8441     C
C       0.1593   0.5065   0.3441     C
H       0.1745   0.0249   0.2817     H
H       0.1745   0.9751   0.7817     H
H       0.1754   0.2505     0.49     H
H       0.1754   0.7495     0.99     H
C       0.1767   0.0054   0.5579     C
C       0.1767   0.9946   0.0579     C
H        0.186    0.299   0.4036     H
H        0.186    0.701   0.9036     H
O       0.1868   0.4445   0.9421     O
O       0.1868   0.5555   0.4421     O
C        0.193   0.1235   0.3642     C
C        0.193   0.8765   0.8642     C
C       0.1956   0.4238   0.2448     C
C       0.1956   0.5762   0.7448     C
C       0.2015   0.2516   0.4481     C
C       0.2015   0.7484   0.9481     C
C       0.2235   0.4731   0.3411     C
C       0.2235   0.5269   0.8411     C
H       0.2383   0.4019   0.2439     H
H       0.2383   0.5981   0.7439     H
H       0.2422   0.4386   0.9917     H
H       0.2422   0.5614   0.4917     H
H       0.2495   0.1122    0.447     H
H       0.2495   0.8878    0.947     H
H       0.2505   0.3878    0.553     H
H       0.2505   0.6122    0.053     H
H       0.2578   0.0614   0.0083     H
H       0.2578   0.9386   0.5083     H
H       0.2617   0.0981   0.7561     H
H       0.2617   0.9019   0.2561     H
C       0.2765   0.0269   0.6589     C
C       0.2765   0.9731   0.1589     C
C       0.2985   0.2484   0.5519     C
C       0.2985   0.7516   0.0519     C
C       0.3044   0.0762   0.7552     C
C       0.3044   0.9238   0.2552     C
C        0.307   0.3765   0.6358     C
C        0.307   0.6235   0.1358     C
O       0.3132   0.0555   0.0579     O
O       0.3132   0.9445   0.5579     O
H        0.314    0.201   0.5964     H
H        0.314    0.799   0.0964     H
C       0.3233   0.4946   0.4421     C
C       0.3233   0.5054   0.9421     C
H       0.3246   0.2495     0.51     H
H       0.3246   0.7505     0.01     H
H       0.3255   0.4751   0.7183     H
H       0.3255   0.5249   0.2183     H
C       0.3407   0.0065   0.1559     C
C       0.3407   0.9935   0.6559     C
C       0.3445   0.3074   0.6574     C
C       0.3445   0.6926   0.1574     C
O       0.3467   0.4563    0.028     O
O       0.3467   0.5437    0.528     O
C       0.3524   0.4289   0.7358     C
C       0.3524   0.5711   0.2358     C
H       0.3561   0.1374   0.3766     H
H       0.3561   0.8626   0.8766     H
O      0.37631  0.46414   0.4334     O
O      0.37631  0.53586   0.9334     O
H       0.3854   0.1658   0.9596     H
H       0.3854   0.8342   0.4596     H
C       0.3976   0.0953    0.855     C
C       0.3976   0.9047    0.355     C
H       0.3999   0.0546   0.5371     H
H       0.3999   0.9454   0.0371     H
C       0.4178   0.1263   0.4437     C
C       0.4178   0.8737   0.9437     C
C       0.4276   0.2945   0.7833     C
C       0.4276   0.7055   0.2833     C
C       0.4278   0.1438   0.9578     C
C       0.4278   0.8562   0.4578     C
C       0.4332   0.0108   0.7512     C
C       0.4332   0.9892   0.2512     C
N       0.4334  0.41631   0.8567     N
N       0.4334  0.58369   0.3567     N
C        0.444   0.0775   0.5403     C
C        0.444   0.9225   0.0403     C
H        0.455   0.2483   0.8037     H
H        0.455   0.7517   0.3037     H
H       0.4623   0.1936   0.3755     H
H       0.4623   0.8064   0.8755     H
C       0.4626   0.0605   0.8534     C
C       0.4626   0.9395   0.3534     C
H       0.4646   0.0635   0.1719     H
H       0.4646   0.9365   0.6719     H
C       0.4703    0.349    0.879     C
C       0.4703    0.651    0.379     C
H       0.4732    0.339   0.5375     H
H       0.4732    0.661   0.0375     H
C       0.4812   0.1601   0.4427     C
C       0.4812   0.8399   0.9427     C
C          0.5   0.0316     0.25     C
Ni         0.5      0.5      0.0    Ni
Ni         0.5      0.5      0.5    Ni
C          0.5   0.9684     0.75     C
C       0.5188   0.1601   0.0573     C
C       0.5188   0.8399   0.5573     C
H       0.5268    0.339   0.9625     H
H       0.5268    0.661   0.4625     H
C       0.5297    0.349    0.621     C
C       0.5297    0.651    0.121     C
H       0.5354   0.0635   0.3281     H
H       0.5354   0.9365   0.8281     H
C       0.5374   0.0605   0.6466     C
C       0.5374   0.9395   0.1466     C
H       0.5377   0.1936   0.1245     H
H       0.5377   0.8064   0.6245     H
H        0.545   0.2483   0.6963     H
H        0.545   0.7517   0.1963     H
C        0.556   0.0775   0.9597     C
C        0.556   0.9225   0.4597     C
N       0.5666  0.41631   0.6433     N
N       0.5666  0.58369   0.1433     N
C       0.5668   0.0108   0.7488     C
C       0.5668   0.9892   0.2488     C
C       0.5722   0.1438   0.5422     C
C       0.5722   0.8562   0.0422     C
C       0.5724   0.2945   0.7167     C
C       0.5724   0.7055   0.2167     C
C       0.5822   0.1263   0.0563     C
C       0.5822   0.8737   0.5563     C
H       0.6001   0.0546   0.9629     H
H       0.6001   0.9454   0.4629     H
C       0.6024   0.0953    0.645     C
C       0.6024   0.9047    0.145     C
H       0.6146   0.1658   0.5404     H
H       0.6146   0.8342   0.0404     H
O      0.62369  0.46414   0.0666     O
O      0.62369  0.53586   0.5666     O
H       0.6439   0.1374   0.1234     H
H       0.6439   0.8626   0.6234     H
C       0.6476   0.4289   0.7642     C
C       0.6476   0.5711   0.2642     C
O       0.6533   0.4563    0.472     O
O       0.6533   0.5437    0.972     O
C       0.6555   0.3074   0.8426     C
C       0.6555   0.6926   0.3426     C
C       0.6593   0.0065   0.3441     C
C       0.6593   0.9935   0.8441     C
H       0.6745   0.4751   0.7817     H
H       0.6745   0.5249   0.2817     H
H       0.6754   0.2495     0.99     H
H       0.6754   0.7505     0.49     H
C       0.6767   0.4946   0.0579     C
C       0.6767   0.5054   0.5579     C
H        0.686    0.201   0.9036     H
H        0.686    0.799   0.4036     H
O       0.6868   0.0555   0.4421     O
O       0.6868   0.9445   0.9421     O
C        0.693   0.3765   0.8642     C
C        0.693   0.6235   0.3642     C
C       0.6956   0.0762   0.7448     C
C       0.6956   0.9238   0.2448     C
C       0.7015   0.2484   0.9481     C
C       0.7015   0.7516   0.4481     C
C       0.7235   0.0269   0.8411     C
C       0.7235   0.9731   0.3411     C
H       0.7383   0.0981   0.7439     H
H       0.7383   0.9019   0.2439     H
H       0.7422   0.0614   0.4917     H
H       0.7422   0.9386   0.9917     H
H       0.7495   0.3878    0.947     H
H       0.7495   0.6122    0.447     H
H       0.7505   0.1122    0.053     H
H       0.7505   0.8878    0.553     H
H       0.7578   0.4386   0.5083     H
H       0.7578   0.5614   0.0083     H
H       0.7617   0.4019   0.2561     H
H       0.7617   0.5981   0.7561     H
C       0.7765   0.4731   0.1589     C
C       0.7765   0.5269   0.6589     C
C       0.7985   0.2516   0.0519     C
C       0.7985   0.7484   0.5519     C
C       0.8044   0.4238   0.2552     C
C       0.8044   0.5762   0.7552     C
C        0.807   0.1235   0.1358     C
C        0.807   0.8765   0.6358     C
O       0.8132   0.4445   0.5579     O
O       0.8132   0.5555   0.0579     O
H        0.814    0.299   0.0964     H
H        0.814    0.701   0.5964     H
C       0.8233   0.0054   0.9421     C
C       0.8233   0.9946   0.4421     C
H       0.8246   0.2505     0.01     H
H       0.8246   0.7495     0.51     H
H       0.8255   0.0249   0.2183     H
H       0.8255   0.9751   0.7183     H
C       0.8407   0.4935   0.6559     C
C       0.8407   0.5065   0.1559     C
C       0.8445   0.1926   0.1574     C
C       0.8445   0.8074   0.6574     C
O       0.8467   0.0437    0.528     O
O       0.8467   0.9563    0.028     O
C       0.8524   0.0711   0.2358     C
C       0.8524   0.9289   0.7358     C
H       0.8561   0.3626   0.8766     H
H       0.8561   0.6374   0.3766     H
O      0.87631  0.03586   0.9334     O
O      0.87631  0.96414   0.4334     O
H       0.8854   0.3342   0.4596     H
H       0.8854   0.6658   0.9596     H
C       0.8976   0.4047    0.355     C
C       0.8976   0.5953    0.855     C
H       0.8999   0.4454   0.0371     H
H       0.8999   0.5546   0.5371     H
C       0.9178   0.3737   0.9437     C
C       0.9178   0.6263   0.4437     C
C       0.9276   0.2055   0.2833     C
C       0.9276   0.7945   0.7833     C
C       0.9278   0.3562   0.4578     C
C       0.9278   0.6438   0.9578     C
C       0.9332   0.4892   0.2512     C
C       0.9332   0.5108   0.7512     C
N       0.9334  0.08369   0.3567     N
N       0.9334  0.91631   0.8567     N
C        0.944   0.4225   0.0403     C
C        0.944   0.5775   0.5403     C
H        0.955   0.2517   0.3037     H
H        0.955   0.7483   0.8037     H
H       0.9623   0.3064   0.8755     H
H       0.9623   0.6936   0.3755     H
C       0.9626   0.4395   0.3534     C
C       0.9626   0.5605   0.8534     C
H       0.9646   0.4365   0.6719     H
H       0.9646   0.5635   0.1719     H
C       0.9703    0.151    0.379     C
C       0.9703    0.849    0.879     C
H       0.9732    0.161   0.0375     H
H       0.9732    0.839   0.5375     H
C       0.9812   0.3399   0.9427     C
C       0.9812   0.6601   0.4427     C
