data_I
_chemical_name_common  '/home/zhangsd/repos/MofS-CGCNN/ML/data/SSD/clean_cifs/YARZEZ_clean'
_cell_length_a 10.49800
_cell_length_b 16.50000
_cell_length_c 15.76300
_cell_angle_alpha 90.00000
_cell_angle_beta  128.04000
_cell_angle_gamma 90.00000
_space_group_name_H-M_alt      'P 1'


loop_
_space_group_symop_operation_xyz
  'x, y, z' 

loop_
_atom_site_label
_atom_site_fract_x
_atom_site_fract_y
_atom_site_fract_z
_atom_site_type_symbol
C       0.0507    0.239   0.0394     C
C       0.0507    0.261   0.5394     C
N       0.0736   0.7138   0.9846     N
N       0.0736   0.7862   0.4846     N
N       0.1531   0.1994   0.0799     N
N       0.1531   0.3006   0.5799     N
C       0.1885   0.6814   0.1012     C
C       0.1885   0.8186   0.6012     C
N       0.2818    0.653   0.1794     N
N       0.2818    0.847   0.6794     N
N       0.4052  0.05498   0.1107     N
N       0.4052  0.44502   0.6107     N
N        0.421   0.1109   0.3224     N
N        0.421   0.3891   0.8224     N
Cd     0.43519  0.17659  0.19229    Cd
Cd     0.43519  0.32341  0.69229    Cd
N       0.4375   0.6487   0.9846     N
N       0.4375   0.8513   0.4846     N
C       0.4513  0.51316   0.6148     C
C       0.4513  0.98684   0.1148     C
N        0.474   0.2051   0.7832     N
N        0.474   0.2949   0.2832     N
C       0.4752   0.1464   0.8237     C
C       0.4752   0.3536   0.3237     C
N        0.481   0.2493   0.5849     N
N        0.481   0.2507   0.0849     N
C        0.487   0.1307    0.411     C
C        0.487   0.3693    0.911     C
C       0.4918   0.7067   0.9565     C
C       0.4918   0.7933   0.4565     C
N        0.494   0.0792   0.8835     N
N        0.494   0.4208   0.3835     N
N        0.506   0.5792   0.6165     N
N        0.506   0.9208   0.1165     N
C       0.5082   0.2067   0.5435     C
C       0.5082   0.2933   0.0435     C
C        0.513   0.6307    0.089     C
C        0.513   0.8693    0.589     C
N        0.519   0.7493   0.9151     N
N        0.519   0.7507   0.4151     N
C       0.5248   0.6464   0.6763     C
C       0.5248   0.8536   0.1763     C
N        0.526   0.7051   0.7168     N
N        0.526   0.7949   0.2168     N
C       0.5487  0.01316   0.8852     C
C       0.5487  0.48684   0.3852     C
N       0.5625   0.1487   0.5154     N
N       0.5625   0.3513   0.0154     N
Cd     0.56481  0.67659  0.30771    Cd
Cd     0.56481  0.82341  0.80771    Cd
N        0.579   0.6109   0.1776     N
N        0.579   0.8891   0.6776     N
N       0.5948  0.55498   0.3893     N
N       0.5948  0.94502   0.8893     N
N       0.7182    0.153   0.3206     N
N       0.7182    0.347   0.8206     N
C       0.8115   0.1814   0.3988     C
C       0.8115   0.3186   0.8988     C
N       0.8469   0.6994   0.4201     N
N       0.8469   0.8006   0.9201     N
N       0.9264   0.2138   0.5154     N
N       0.9264   0.2862   0.0154     N
C       0.9493    0.739   0.4606     C
C       0.9493    0.761   0.9606     C
