data_I
_chemical_name_common  '/home/zhangsd/repos/MofS-CGCNN/ML/data/SSD/clean_cifs/YARZEZ02_clean'
_cell_length_a 17.05600
_cell_length_b 16.62400
_cell_length_c 17.06300
_cell_angle_alpha 90.00000
_cell_angle_beta  90.00000
_cell_angle_gamma 90.00000
_space_group_name_H-M_alt      'P 1'


loop_
_space_group_symop_operation_xyz
  'x, y, z' 

loop_
_atom_site_label
_atom_site_fract_x
_atom_site_fract_y
_atom_site_fract_z
_atom_site_type_symbol
N          0.0      0.0      0.5     N
C          0.0   0.0662   0.4717     C
N          0.0   0.1354   0.4742     N
N          0.0   0.1723   0.7838     N
N          0.0   0.1791   0.9254     N
C          0.0   0.1869   0.8592     C
C          0.0   0.2231   0.7259     C
N          0.0   0.2401     0.17     N
Cd         0.0  0.24702  0.05016    Cd
Cd         0.0  0.25298  0.55016    Cd
N          0.0   0.2599     0.67     N
C          0.0   0.2769   0.2259     C
C          0.0   0.3131   0.3592     C
N          0.0   0.3209   0.4254     N
N          0.0   0.3277   0.2838     N
N          0.0   0.3646   0.9742     N
C          0.0   0.4338   0.9717     C
N          0.0      0.5      0.0     N
C          0.0   0.5662   0.0283     C
N          0.0   0.6354   0.0258     N
N          0.0   0.6723   0.7162     N
N          0.0   0.6791   0.5746     N
C          0.0   0.6869   0.6408     C
C          0.0   0.7231   0.7741     C
N          0.0   0.7401     0.33     N
Cd         0.0  0.74702  0.44984    Cd
Cd         0.0  0.75298  0.94984    Cd
N          0.0   0.7599     0.83     N
C          0.0   0.7769   0.2741     C
C          0.0   0.8131   0.1408     C
N          0.0   0.8209   0.0746     N
N          0.0   0.8277   0.2162     N
N          0.0   0.8646   0.5258     N
C          0.0   0.9338   0.5283     C
N         0.13   0.2468   0.0612     N
N         0.13   0.2532   0.5612     N
N         0.13   0.7468   0.4388     N
N         0.13   0.7532   0.9388     N
C       0.1978   0.2469   0.5561     C
C       0.1978   0.2531   0.0561     C
C       0.1978   0.7469   0.9439     C
C       0.1978   0.7531   0.4439     C
N         0.25     0.25      0.0     N
N         0.25     0.25      0.5     N
N         0.25     0.75      0.0     N
N         0.25     0.75      0.5     N
C       0.3022   0.2469   0.9439     C
C       0.3022   0.2531   0.4439     C
C       0.3022   0.7469   0.5561     C
C       0.3022   0.7531   0.0561     C
N         0.37   0.2468   0.4388     N
N         0.37   0.2532   0.9388     N
N         0.37   0.7468   0.0612     N
N         0.37   0.7532   0.5612     N
N          0.5      0.0      0.0     N
C          0.5   0.0662   0.0283     C
N          0.5   0.1354   0.0258     N
N          0.5   0.1723   0.7162     N
N          0.5   0.1791   0.5746     N
C          0.5   0.1869   0.6408     C
C          0.5   0.2231   0.7741     C
N          0.5   0.2401     0.33     N
Cd         0.5  0.24702  0.44984    Cd
Cd         0.5  0.25298  0.94984    Cd
N          0.5   0.2599     0.83     N
C          0.5   0.2769   0.2741     C
C          0.5   0.3131   0.1408     C
N          0.5   0.3209   0.0746     N
N          0.5   0.3277   0.2162     N
N          0.5   0.3646   0.5258     N
C          0.5   0.4338   0.5283     C
N          0.5      0.5      0.5     N
C          0.5   0.5662   0.4717     C
N          0.5   0.6354   0.4742     N
N          0.5   0.6723   0.7838     N
N          0.5   0.6791   0.9254     N
C          0.5   0.6869   0.8592     C
C          0.5   0.7231   0.7259     C
N          0.5   0.7401     0.17     N
Cd         0.5  0.74702  0.05016    Cd
Cd         0.5  0.75298  0.55016    Cd
N          0.5   0.7599     0.67     N
C          0.5   0.7769   0.2259     C
C          0.5   0.8131   0.3592     C
N          0.5   0.8209   0.4254     N
N          0.5   0.8277   0.2838     N
N          0.5   0.8646   0.9742     N
C          0.5   0.9338   0.9717     C
N         0.63   0.2468   0.4388     N
N         0.63   0.2532   0.9388     N
N         0.63   0.7468   0.0612     N
N         0.63   0.7532   0.5612     N
C       0.6978   0.2469   0.9439     C
C       0.6978   0.2531   0.4439     C
C       0.6978   0.7469   0.5561     C
C       0.6978   0.7531   0.0561     C
N         0.75     0.25      0.0     N
N         0.75     0.25      0.5     N
N         0.75     0.75      0.0     N
N         0.75     0.75      0.5     N
C       0.8022   0.2469   0.5561     C
C       0.8022   0.2531   0.0561     C
C       0.8022   0.7469   0.9439     C
C       0.8022   0.7531   0.4439     C
N         0.87   0.2468   0.0612     N
N         0.87   0.2532   0.5612     N
N         0.87   0.7468   0.4388     N
N         0.87   0.7532   0.9388     N
