data_I
_chemical_name_common  '/home/zhangsd/repos/MofS-CGCNN/ML/data/SSD/clean_cifs/YASNAJ_clean'
_cell_length_a 15.61670
_cell_length_b 15.61670
_cell_length_c 16.71780
_cell_angle_alpha 100.83500
_cell_angle_beta  100.83500
_cell_angle_gamma 119.90500
_space_group_name_H-M_alt      'P 1'


loop_
_space_group_symop_operation_xyz
  'x, y, z' 

loop_
_atom_site_label
_atom_site_fract_x
_atom_site_fract_y
_atom_site_fract_z
_atom_site_type_symbol
H       0.0053   0.6553   0.1795     H
C       0.0062   0.7352   0.4303     C
H       0.0083   0.3769   0.6621     H
O      0.01164  0.61386  0.99248     O
O      0.03546  0.38708  0.18633     O
C       0.0387   0.6905   0.3769     C
H       0.0458   0.7756   0.9631     H
H       0.0506   0.8644   0.5259     H
C      0.06058  0.40682   0.8424     C
N      0.06713  0.49637   0.8716     N
Co     0.06877  0.50495  0.12081    Co
C      0.07445  0.83455     0.49     C
H       0.0866   0.2954   0.2807     H
C      0.08851  0.45829   0.2566     C
C      0.09615  0.67445   0.0526     C
C      0.09798  0.33902   0.3333     C
C      0.10363  0.43037   0.3372     C
H       0.1064   0.2498   0.4025     H
C      0.10892  0.31108   0.4055     C
C      0.11184  0.82276   0.0043     C
C      0.12171  0.49529    0.416     C
C      0.12364  0.37596   0.4835     C
S      0.12752  0.33602  0.57537     S
H       0.1276   0.5582   0.4196     H
O      0.12919  0.55259  0.26163     O
C      0.13104  0.46796   0.4881     C
H       0.1356   0.9494   0.9741     H
O      0.13577  0.64949  0.10859     O
H       0.1364   0.3368   0.8222     H
H       0.1393   0.3593   0.0752     H
C      0.14208  0.74572   0.3809     C
H       0.1424   0.5118   0.5406     H
C      0.14571  0.40149   0.8429     C
C      0.15518  0.78822  0.05959     C
O      0.16057  0.26623    0.565     O
C      0.16259  0.58301   0.9002     C
H       0.1648   0.7162   0.3436     H
C      0.16545  0.92555     0.01     C
H       0.1695   0.6467   0.9195     H
C      0.17724  0.88816   0.4957     C
O       0.1849   0.4271   0.6502     O
C       0.2037   0.4229    0.093     C
N      0.20631  0.51081  0.11525     N
C      0.21178  0.84482  0.44041     C
H       0.2244   0.9542   0.5369     H
C       0.2448   0.4914   0.8739     C
H       0.2498   0.1064   0.9025     H
C      0.25133  0.58427    0.903     C
C      0.25428  0.85792   0.1191     C
C       0.2648   0.9938   0.0697     C
O      0.26623  0.16057    0.065     O
H       0.2838   0.8352   0.1564     H
H       0.2854   0.3572   0.0798     H
H       0.2881   0.3527   0.8965     H
C      0.29151  0.42089    0.095     C
H       0.2954   0.0866   0.7807     H
C      0.30005  0.59995   0.1386     C
H       0.3044   0.6628   0.1539     H
C       0.3095   0.9613   0.1231     C
C      0.31108  0.10892   0.9055     C
H       0.3162   0.6476   0.9245     H
C      0.32555  0.90385   0.4474     C
H       0.3317   0.5473   0.3424     H
S      0.33602  0.12752  0.07537     S
H       0.3368   0.1364   0.3222     H
H       0.3372   0.6956   0.3461     H
C      0.33862  0.48958   0.8749     C
C      0.33902  0.09798   0.8333     C
C      0.34435  0.40765   0.8883     C
H       0.3447   0.9947   0.3205     H
H       0.3501   0.4337   0.3989     H
O      0.35051  0.86423  0.39141     O
H       0.3524   0.6838   0.5755     H
H       0.3527   0.2881   0.3965     H
H       0.3533   0.8305   0.5805     H
H       0.3572   0.2854   0.5798     H
H       0.3593   0.1393   0.5752     H
H       0.3743   0.5791   0.6461     H
C      0.37596  0.12364   0.9835     C
H       0.3769   0.0083   0.1621     H
H       0.3786    0.434   0.6468     H
O      0.38614  0.98836  0.50752     O
O      0.38708  0.03546  0.68633     O
C      0.38778  0.51282   0.1195     C
C      0.38971  0.60389   0.1411     C
C      0.39611  0.61029   0.3589     C
C      0.40005  0.69995   0.3614     C
C      0.40149  0.14571   0.3429     C
C      0.40599  0.43161   0.3897     C
C      0.40682  0.06058   0.3424     C
C      0.40765  0.34435   0.3883     C
C      0.41573  0.74867    0.597     C
C      0.41699  0.83741   0.5998     C
C      0.42089  0.29151    0.595     C
H       0.4209   0.6257   0.8539     H
C      0.42287  0.56953   0.8626     C
C       0.4229   0.2037    0.593     C
O       0.4271   0.1849   0.1502     O
C      0.43037  0.10363   0.8372     C
C      0.43047  0.57713   0.6374     C
C      0.43161  0.40599   0.8897     C
C      0.43268  0.48952    0.637     C
H       0.4337   0.3501   0.8989     H
H        0.434   0.3786   0.1468     H
H       0.4418   0.8724   0.0804     H
O      0.44741  0.87081  0.23837     O
H       0.4527   0.6683   0.1576     H
C      0.45829  0.08851   0.7566     C
C      0.46796  0.13104   0.9881     C
C      0.48301  0.51319   0.1225     C
C      0.48681  0.51699   0.3775     C
C      0.48718  0.61222   0.3805     C
H       0.4882   0.8576   0.9594     H
N      0.48919  0.79369  0.38475     N
C      0.48952  0.43268    0.137     C
C      0.48958  0.33862   0.3749     C
C       0.4914   0.2448   0.3739     C
Co     0.49505  0.93123  0.37919    Co
C      0.49529  0.12171    0.916     C
N      0.49637  0.06713   0.3716     N
N      0.50363  0.93287   0.6284     N
C      0.50471  0.87829    0.084     C
Co     0.50495  0.06877  0.62081    Co
C       0.5086   0.7552   0.6261     C
C      0.51042  0.66138   0.6251     C
C      0.51048  0.56732    0.863     C
N      0.51081  0.20631  0.61525     N
H       0.5118   0.1424   0.0406     H
C      0.51282  0.38778   0.6195     C
C      0.51319  0.48301   0.6225     C
C      0.51699  0.48681   0.8775     C
C      0.53204  0.86896   0.0119     C
C      0.54171  0.91149   0.2434     C
H       0.5473   0.3317   0.8424     H
O      0.55259  0.12919  0.76163     O
H       0.5582   0.1276   0.9196     H
H        0.566   0.6214   0.8532     H
H       0.5663   0.6499   0.1011     H
C      0.56732  0.51048    0.363     C
C      0.56839  0.59401   0.1103     C
C      0.56953  0.42287   0.3626     C
C      0.56963  0.89637   0.1628     C
O       0.5729   0.8151   0.8498     O
C       0.5771   0.7963    0.407     C
C      0.57713  0.43047   0.1374     C
H       0.5791   0.3743   0.1461     H
C      0.57911  0.70849    0.405     C
C      0.58301  0.16259   0.4002     C
C      0.58427  0.25133    0.403     C
C      0.59235  0.65565   0.6117     C
C      0.59318  0.93942   0.6576     C
C      0.59401  0.56839   0.6103     C
C      0.59851  0.85429   0.6571     C
C      0.59995  0.30005   0.6386     C
C      0.60389  0.38971   0.6411     C
C      0.61029  0.39611   0.8589     C
C      0.61222  0.48718   0.8805     C
O      0.61292  0.96454  0.31367     O
O      0.61386  0.01164  0.49248     O
H       0.6214    0.566   0.3532     H
H       0.6231   0.9917   0.8379     H
C      0.62404  0.87636   0.0165     C
H       0.6257   0.4209   0.3539     H
H       0.6407   0.8607   0.4248     H
H       0.6428   0.7146   0.4202     H
H       0.6467   0.1695   0.4195     H
H       0.6473   0.7119   0.6035     H
H       0.6476   0.3162   0.4245     H
O      0.64949  0.13577  0.60859     O
H       0.6499   0.5663   0.6011     H
H       0.6553   0.0053   0.6795     H
C      0.65565  0.59235   0.1117     C
C      0.66098  0.90202   0.1667     C
C      0.66138  0.51042   0.1251     C
H       0.6628   0.3044   0.6539     H
H       0.6632   0.8636   0.6778     H
S      0.66398  0.87248  0.92463     S
H       0.6683   0.4527   0.6576     H
C      0.67445  0.09615   0.5526     C
H       0.6838   0.3524   0.0755     H
C      0.68892  0.89108   0.0945     C
C       0.6905   0.0387   0.8769     C
H       0.6956   0.3372   0.8461     H
C      0.69995  0.40005   0.8614     C
H       0.7046   0.9134   0.2193     H
C      0.70849  0.57911    0.905     C
H       0.7119   0.6473   0.1035     H
H       0.7146   0.6428   0.9202     H
H       0.7162   0.1648   0.8436     H
O      0.73377  0.83943    0.935     O
C       0.7352   0.0062   0.9303     C
C      0.74572  0.14208   0.8809     C
C      0.74867  0.41573    0.097     C
H       0.7502   0.8936   0.0975     H
C       0.7552   0.5086   0.1261     C
H       0.7756   0.0458   0.4631     H
C      0.78822  0.15518  0.55959     C
N      0.79369  0.48919  0.88475     N
C       0.7963   0.5771    0.907     C
O       0.8151   0.5729   0.3498     O
C      0.82276  0.11184   0.5043     C
H       0.8305   0.3533   0.0805     H
C      0.83455  0.07445     0.99     C
H       0.8352   0.2838   0.6564     H
C      0.83741  0.41699   0.0998     C
O      0.83943  0.73377    0.435     O
C      0.84482  0.21178  0.94041     C
C      0.85429  0.59851   0.1571     C
H       0.8576   0.4882   0.4594     H
C      0.85792  0.25428   0.6191     C
H       0.8607   0.6407   0.9248     H
H       0.8636   0.6632   0.1778     H
O      0.86423  0.35051  0.89141     O
H       0.8644   0.0506   0.0259     H
C      0.86896  0.53204   0.5119     C
O      0.87081  0.44741  0.73837     O
H       0.8724   0.4418   0.5804     H
S      0.87248  0.66398  0.42463     S
C      0.87636  0.62404   0.5165     C
C      0.87829  0.50471    0.584     C
C      0.88816  0.17724   0.9957     C
C      0.89108  0.68892   0.5945     C
H       0.8936   0.7502   0.5975     H
C      0.89637  0.56963   0.6628     C
C      0.90202  0.66098   0.6667     C
C      0.90385  0.32555   0.9474     C
C      0.91149  0.54171   0.7434     C
H       0.9134   0.7046   0.7193     H
C      0.92555  0.16545     0.51     C
Co     0.93123  0.49505  0.87919    Co
N      0.93287  0.50363   0.1284     N
C      0.93942  0.59318   0.1576     C
H       0.9494   0.1356   0.4741     H
H       0.9542   0.2244   0.0369     H
C       0.9613   0.3095   0.6231     C
O      0.96454  0.61292  0.81367     O
O      0.98836  0.38614  0.00752     O
H       0.9917   0.6231   0.3379     H
C       0.9938   0.2648   0.5697     C
H       0.9947   0.3447   0.8205     H
