data_I
_chemical_name_common  '/home/zhangsd/repos/MofS-CGCNN/ML/data/SSD/clean_cifs/YAZZAC_clean'
_cell_length_a  7.39910
_cell_length_b 11.47300
_cell_length_c 16.23350
_cell_angle_alpha 79.03800
_cell_angle_beta  82.58800
_cell_angle_gamma 79.97200
_space_group_name_H-M_alt      'P 1'


loop_
_space_group_symop_operation_xyz
  'x, y, z' 

loop_
_atom_site_label
_atom_site_fract_x
_atom_site_fract_y
_atom_site_fract_z
_atom_site_type_symbol
H       0.0023   0.7914   0.0339     H
O       0.0155   0.7564   0.9935     O
O       0.0187   0.7798   0.3455     O
C       0.0342    0.406   0.5665     C
Gd     0.05583  0.93622  0.22734    Gd
O       0.0713   0.7813   0.1456     O
C       0.0741   0.3053   0.6404     C
C       0.0995   0.5946   0.4853     C
O        0.116   0.9789   0.8887     O
H       0.1229   0.6121    0.895     H
C       0.1288   0.6498   0.0109     C
C       0.1343    0.501   0.5523     C
H       0.1532   0.1277    0.406     H
H       0.1581   0.7424   0.4402     H
C       0.1646   0.5809   0.9475     C
C        0.189   0.6867   0.1519     C
O        0.192   0.0027   0.3376     O
O       0.1972   0.3134   0.6836     O
H       0.2039   0.9564   0.0289     H
C        0.204   0.6077   0.0877     C
O       0.2054   0.6845   0.4725     O
O       0.2059   0.1587   0.4356     O
H       0.2238   0.5021   0.5874     H
C       0.2546   0.0329   0.8725     C
C       0.2619   0.4663   0.9622     C
O       0.2626   0.4385   0.8188     O
O       0.2716   0.1042    0.801     O
O       0.2954   0.6585   0.2101     O
C       0.2991   0.3936   0.8931     C
C        0.302    0.491   0.1024     C
C        0.324   0.9733   0.0178     C
C       0.3265   0.4197   0.0411     C
C       0.3307   0.9348    0.367     C
C       0.3502   0.0782   0.4666     C
H       0.3508   0.4615   0.1537     H
O       0.3658   0.9105   0.1648     O
O       0.3792   0.2846   0.9095     O
C       0.3881   0.0159   0.9351     C
H       0.3934   0.1789   0.5482     H
O       0.3983   0.8386   0.3421     O
C       0.4148   0.9701   0.4361     C
O        0.424   0.3055   0.0606     O
C       0.4324   0.9547   0.0854     C
H       0.4341   0.2712   0.0199     H
C       0.4359   0.1068    0.529     C
Gd      0.4467  0.26273  0.76355    Gd
Gd      0.5533  0.73727  0.23645    Gd
C       0.5641   0.8932    0.471     C
H       0.5659   0.7288   0.9801     H
C       0.5676   0.0453   0.9146     C
O        0.576   0.6945   0.9394     O
C       0.5852   0.0299   0.5639     C
O       0.6017   0.1614   0.6579     O
H       0.6066   0.8211   0.4518     H
C       0.6119   0.9841   0.0649     C
O       0.6208   0.7154   0.0905     O
O       0.6342   0.0895   0.8352     O
H       0.6492   0.5385   0.8463     H
C       0.6498   0.9218   0.5334     C
C       0.6693   0.0652    0.633     C
C       0.6735   0.5803   0.9589     C
C        0.676   0.0267   0.9822     C
C        0.698    0.509   0.8976     C
C       0.7009   0.6064   0.1069     C
O       0.7046   0.3415   0.7899     O
O       0.7284   0.8958    0.199     O
O       0.7374   0.5615   0.1812     O
C       0.7381   0.5337   0.0378     C
C       0.7454   0.9671   0.1275     C
H       0.7762   0.4979   0.4126     H
O       0.7941   0.8413   0.5644     O
O       0.7946   0.3155   0.5275     O
C        0.796   0.3923   0.9123     C
H       0.7961   0.0436   0.9711     H
O       0.8028   0.6866   0.3164     O
O        0.808   0.9973   0.6624     O
C        0.811   0.3133   0.8481     C
C       0.8354   0.4191   0.0525     C
H       0.8419   0.2576   0.5598     H
H       0.8468   0.8723    0.594     H
C       0.8657    0.499   0.4477     C
C       0.8712   0.3502   0.9891     C
H       0.8771   0.3879    0.105     H
O        0.884   0.0211   0.1113     O
C       0.9005   0.4054   0.5147     C
C       0.9259   0.6947   0.3596     C
O       0.9287   0.2187   0.8544     O
Gd     0.94417  0.06378  0.77266    Gd
C       0.9658    0.594   0.4335     C
O       0.9813   0.2202   0.6545     O
O       0.9845   0.2436   0.0065     O
H       0.9977   0.2086   0.9661     H
