data_I
_chemical_name_common  '/home/zhangsd/repos/MofS-CGCNN/ML/data/SSD/clean_cifs/YEGKOM_clean'
_cell_length_a 10.20400
_cell_length_b 10.20400
_cell_length_c 13.09980
_cell_angle_alpha 90.00000
_cell_angle_beta  90.00000
_cell_angle_gamma 90.00000
_space_group_name_H-M_alt      'P 1'


loop_
_space_group_symop_operation_xyz
  'x, y, z' 

loop_
_atom_site_label
_atom_site_fract_x
_atom_site_fract_y
_atom_site_fract_z
_atom_site_type_symbol
C        0.009   0.2713   0.8902     C
H       0.0115   0.6309   0.5165     H
H       0.0468   0.1215   0.6976     H
N        0.048   0.7741   0.3077     N
C        0.054   0.1649   0.7598     C
N        0.054   0.6586   0.4641     N
H       0.1215   0.0468   0.3024     H
H       0.1309   0.4885   0.2665     H
N       0.1333   0.2474   0.9004     N
H       0.1362   0.6421   0.4581     H
H       0.1421   0.3638   0.2081     H
N       0.1586    0.446   0.2141     N
N        0.163   0.1743   0.8109     N
C       0.1649    0.054   0.2402     C
N       0.1743    0.163   0.1891     N
N       0.2259    0.952   0.1923     N
C       0.2287    0.509   0.1402     C
Zn     0.23031  0.76969     0.25    Zn
N       0.2474   0.1333   0.0996     N
N       0.2526   0.6333   0.1504     N
Zn     0.26969  0.26969      0.0    Zn
C       0.2713    0.009   0.1098     C
N       0.2741    0.452   0.0577     N
N       0.3257    0.663   0.0609     N
C       0.3351    0.554   0.0098     C
N        0.337   0.6743   0.4391     N
N       0.3414    0.946   0.0359     N
H       0.3579   0.8638   0.0419     H
H       0.3638   0.1421   0.7919     H
N       0.3667   0.7474   0.3496     N
H       0.3691   0.9885   0.9835     H
H       0.3785   0.5468   0.9476     H
N        0.446   0.1586   0.7859     N
C        0.446   0.6649   0.4902     C
N        0.452   0.2741   0.9423     N
H       0.4532   0.6215   0.5524     H
H       0.4885   0.1309   0.7335     H
C        0.491   0.7713   0.3598     C
C        0.509   0.2287   0.8598     C
H       0.5115   0.8691   0.2335     H
H       0.5468   0.3785   0.0524     H
N        0.548   0.7259   0.4423     N
C        0.554   0.3351   0.9902     C
N        0.554   0.8414   0.2859     N
H       0.6215   0.4532   0.4476     H
H       0.6309   0.0115   0.4835     H
N       0.6333   0.2526   0.8496     N
H       0.6362   0.8579   0.2919     H
H       0.6421   0.1362   0.5419     H
N       0.6586    0.054   0.5359     N
N        0.663   0.3257   0.9391     N
C       0.6649    0.446   0.5098     C
N       0.6743    0.337   0.5609     N
N       0.7259    0.548   0.5577     N
C       0.7287    0.991   0.6098     C
Zn     0.73031  0.73031      0.5    Zn
N       0.7474   0.3667   0.6504     N
N       0.7526   0.8667   0.5996     N
Zn     0.76969  0.23031     0.75    Zn
C       0.7713    0.491   0.6402     C
N       0.7741    0.048   0.6923     N
N       0.8257    0.837   0.6891     N
C       0.8351    0.946   0.7402     C
N        0.837   0.8257   0.3109     N
N       0.8414    0.554   0.7141     N
H       0.8579   0.6362   0.7081     H
H       0.8638   0.3579   0.9581     H
N       0.8667   0.7526   0.4004     N
H       0.8691   0.5115   0.7665     H
H       0.8785   0.9532   0.8024     H
N        0.946   0.3414   0.9641     N
C        0.946   0.8351   0.2598     C
N        0.952   0.2259   0.8077     N
H       0.9532   0.8785   0.1976     H
H       0.9885   0.3691   0.0165     H
C        0.991   0.7287   0.3902     C
