data_I
_chemical_name_common  '/home/zhangsd/repos/MofS-CGCNN/ML/data/SSD/clean_cifs/YEKXET_clean'
_cell_length_a 15.17510
_cell_length_b 15.17510
_cell_length_c 22.56040
_cell_angle_alpha 90.00000
_cell_angle_beta  90.00000
_cell_angle_gamma 90.00000
_space_group_name_H-M_alt      'P 1'


loop_
_space_group_symop_operation_xyz
  'x, y, z' 

loop_
_atom_site_label
_atom_site_fract_x
_atom_site_fract_y
_atom_site_fract_z
_atom_site_type_symbol
C       0.0011   0.3123   0.4552     C
H       0.0059   0.2591   0.5371     H
H       0.0307   0.1457   0.7942     H
C       0.0327   0.7882   0.1922     C
C       0.0335   0.7173   0.0084     C
H       0.0366   0.6328   0.8775     H
O      0.04587  0.78038  0.13772     O
C       0.0577   0.6541   0.9145     C
C       0.0604   0.1926   0.7117     C
H       0.0696   0.7071   0.3444     H
C       0.0777   0.1622   0.7687     C
O        0.085   0.7782   0.2355     O
O       0.0933    0.782  0.41047     O
C       0.0987   0.3047  0.44276     C
C        0.112   0.7443   0.3627     C
N       0.1173   0.7143   0.0212     N
H       0.1207   0.2373   0.6375     H
O      0.12191   0.3338  0.39252     O
H        0.129   0.3121   0.1485     H
C        0.132    0.217   0.6766     C
H       0.1328   0.4634   0.1275     H
H       0.1355   0.1754   0.1737     H
H       0.1457   0.0307   0.2058     H
O        0.146    0.274  0.48227     O
C        0.147   0.6508   0.9268     C
C       0.1508    0.353   0.1768     C
C       0.1541   0.4423   0.1645     C
C       0.1564   0.1631   0.2125     C
C       0.1622   0.0777   0.2313     C
C       0.1631   0.1564   0.7875     C
O       0.1662  0.62191  0.14252     O
Zn     0.16679  0.74247   0.1061    Zn
C        0.175   0.6805   0.9819     C
H       0.1754   0.1355   0.8263     H
C       0.1804   0.2314    0.249     C
C       0.1805    0.325   0.2319     C
O      0.18652  0.75493  0.33823     O
C       0.1877   0.5011   0.2052     C
H       0.1879    0.629   0.8985     H
C       0.1926   0.0604   0.2883     C
C       0.1953   0.5987  0.19276     C
H       0.2071   0.4304   0.5944     H
C       0.2118   0.9673   0.3078     C
N       0.2131   0.2152    0.305     N
N       0.2143   0.3827   0.2712     N
N       0.2152   0.2131    0.695     N
C        0.217    0.132   0.3234     C
C       0.2173   0.4665   0.2584     C
O        0.218   0.9067  0.08953     O
O      0.21962  0.95413  0.36228     O
Zn     0.22128  0.77872     0.25    Zn
O       0.2218    0.915   0.2645     O
O        0.226    0.646  0.23227     O
C       0.2314   0.1804    0.751     C
H       0.2373   0.1207   0.3625     H
H       0.2409   0.5059   0.2871     H
Zn     0.24247  0.33321   0.3561    Zn
C       0.2443    0.388   0.6127     C
O      0.24507  0.81348  0.16177     O
O      0.25493  0.31348  0.58823     O
C       0.2557    0.888   0.1373     C
Zn     0.25753  0.83321  0.39391    Zn
H       0.2591   0.0059   0.4629     H
H       0.2627   0.6207   0.3875     H
C       0.2686   0.6804    0.999     C
O        0.274    0.146  0.51773     O
O       0.2782    0.415   0.4855     O
Zn     0.27872  0.27872      0.5    Zn
O      0.28038  0.45413  0.38772     O
O        0.282   0.4067  0.66047     O
C       0.2827   0.9665   0.4916     C
C        0.283    0.632   0.4266     C
N       0.2848   0.7131    0.055     N
N       0.2857   0.8827   0.4788     N
N       0.2869   0.7152    0.445     N
C       0.2882   0.4673   0.4422     C
H       0.2929   0.9304   0.1556     H
C       0.3047   0.0987  0.55724     C
C       0.3074   0.5604   0.4617     C
H       0.3121    0.129   0.8515     H
C       0.3123   0.0011   0.5448     C
O      0.31348  0.25493  0.41177     O
C       0.3195    0.825   0.5181     C
C       0.3196   0.7314    0.501     C
H       0.3246   0.6355   0.9237     H
C        0.325   0.1805   0.7681     C
Zn     0.33321  0.24247  0.64391    Zn
O       0.3338  0.12191  0.60748     O
C       0.3369   0.6564   0.9625     C
C       0.3378   0.5777   0.5187     C
C       0.3436   0.6631   0.5375     C
C       0.3459   0.9423   0.5855     C
C       0.3492    0.853   0.5732     C
C        0.353   0.1508   0.8232     C
O        0.354    0.774  0.26773     O
H       0.3543   0.5307   0.5442     H
H       0.3645   0.6754   0.5763     H
H       0.3672   0.9634   0.6225     H
C        0.368    0.717   0.0734     C
H        0.371   0.8121   0.6015     H
O      0.37809   0.8338  0.35748     O
H       0.3793   0.7373   0.1125     H
N       0.3827   0.2143   0.7288     N
C        0.388   0.2443   0.3873     C
C       0.4013   0.8047  0.30724     C
O       0.4067    0.282  0.33953     O
O        0.415   0.2782   0.5145     O
C       0.4223   0.6622   0.9813     C
H       0.4304   0.2071   0.4056     H
C       0.4396   0.6926   0.0383     C
C       0.4423   0.1541   0.8355     C
O      0.45413  0.28038  0.61228     O
H       0.4634   0.1328   0.8725     H
C       0.4665   0.2173   0.7416     C
C       0.4673   0.2882   0.5578     C
H       0.4693   0.6457   0.9558     H
H       0.4941   0.7591   0.2129     H
C       0.4989   0.8123   0.2948     C
C       0.5011   0.1877   0.7948     C
H       0.5059   0.2409   0.7129     H
H       0.5307   0.3543   0.4558     H
C       0.5327   0.7118   0.0578     C
C       0.5335   0.7827   0.2416     C
H       0.5366   0.8672   0.3725     H
O      0.54587  0.71962  0.11228     O
C       0.5577   0.8459   0.3355     C
C       0.5604   0.3074   0.5383     C
H       0.5696   0.7929   0.9056     H
C       0.5777   0.3378   0.4813     C
O        0.585   0.7218   0.0145     O
O       0.5933    0.718  0.83953     O
C       0.5987   0.1953  0.80724     C
C        0.612   0.7557   0.8873     C
N       0.6173   0.7857   0.2288     N
H       0.6207   0.2627   0.6125     H
O      0.62191   0.1662  0.85748     O
H        0.629   0.1879   0.1015     H
C        0.632    0.283   0.5734     C
H       0.6328   0.0366   0.1225     H
H       0.6355   0.3246   0.0763     H
H       0.6457   0.4693   0.0442     H
O        0.646    0.226  0.76773     O
C        0.647   0.8492   0.3232     C
C       0.6508    0.147   0.0732     C
C       0.6541   0.0577   0.0855     C
C       0.6564   0.3369   0.0375     C
C       0.6622   0.4223   0.0187     C
C       0.6631   0.3436   0.4625     C
O       0.6662  0.87809  0.10748     O
Zn     0.66679  0.75753  0.14391    Zn
C        0.675   0.8195   0.2681     C
H       0.6754   0.3645   0.4237     H
C       0.6804   0.2686    0.001     C
C       0.6805    0.175   0.0181     C
O      0.68652  0.74507  0.91177     O
C       0.6877   0.9989   0.0448     C
H       0.6879    0.871   0.3515     H
C       0.6926   0.4396   0.9617     C
C       0.6953   0.9013  0.05724     C
H       0.7071   0.0696   0.6556     H
C       0.7118   0.5327   0.9422     C
N       0.7131   0.2848    0.945     N
N       0.7143   0.1173   0.9788     N
N       0.7152   0.2869    0.555     N
C        0.717    0.368   0.9266     C
C       0.7173   0.0335   0.9916     C
O        0.718   0.5933  0.16047     O
O      0.71962  0.54587  0.88772     O
Zn     0.72128  0.72128      0.0    Zn
O       0.7218    0.585   0.9855     O
O        0.726    0.854  0.01773     O
C       0.7314   0.3196    0.499     C
H       0.7373   0.3793   0.8875     H
H       0.7409   0.9941   0.9629     H
Zn     0.74247  0.16679  0.89391    Zn
C       0.7443    0.112   0.6373     C
O      0.74507  0.68652  0.08823     O
O      0.75493  0.18652  0.66177     O
C       0.7557    0.612   0.1127     C
Zn     0.75753  0.66679  0.85609    Zn
H       0.7591   0.4941   0.7871     H
H       0.7627   0.8793   0.8625     H
C       0.7686   0.8196    0.251     C
O        0.774    0.354  0.73227     O
O       0.7782    0.085   0.7645     O
Zn     0.77872  0.22128     0.75    Zn
O      0.78038  0.04587  0.86228     O
O        0.782   0.0933  0.58953     O
C       0.7827   0.5335   0.7584     C
C        0.783    0.868   0.8234     C
N       0.7848   0.7869    0.195     N
N       0.7857   0.6173   0.7712     N
N       0.7869   0.7848    0.805     N
C       0.7882   0.0327   0.8078     C
H       0.7929   0.5696   0.0944     H
C       0.8047   0.4013  0.69276     C
C       0.8074   0.9396   0.7883     C
H       0.8121    0.371   0.3985     H
C       0.8123   0.4989   0.7052     C
O      0.81348  0.24507  0.83823     O
C       0.8195    0.675   0.7319     C
C       0.8196   0.7686    0.749     C
H       0.8246   0.8645   0.3263     H
C        0.825   0.3195   0.4819     C
Zn     0.83321  0.25753  0.60609    Zn
O       0.8338  0.37809  0.64252     O
C       0.8369   0.8436   0.2875     C
C       0.8378   0.9223   0.7313     C
C       0.8436   0.8369   0.7125     C
C       0.8459   0.5577   0.6645     C
C       0.8492    0.647   0.6768     C
C        0.853   0.3492   0.4268     C
O        0.854    0.726  0.98227     O
H       0.8543   0.9693   0.7058     H
H       0.8645   0.8246   0.6737     H
H       0.8672   0.5366   0.6275     H
C        0.868    0.783   0.1766     C
H        0.871   0.6879   0.6485     H
O      0.87809   0.6662  0.89252     O
H       0.8793   0.7627   0.1375     H
N       0.8827   0.2857   0.5212     N
C        0.888   0.2557   0.8627     C
C       0.9013   0.6953  0.94276     C
O       0.9067    0.218  0.91047     O
O        0.915   0.2218   0.7355     O
C       0.9223   0.8378   0.2687     C
H       0.9304   0.2929   0.8444     H
C       0.9396   0.8074   0.2117     C
C       0.9423   0.3459   0.4145     C
O      0.95413  0.21962  0.63772     O
H       0.9634   0.3672   0.3775     H
C       0.9665   0.2827   0.5084     C
C       0.9673   0.2118   0.6922     C
H       0.9693   0.8543   0.2942     H
H       0.9941   0.7409   0.0371     H
C       0.9989   0.6877   0.9552     C
