data_I
_chemical_name_common  '/home/zhangsd/repos/MofS-CGCNN/ML/data/SSD/clean_cifs/YEKXOD_clean'
_cell_length_a 16.67270
_cell_length_b 17.59160
_cell_length_c 18.73400
_cell_angle_alpha 77.82670
_cell_angle_beta  63.57770
_cell_angle_gamma 61.71350
_space_group_name_H-M_alt      'P 1'


loop_
_space_group_symop_operation_xyz
  'x, y, z' 

loop_
_atom_site_label
_atom_site_fract_x
_atom_site_fract_y
_atom_site_fract_z
_atom_site_type_symbol
Cu      0.0008  0.93688   0.0522    Cu
Cu     0.01012  0.43688   0.5522    Cu
O      0.01679  0.60974  0.51688     O
O      0.02652  0.99644  0.11072     O
O       0.0266  0.10282  0.02098     O
O      0.03062  0.50442  0.60834     O
O      0.03504  0.49558  0.10834     O
C      0.03542  0.57396   0.5772     C
C      0.03909  0.06362   0.0824     C
O      0.04758  0.60282  0.97902     O
Cu       0.053  0.43688   0.9478    Cu
H       0.0571     0.21    0.061     H
H       0.0606    0.546   0.7136     H
C      0.06624  0.61834  0.61338     C
C      0.06996  0.09984  0.12504     C
C      0.07346  0.17946  0.10322     C
C      0.07364  0.59244  0.68668     C
H       0.0816   0.7054   0.5252     H
C       0.0868  0.68726  0.57404     C
H       0.0911   0.0034   0.2054     H
C      0.09436  0.05604  0.18924     C
C      0.09996  0.63558   0.7195     C
C       0.1008  0.21306  0.14354     C
H       0.1031    0.266    0.128     H
H       0.1041    0.618   0.7686     H
H       0.1066    0.454   0.2136     H
C      0.10938  0.42604   0.0772     C
C      0.11479  0.72924  0.60618     C
H       0.1157     0.75   0.7686     H
H       0.1181   0.2638     0.25     H
H       0.1181     0.71    0.939     H
C      0.12059  0.70508  0.68054     C
C      0.12149  0.56362   0.9176     C
C      0.12277  0.08912  0.22874     C
C      0.12519  0.16914  0.20728     C
O      0.12653  0.39026  0.01688     O
H       0.1273    0.882   0.7686     H
H       0.1301   0.7742   0.5782     H
H       0.1309    0.266    0.372     H
O      0.13368  0.50356  0.38928     O
O      0.13724  0.49644  0.88928     O
H       0.1408    0.058   0.2702     H
N      0.14132     0.75  0.71736     N
O      0.14338  0.99558  0.89166     O
O      0.14341  0.89026  0.98312     O
N      0.14582  0.20836     0.25     N
O       0.1504  0.39718  0.47902     O
C      0.16608  0.40756  0.18668     C
C      0.17668  0.67946  0.89678     C
C      0.18054  0.86442   0.7195     C
C      0.18458  0.38166  0.11338     C
C      0.18511  0.43638   0.4176     C
C      0.18614  0.21306  0.35646     C
C      0.18658  0.92604   0.9228     C
C        0.195  0.59984  0.87496     C
C      0.19887  0.79492  0.68054     C
C      0.20567  0.16914  0.29272     C
H       0.2221    0.382   0.2686     H
H       0.2258    0.954   0.7136     H
H       0.2311    0.766    0.872     H
H       0.2329     0.21    0.439     H
C      0.23554  0.36442   0.2195     C
C      0.23968  0.90756  0.68668     C
C      0.24434  0.71306  0.85646     C
C      0.24708  0.17946  0.39678     C
C      0.27406  0.31274  0.07404     C
C      0.27903  0.77076  0.60618     C
C       0.2836  0.55604  0.81076     C
H        0.287   0.2946   0.0252     H
C      0.28811  0.08912  0.27126     C
H       0.2917   0.7258   0.5782     H
C      0.29484  0.40016  0.37496     C
H       0.2965   0.5034   0.7946     H
C      0.29796  0.88166  0.88662     C
H       0.2999   0.4966   0.2946     H
H       0.3012    0.058   0.2298     H
H       0.3122   0.7946   0.9748     H
H       0.3202    0.954   0.7864     H
C      0.32038  0.88166  0.61338     C
C      0.32567  0.29492  0.18054     C
H       0.3281     0.29    0.439     H
C       0.3302  0.09984  0.37496     C
C      0.33247  0.66914  0.79272     C
C      0.33916  0.81274  0.57404     C
C      0.33964  0.44396  0.31076     C
C      0.34403  0.27076  0.10618     C
C       0.3481  0.81274  0.92596     C
C       0.3496  0.05604  0.31076     C
C      0.35151  0.58912  0.77126     C
C      0.35276  0.90756  0.81332     C
C      0.35614  0.32054  0.39678     C
O      0.36104  0.99558  0.60834     O
H       0.3657     0.25   0.2686     H
H       0.3681   0.7638     0.75     H
O      0.37058  0.10282  0.47902     O
C      0.38738  0.92604   0.5772     C
N      0.39132     0.25  0.21736     N
H       0.3932   0.7946   0.5252     H
N      0.39582  0.70836     0.75     N
C      0.39729  0.06362   0.4176     C
H       0.4043   0.2258   0.0782     H
H       0.4055   0.0034   0.2946     H
H        0.411    0.558   0.7298     H
Cu     0.43768  0.06312   0.5522    Cu
C      0.44063  0.41088  0.27126     C
C      0.45021  0.77076  0.89382     C
C      0.45504  0.86442   0.7805     C
C       0.4574  0.28694  0.35646     C
O      0.46633  0.89026  0.51688     O
H        0.469    0.442   0.2298     H
O      0.47704  0.99644  0.38928     O
H       0.4825   0.7258   0.9218     H
H       0.4907    0.882   0.7314     H
C      0.49379  0.20508  0.18054     C
H       0.4971    0.234    0.372     H
C      0.49839  0.66914  0.70728     C
C      0.50161  0.33086  0.29272     C
H       0.5029    0.766    0.628     H
C      0.50621  0.79492  0.81946     C
H       0.5093    0.118   0.2686     H
H       0.5175   0.2742   0.0782     H
O      0.52296  0.00356  0.61072     O
H        0.531    0.558   0.7702     H
O      0.53367  0.10974  0.48312     O
C       0.5426  0.71306  0.64354     C
C      0.54496  0.13558   0.2195     C
C      0.54979  0.22924  0.10618     C
C      0.55937  0.58912  0.72874     C
Cu     0.56232  0.93688   0.4478    Cu
H        0.589    0.442   0.2702     H
H       0.5945   0.9966   0.7054     H
H       0.5957   0.7742   0.9218     H
C      0.60271  0.93638   0.5824     C
N      0.60418  0.29164     0.25     N
H       0.6068   0.2054   0.4748     H
N      0.60868     0.75  0.78264     N
C      0.61262  0.07396   0.4228     C
O      0.62942  0.89718  0.52098     O
H       0.6319   0.2362     0.25     H
H       0.6343     0.75   0.7314     H
O      0.63896  0.00442  0.39166     O
C      0.64386  0.67946  0.60322     C
C      0.64724  0.09244  0.18668     C
C      0.64849  0.41088  0.22874     C
C       0.6504  0.94396  0.68924     C
C       0.6519  0.18726  0.07404     C
C      0.65597  0.72924  0.89382     C
C      0.66036  0.55604  0.68924     C
C      0.66084  0.18726  0.42596     C
C      0.66753  0.33086  0.20728     C
C       0.6698  0.90016  0.62504     C
H       0.6719     0.71    0.561     H
C      0.67433  0.70508  0.81946     C
C      0.67962  0.11834  0.38662     C
H       0.6798    0.046   0.2136     H
H       0.6878   0.2054   0.0252     H
H       0.6988    0.942   0.7702     H
H       0.7001   0.5034   0.7054     H
C      0.70204  0.11834  0.11338     C
H       0.7035   0.4966   0.2054     H
C      0.70516  0.59984  0.62504     C
H       0.7083   0.2742   0.4218     H
C      0.71189  0.91088  0.72874     C
H        0.713   0.7054   0.9748     H
C       0.7164  0.44396  0.18924     C
C      0.72097  0.22924  0.39382     C
C      0.72594  0.68726  0.92596     C
C      0.75292  0.82054  0.60322     C
C      0.75566  0.28694  0.14354     C
C      0.76032  0.09244  0.31332     C
C      0.76446  0.63558   0.7805     C
H       0.7671     0.79    0.561     H
H       0.7689    0.234    0.128     H
H       0.7742    0.046   0.2864     H
H       0.7779    0.618   0.7314     H
C      0.79433  0.83086  0.70728     C
C      0.80113  0.20508  0.31946     C
C        0.805  0.40016  0.12504     C
C      0.81342  0.07396   0.0772     C
C      0.81386  0.78694  0.64354     C
C      0.81489  0.56362   0.5824     C
C      0.81542  0.61834  0.88662     C
C      0.81946  0.13558   0.2805     C
C      0.82332  0.32054  0.10322     C
C      0.83392  0.59244  0.81332     C
O       0.8496  0.60282  0.52098     O
N      0.85418  0.79164     0.75     N
O      0.85659  0.10974  0.01688     O
O      0.85662  0.00442  0.10834     O
N      0.85868     0.25  0.28264     N
H       0.8592    0.942   0.7298     H
O      0.86276  0.50356  0.11072     O
O      0.86632  0.49644  0.61072     O
H       0.8691    0.734    0.628     H
H       0.8699   0.2258   0.4218     H
H       0.8727    0.118   0.2314     H
O      0.87347  0.60974  0.98312     O
C      0.87481  0.83086  0.79272     C
C      0.87723  0.91088  0.77126     C
C      0.87851  0.43638   0.0824     C
C      0.87941  0.29492  0.31946     C
H       0.8819     0.29    0.061     H
H       0.8819   0.7362     0.75     H
H       0.8843     0.25   0.2314     H
C      0.88521  0.27076  0.39382     C
C      0.89062  0.57396   0.9228     C
H       0.8934    0.546   0.7864     H
H       0.8959    0.382   0.2314     H
H       0.8969    0.734    0.872     H
C       0.8992  0.78694  0.85646     C
C      0.90004  0.36442   0.2805     C
C      0.90564  0.94396  0.81076     C
H       0.9089   0.9966   0.7946     H
C       0.9132  0.31274  0.42596     C
H       0.9184   0.2946   0.4748     H
C      0.92636  0.40756  0.31332     C
C      0.92654  0.82054  0.89678     C
C      0.93004  0.90016  0.87496     C
C      0.93376  0.38166  0.38662     C
H       0.9394    0.454   0.2864     H
H       0.9429     0.79    0.939     H
Cu       0.947  0.56312   0.0522    Cu
O      0.95242  0.39718  0.02098     O
C      0.96091  0.93638   0.9176     C
C      0.96458  0.42604   0.4228     C
O      0.96496  0.50442  0.89166     O
O      0.96938  0.49558  0.39166     O
O       0.9734  0.89718  0.97902     O
O      0.97348  0.00356  0.88928     O
O      0.98321  0.39026  0.48312     O
Cu     0.98988  0.56312   0.4478    Cu
Cu      0.9992  0.06312   0.9478    Cu
