data_I
_chemical_name_common  '/home/zhangsd/repos/MofS-CGCNN/ML/data/SSD/clean_cifs/YINCOP_clean'
_cell_length_a  9.38650
_cell_length_b 17.44690
_cell_length_c 17.44690
_cell_angle_alpha 104.36500
_cell_angle_beta  102.82300
_cell_angle_gamma 77.17680
_space_group_name_H-M_alt      'P 1'


loop_
_space_group_symop_operation_xyz
  'x, y, z' 

loop_
_atom_site_label
_atom_site_fract_x
_atom_site_fract_y
_atom_site_fract_z
_atom_site_type_symbol
Mn         0.0      0.0      0.5    Mn
C       0.0069  0.47564  0.38784     C
C       0.0138   0.5922  0.34218     C
H       0.0158   0.7792    0.023     H
C       0.0199  0.77457  0.83963     C
C       0.0365  0.20621  0.09079     C
C       0.0503  0.76486  0.97454     C
Mn     0.05933  0.18678  0.68148    Mn
H       0.0644   0.6316     0.34     H
C       0.0667  0.22589  0.30111     C
O       0.0674  0.18793  0.22123     O
O       0.0682  0.09261  0.46821     O
C       0.0705  0.30751  0.32629     C
H       0.0707   0.3387   0.2901     H
C       0.0733  0.17913  0.35517     C
C       0.0739  0.34069  0.40671     C
H        0.074   0.1242   0.3376     H
C       0.0787  0.21432  0.43596     C
C       0.0792   0.1655   0.4963     C
O       0.0796  0.42153  0.43665     O
C       0.0801   0.2954   0.4618     C
C       0.0827  0.53457  0.38591     C
H       0.0851   0.3193   0.5161     H
O       0.0906  0.19988  0.56842     O
O        0.096  0.04218  0.64222     O
H       0.1299   0.1748   0.0876     H
C       0.1305  0.40794  0.69868     C
C       0.1374  0.52548  0.65372     C
O       0.1432  0.28956  0.74534     O
C       0.1543   0.7233   0.8335     C
O       0.1628  0.78171  0.34965     O
H       0.1745   0.8942     0.66     H
H       0.1793   0.5351   0.4139     H
C       0.1865  0.71529  0.97023     C
H       0.1877   0.5652    0.652     H
H       0.1892   0.7086    0.785     H
H        0.199   0.7255   0.4687     H
C       0.2049  0.46784    0.697     C
C       0.2081  0.34326  0.74394     C
C       0.2201  0.04502  0.68918     C
O       0.2334  0.71852  0.11058     O
C       0.2353  0.69442  0.89858     C
C       0.2647  0.89858  0.69442     C
O       0.2666  0.11058  0.71852     O
C       0.2799  0.68918  0.04502     C
C       0.2919  0.74394  0.34326     C
C       0.2951    0.697  0.46784     C
H        0.301   0.4687   0.7255     H
H       0.3108    0.785   0.7086     H
H       0.3123    0.652   0.5652     H
C       0.3135  0.97023  0.71529     C
H       0.3207   0.4139   0.5351     H
H       0.3255     0.66   0.8942     H
O       0.3372  0.34965  0.78171     O
C       0.3457   0.8335   0.7233     C
O       0.3568  0.74534  0.28956     O
C       0.3626  0.65372  0.52548     C
C       0.3695  0.69868  0.40794     C
H       0.3701   0.0876   0.1748     H
O        0.404  0.64222  0.04218     O
O       0.4094  0.56842  0.19988     O
H       0.4149   0.5161   0.3193     H
C       0.4173  0.38591  0.53457     C
C       0.4199   0.4618   0.2954     C
O       0.4204  0.43665  0.42153     O
C       0.4208   0.4963   0.1655     C
C       0.4213  0.43596  0.21432     C
H        0.426   0.3376   0.1242     H
C       0.4261  0.40671  0.34069     C
C       0.4267  0.35517  0.17913     C
H       0.4293   0.2901   0.3387     H
C       0.4295  0.32629  0.30751     C
O       0.4318  0.46821  0.09261     O
O       0.4326  0.22123  0.18793     O
C       0.4333  0.30111  0.22589     C
H       0.4356     0.34   0.6316     H
Mn     0.44067  0.68148  0.18678    Mn
C       0.4497  0.97454  0.76486     C
C       0.4635  0.09079  0.20621     C
C       0.4801  0.83963  0.77457     C
H       0.4842    0.023   0.7792     H
C       0.4862  0.34218   0.5922     C
C       0.4931  0.38784  0.47564     C
Mn         0.5      0.5      0.0    Mn
C       0.5069  0.61216  0.52436     C
C       0.5138  0.65782   0.4078     C
H       0.5158    0.977   0.2208     H
C       0.5199  0.16037  0.22543     C
C       0.5365  0.90921  0.79379     C
C       0.5503  0.02546  0.23514     C
Mn     0.55933  0.31852  0.81322    Mn
H       0.5644     0.66   0.3684     H
C       0.5667  0.69889  0.77411     C
O       0.5674  0.77877  0.81207     O
O       0.5682  0.53179  0.90739     O
C       0.5705  0.67371  0.69249     C
H       0.5707   0.7099   0.6613     H
C       0.5733  0.64483  0.82087     C
C       0.5739  0.59329  0.65931     C
H        0.574   0.6624   0.8758     H
C       0.5787  0.56404  0.78568     C
C       0.5792   0.5037   0.8345     C
O       0.5796  0.56335  0.57847     O
C       0.5801   0.5382   0.7046     C
C       0.5827  0.61409  0.46543     C
H       0.5851   0.4839   0.6807     H
O       0.5906  0.43158  0.80012     O
O        0.596  0.35778  0.95782     O
H       0.6299   0.9124   0.8252     H
C       0.6305  0.30132  0.59206     C
C       0.6374  0.34628  0.47452     C
O       0.6432  0.25466  0.71044     O
C       0.6543   0.1665   0.2767     C
O       0.6628  0.65035  0.21829     O
H       0.6745     0.34   0.1058     H
H       0.6793   0.5861   0.4649     H
C       0.6865  0.02977  0.28471     C
H       0.6877    0.348   0.4348     H
H       0.6892    0.215   0.2914     H
H        0.699   0.5313   0.2745     H
C       0.7049    0.303  0.53216     C
C       0.7081  0.25606  0.65674     C
C       0.7201  0.31082  0.95498     C
O       0.7334  0.88942  0.28148     O
C       0.7353  0.10142  0.30558     C
C       0.7647  0.30558  0.10142     C
O       0.7666  0.28148  0.88942     O
C       0.7799  0.95498  0.31082     C
C       0.7919  0.65674  0.25606     C
C       0.7951  0.53216    0.303     C
H        0.801   0.2745   0.5313     H
H       0.8108   0.2914    0.215     H
H       0.8123   0.4348    0.348     H
C       0.8135  0.28471  0.02977     C
H       0.8207   0.4649   0.5861     H
H       0.8255   0.1058     0.34     H
O       0.8372  0.21829  0.65035     O
C       0.8457   0.2767   0.1665     C
O       0.8568  0.71044  0.25466     O
C       0.8626  0.47452  0.34628     C
C       0.8695  0.59206  0.30132     C
H       0.8701   0.8252   0.9124     H
O        0.904  0.95782  0.35778     O
O       0.9094  0.80012  0.43158     O
H       0.9149   0.6807   0.4839     H
C       0.9173  0.46543  0.61409     C
C       0.9199   0.7046   0.5382     C
O       0.9204  0.57847  0.56335     O
C       0.9208   0.8345   0.5037     C
C       0.9213  0.78568  0.56404     C
H        0.926   0.8758   0.6624     H
C       0.9261  0.65931  0.59329     C
C       0.9267  0.82087  0.64483     C
H       0.9293   0.6613   0.7099     H
C       0.9295  0.69249  0.67371     C
O       0.9318  0.90739  0.53179     O
O       0.9326  0.81207  0.77877     O
C       0.9333  0.77411  0.69889     C
H       0.9356   0.3684     0.66     H
Mn     0.94067  0.81322  0.31852    Mn
C       0.9497  0.23514  0.02546     C
C       0.9635  0.79379  0.90921     C
C       0.9801  0.22543  0.16037     C
H       0.9842   0.2208    0.977     H
C       0.9862   0.4078  0.65782     C
C       0.9931  0.52436  0.61216     C
