data_I
_chemical_name_common  '/home/zhangsd/repos/MofS-CGCNN/ML/data/SSD/clean_cifs/YITHIU_clean'
_cell_length_a  7.64860
_cell_length_b 22.01900
_cell_length_c  6.15500
_cell_angle_alpha 90.00000
_cell_angle_beta  90.00000
_cell_angle_gamma 90.00000
_space_group_name_H-M_alt      'P 1'


loop_
_space_group_symop_operation_xyz
  'x, y, z' 

loop_
_atom_site_label
_atom_site_fract_x
_atom_site_fract_y
_atom_site_fract_z
_atom_site_type_symbol
S          0.0      0.5   0.4468     S
H       0.0035   0.7881   0.0481     H
Ce     0.02062  0.35422  0.43928    Ce
O       0.0274   0.6542   0.8351     O
C       0.0546  0.20977   0.1898     C
O        0.086  0.75043   0.5063     O
C       0.0867  0.79219   0.3678     C
H       0.0918   0.1174   0.1424     H
O       0.1013  0.54281    0.313     O
O       0.1153  0.46179   0.5815     O
H       0.1408   0.1147   0.4712     H
O       0.1584  0.26318   0.2173     O
C       0.1621  0.15106   0.1991     C
C       0.1701  0.65665   0.9347     C
O       0.1861  0.66324   0.1368     O
O       0.1927  0.83551   0.3678     O
O       0.2122  0.13791   0.4166     O
H       0.2365   0.2564   0.3054     H
H       0.2635   0.7564   0.6946     H
O       0.2878  0.63791   0.5834     O
O       0.3073  0.33551   0.6322     O
O       0.3139  0.16324   0.8632     O
C       0.3299  0.15665   0.0653     C
C       0.3379  0.65106   0.8009     C
O       0.3416  0.76318   0.7827     O
H       0.3592   0.6147   0.5288     H
O       0.3847  0.96179   0.4185     O
O       0.3987  0.04281    0.687     O
H       0.4082   0.6174   0.8576     H
C       0.4133  0.29219   0.6322     C
O        0.414  0.25043   0.4937     O
C       0.4454  0.70977   0.8102     C
O       0.4726   0.1542   0.1649     O
Ce     0.47938  0.85422  0.56072    Ce
H       0.4965   0.2881   0.9519     H
S          0.5      0.0   0.5532     S
H       0.5035   0.7119   0.9519     H
Ce     0.52062  0.14578  0.56072    Ce
O       0.5274   0.8458   0.1649     O
C       0.5546  0.29023   0.8102     C
O        0.586  0.74957   0.4937     O
C       0.5867  0.70781   0.6322     C
H       0.5918   0.3826   0.8576     H
O       0.6013  0.95719    0.687     O
O       0.6153  0.03821   0.4185     O
H       0.6408   0.3853   0.5288     H
O       0.6584  0.23682   0.7827     O
C       0.6621  0.34894   0.8009     C
C       0.6701  0.84335   0.0653     C
O       0.6861  0.83676   0.8632     O
O       0.6927  0.66449   0.6322     O
O       0.7122  0.36209   0.5834     O
H       0.7365   0.2436   0.6946     H
H       0.7635   0.7436   0.3054     H
O       0.7878  0.86209   0.4166     O
O       0.8073  0.16449   0.3678     O
O       0.8139  0.33676   0.1368     O
C       0.8299  0.34335   0.9347     C
C       0.8379  0.84894   0.1991     C
O       0.8416  0.73682   0.2173     O
H       0.8592   0.8853   0.4712     H
O       0.8847  0.53821   0.5815     O
O       0.8987  0.45719    0.313     O
H       0.9082   0.8826   0.1424     H
C       0.9133  0.20781   0.3678     C
O        0.914  0.24957   0.5063     O
C       0.9454  0.79023   0.1898     C
O       0.9726   0.3458   0.8351     O
Ce     0.97938  0.64578  0.43928    Ce
H       0.9965   0.2119   0.0481     H
