data_I
_chemical_name_common  '/home/zhangsd/repos/MofS-CGCNN/ML/data/SSD/clean_cifs/YIXZEM_clean'
_cell_length_a 21.23000
_cell_length_b 21.23000
_cell_length_c  6.02900
_cell_angle_alpha 90.00000
_cell_angle_beta  90.00000
_cell_angle_gamma 90.00000
_space_group_name_H-M_alt      'P 1'


loop_
_space_group_symop_operation_xyz
  'x, y, z' 

loop_
_atom_site_label
_atom_site_fract_x
_atom_site_fract_y
_atom_site_fract_z
_atom_site_type_symbol
N       0.0009   0.8646   0.0045     N
H       0.0034   0.5763   0.9929     H
C       0.0055   0.3802    0.501     C
H       0.0062   0.0776   0.3798     H
N       0.0078   0.1632   0.7865     N
C       0.0104   0.4224    0.153     C
H       0.0119   0.6483   0.3992     H
C       0.0179   0.6179    0.707     C
C       0.0359   0.0615    0.281     C
C        0.041   0.7971    0.226     C
C       0.0416   0.0856    0.067     C
H       0.0483   0.7715    0.349     H
C       0.0505   0.8414    0.905     C
C       0.0539   0.4185    0.573     C
C       0.0615   0.4641    0.219     C
H        0.064   0.8528   0.7642     H
H       0.0654   0.4172   0.7213     H
C       0.0751   0.6552    0.783     C
H       0.0763   0.9966   0.4929     H
C       0.0776   0.0104    0.347     C
H       0.0776   0.4938   0.1202     H
N       0.0799   0.7974   0.0397     N
C       0.0815   0.0539    0.927     C
H       0.0828   0.0654   0.7787     H
C       0.0856   0.4584    0.433     C
O        0.096   0.6991   0.6589     O
O       0.0998   0.6433   0.9749     O
C       0.1179   0.9821    0.207     C
C       0.1198   0.0055    0.999     C
N       0.1354   0.5009   0.5045     N
O       0.1433   0.9002   0.4749     O
H       0.1472    0.564   0.2642     H
H       0.1483   0.9881   0.8992     H
H        0.153    0.703     0.34     H
C       0.1552   0.9249    0.283     C
C       0.1586   0.5505    0.405     C
N       0.1632   0.4922   0.7135     N
Cd     0.17019  0.73064  0.96341    Cd
O       0.1872   0.7326   0.3422     O
O       0.1991    0.904   0.1589     O
N       0.2026   0.5799   0.5397     N
C       0.2029    0.541    0.726     C
H        0.203    0.847     0.84     H
H       0.2285   0.5483    0.849     H
Cd     0.23064  0.82981  0.46341    Cd
O       0.2326   0.8128   0.8422     O
O       0.2674   0.6872   0.8422     O
Cd     0.26936  0.67019  0.46341    Cd
H       0.2715   0.9517    0.849     H
H        0.297    0.653     0.84     H
C       0.2971    0.959    0.726     C
N       0.2974   0.9201   0.5397     N
O       0.3009    0.596   0.1589     O
O       0.3128   0.7674   0.3422     O
Cd     0.32981  0.76936  0.96341    Cd
N       0.3368   0.0078   0.7135     N
C       0.3414   0.9495    0.405     C
C       0.3448   0.5751    0.283     C
H        0.347    0.797     0.34     H
H       0.3517   0.5119   0.8992     H
H       0.3528    0.936   0.2642     H
O       0.3567   0.5998   0.4749     O
N       0.3646   0.9991   0.5045     N
C       0.3802   0.4945    0.999     C
C       0.3821   0.5179    0.207     C
O       0.4002   0.8567   0.9749     O
O        0.404   0.8009   0.6589     O
C       0.4144   0.0416    0.433     C
H       0.4172   0.4346   0.7787     H
C       0.4185   0.4461    0.927     C
N       0.4201   0.7026   0.0397     N
H       0.4224   0.0062   0.1202     H
C       0.4224   0.4896    0.347     C
H       0.4237   0.5034   0.4929     H
C       0.4249   0.8448    0.783     C
H       0.4346   0.0828   0.7213     H
H        0.436   0.6472   0.7642     H
C       0.4385   0.0359    0.219     C
C       0.4461   0.0815    0.573     C
C       0.4495   0.6586    0.905     C
H       0.4517   0.7285    0.349     H
C       0.4584   0.4144    0.067     C
C        0.459   0.7029    0.226     C
C       0.4641   0.4385    0.281     C
C       0.4821   0.8821    0.707     C
H       0.4881   0.8517   0.3992     H
C       0.4896   0.0776    0.153     C
N       0.4922   0.3368   0.7865     N
H       0.4938   0.4224   0.3798     H
C       0.4945   0.1198    0.501     C
H       0.4966   0.9237   0.9929     H
N       0.4991   0.6354   0.0045     N
N       0.5009   0.3646   0.9955     N
H       0.5034   0.0763   0.0071     H
C       0.5055   0.8802    0.499     C
H       0.5062   0.5776   0.6202     H
N       0.5078   0.6632   0.2135     N
C       0.5104   0.9224    0.847     C
H       0.5119   0.1483   0.6008     H
C       0.5179   0.1179    0.293     C
C       0.5359   0.5615    0.719     C
C        0.541   0.2971    0.774     C
C       0.5416   0.5856    0.933     C
H       0.5483   0.2715    0.651     H
C       0.5505   0.3414    0.095     C
C       0.5539   0.9185    0.427     C
C       0.5615   0.9641    0.781     C
H        0.564   0.3528   0.2358     H
H       0.5654   0.9172   0.2787     H
C       0.5751   0.1552    0.217     C
H       0.5763   0.4966   0.5071     H
C       0.5776   0.5104    0.653     C
H       0.5776   0.9938   0.8798     H
N       0.5799   0.2974   0.9603     N
C       0.5815   0.5539    0.073     C
H       0.5828   0.5654   0.2213     H
C       0.5856   0.9584    0.567     C
O        0.596   0.1991   0.3411     O
O       0.5998   0.1433   0.0251     O
C       0.6179   0.4821    0.793     C
C       0.6198   0.5055    0.001     C
N       0.6354   0.0009   0.4955     N
O       0.6433   0.4002   0.5251     O
H       0.6472    0.064   0.7358     H
H       0.6483   0.4881   0.1008     H
H        0.653    0.203     0.66     H
C       0.6552   0.4249    0.717     C
C       0.6586   0.0505    0.595     C
N       0.6632   0.9922   0.2865     N
Cd     0.67019  0.23064  0.03659    Cd
O       0.6872   0.2326   0.6578     O
O       0.6991    0.404   0.8411     O
N       0.7026   0.0799   0.4603     N
C       0.7029    0.041    0.274     C
H        0.703    0.347     0.16     H
H       0.7285   0.0483    0.151     H
Cd     0.73064  0.32981  0.53659    Cd
O       0.7326   0.3128   0.1578     O
O       0.7674   0.1872   0.1578     O
Cd     0.76936  0.17019  0.53659    Cd
H       0.7715   0.4517    0.151     H
H        0.797    0.153     0.16     H
C       0.7971    0.459    0.274     C
N       0.7974   0.4201   0.4603     N
O       0.8009    0.096   0.8411     O
O       0.8128   0.2674   0.6578     O
Cd     0.82981  0.26936  0.03659    Cd
N       0.8368   0.5078   0.2865     N
C       0.8414   0.4495    0.595     C
C       0.8448   0.0751    0.717     C
H        0.847    0.297     0.66     H
H       0.8517   0.0119   0.1008     H
H       0.8528    0.436   0.7358     H
O       0.8567   0.0998   0.5251     O
N       0.8646   0.4991   0.4955     N
C       0.8802   0.9945    0.001     C
C       0.8821   0.0179    0.793     C
O       0.9002   0.3567   0.0251     O
O        0.904   0.3009   0.3411     O
C       0.9144   0.5416    0.567     C
H       0.9172   0.9346   0.2213     H
C       0.9185   0.9461    0.073     C
N       0.9201   0.2026   0.9603     N
H       0.9224   0.5062   0.8798     H
C       0.9224   0.9896    0.653     C
H       0.9237   0.0034   0.5071     H
C       0.9249   0.3448    0.217     C
H       0.9346   0.5828   0.2787     H
H        0.936   0.1472   0.2358     H
C       0.9385   0.5359    0.781     C
C       0.9461   0.5815    0.427     C
C       0.9495   0.1586    0.095     C
H       0.9517   0.2285    0.651     H
C       0.9584   0.9144    0.933     C
C        0.959   0.2029    0.774     C
C       0.9641   0.9385    0.719     C
C       0.9821   0.3821    0.293     C
H       0.9881   0.3517   0.6008     H
C       0.9896   0.5776    0.847     C
N       0.9922   0.8368   0.2135     N
H       0.9938   0.9224   0.6202     H
C       0.9945   0.6198    0.499     C
H       0.9966   0.4237   0.0071     H
N       0.9991   0.1354   0.9955     N
