data_I
_chemical_name_common  '/home/zhangsd/repos/MofS-CGCNN/ML/data/SSD/clean_cifs/YIZGIZ_clean'
_cell_length_a 18.74100
_cell_length_b 18.74100
_cell_length_c  9.41400
_cell_angle_alpha 90.00000
_cell_angle_beta  90.00000
_cell_angle_gamma 90.00000
_space_group_name_H-M_alt      'P 1'


loop_
_space_group_symop_operation_xyz
  'x, y, z' 

loop_
_atom_site_label
_atom_site_fract_x
_atom_site_fract_y
_atom_site_fract_z
_atom_site_type_symbol
O       0.0002    0.865   0.2781     O
O       0.0042   0.3428    0.007     O
O       0.0057   0.0151   0.3255     O
O         0.01   0.6291    0.287     O
O       0.0127   0.1588   0.9893     O
O       0.0151   0.4943   0.3255     O
P       0.0455   0.3347   0.8428     P
Al      0.0495  0.16653   0.8402    Al
P       0.0524    0.935   0.3341     P
Al     0.05608   0.5652   0.3363    Al
O       0.0577   0.6282   0.7628     O
O       0.0581   0.8752   0.7513     O
O       0.0619   0.2461   0.8051     O
P       0.0641   0.8341    0.916     P
P        0.065   0.5524   0.6659     P
Al      0.0652  0.94392   0.6637    Al
Al      0.0659  0.66605   0.9075    Al
O       0.0776   0.9208   0.5106     O
O       0.0792   0.5776   0.4894     O
O       0.0812   0.7459   0.8796     O
O       0.1223   0.1275   0.8413     O
O       0.1248   0.5581   0.2487     O
O       0.1275   0.3777   0.8413     O
O       0.1282   0.9423   0.2372     O
O       0.1291     0.99    0.713     O
O       0.1305   0.6344   0.9883     O
O       0.1344   0.8695   0.0117     O
O        0.135   0.5002   0.7219     O
O       0.1572   0.0042    0.007     O
O       0.1588   0.4873   0.9893     O
P       0.1653   0.0455   0.8428     P
P       0.1659   0.5641    0.084     P
Al     0.16605   0.9341   0.0925    Al
Al     0.16653   0.4505   0.8402    Al
O       0.2459   0.9188   0.1204     O
O       0.2461   0.4381   0.8051     O
O       0.2539   0.0619   0.8051     O
O       0.2541   0.5812   0.1204     O
Al     0.33347   0.0495   0.8402    Al
Al     0.33395   0.5659   0.0925    Al
P       0.3341   0.9359    0.084     P
P       0.3347   0.4545   0.8428     P
O       0.3412   0.0127   0.9893     O
O       0.3428   0.4958    0.007     O
O        0.365   0.9998   0.7219     O
O       0.3656   0.6305   0.0117     O
O       0.3695   0.8656   0.9883     O
O       0.3709     0.51    0.713     O
O       0.3718   0.5577   0.2372     O
O       0.3725   0.1223   0.8413     O
O       0.3752   0.9419   0.2487     O
O       0.3777   0.3725   0.8413     O
O       0.4188   0.7541   0.8796     O
O       0.4208   0.9224   0.4894     O
O       0.4224   0.5792   0.5106     O
Al      0.4341  0.83395   0.9075    Al
Al      0.4348  0.55608   0.6637    Al
P        0.435   0.9476   0.6659     P
P       0.4359   0.6659    0.916     P
O       0.4381   0.2539   0.8051     O
O       0.4419   0.6248   0.7513     O
O       0.4423   0.8718   0.7628     O
Al     0.44392   0.9348   0.3363    Al
P       0.4476    0.565   0.3341     P
Al      0.4505  0.33347   0.8402    Al
P       0.4545   0.1653   0.8428     P
O       0.4849   0.0057   0.3255     O
O       0.4873   0.3412   0.9893     O
O         0.49   0.8709    0.287     O
O       0.4943   0.4849   0.3255     O
O       0.4958   0.1572    0.007     O
O       0.4998    0.635   0.2781     O
O       0.5002    0.365   0.7219     O
O       0.5042   0.8428    0.993     O
O       0.5057   0.5151   0.6745     O
O         0.51   0.1291    0.713     O
O       0.5127   0.6588   0.0107     O
O       0.5151   0.9943   0.6745     O
P       0.5455   0.8347   0.1572     P
Al      0.5495  0.66653   0.1598    Al
P       0.5524    0.435   0.6659     P
Al     0.55608   0.0652   0.6637    Al
O       0.5577   0.1282   0.2372     O
O       0.5581   0.3752   0.2487     O
O       0.5619   0.7461   0.1949     O
P       0.5641   0.3341    0.084     P
P        0.565   0.0524   0.3341     P
Al      0.5652  0.44392   0.3363    Al
Al      0.5659  0.16605   0.0925    Al
O       0.5776   0.4208   0.4894     O
O       0.5792   0.0776   0.5106     O
O       0.5812   0.2459   0.1204     O
O       0.6223   0.6275   0.1587     O
O       0.6248   0.0581   0.7513     O
O       0.6275   0.8777   0.1587     O
O       0.6282   0.4423   0.7628     O
O       0.6291     0.49    0.287     O
O       0.6305   0.1344   0.0117     O
O       0.6344   0.3695   0.9883     O
O        0.635   0.0002   0.2781     O
O       0.6572   0.5042    0.993     O
O       0.6588   0.9873   0.0107     O
P       0.6653   0.5455   0.1572     P
P       0.6659   0.0641    0.916     P
Al     0.66605   0.4341   0.9075    Al
Al     0.66653   0.9505   0.1598    Al
O       0.7459   0.4188   0.8796     O
O       0.7461   0.9381   0.1949     O
O       0.7539   0.5619   0.1949     O
O       0.7541   0.0812   0.8796     O
Al     0.83347   0.5495   0.1598    Al
Al     0.83395   0.0659   0.9075    Al
P       0.8341   0.4359    0.916     P
P       0.8347   0.9545   0.1572     P
O       0.8412   0.5127   0.0107     O
O       0.8428   0.9958    0.993     O
O        0.865   0.4998   0.2781     O
O       0.8656   0.1305   0.9883     O
O       0.8695   0.3656   0.0117     O
O       0.8709     0.01    0.287     O
O       0.8718   0.0577   0.7628     O
O       0.8725   0.6223   0.1587     O
O       0.8752   0.4419   0.7513     O
O       0.8777   0.8725   0.1587     O
O       0.9188   0.2541   0.1204     O
O       0.9208   0.4224   0.5106     O
O       0.9224   0.0792   0.4894     O
Al      0.9341  0.33395   0.0925    Al
Al      0.9348  0.05608   0.3363    Al
P        0.935   0.4476   0.3341     P
P       0.9359   0.1659    0.084     P
O       0.9381   0.7539   0.1949     O
O       0.9419   0.1248   0.2487     O
O       0.9423   0.3718   0.2372     O
Al     0.94392   0.4348   0.6637    Al
P       0.9476    0.065   0.6659     P
Al      0.9505  0.83347   0.1598    Al
P       0.9545   0.6653   0.1572     P
O       0.9849   0.5057   0.6745     O
O       0.9873   0.8412   0.0107     O
O         0.99   0.3709    0.713     O
O       0.9943   0.9849   0.6745     O
O       0.9958   0.6572    0.993     O
O       0.9998    0.135   0.7219     O
