data_I
_chemical_name_common  '/home/zhangsd/repos/MofS-CGCNN/ML/data/SSD/clean_cifs/YODWUL_clean'
_cell_length_a 31.10200
_cell_length_b 31.10200
_cell_length_c 31.10200
_cell_angle_alpha 90.00000
_cell_angle_beta  90.00000
_cell_angle_gamma 90.00000
_space_group_name_H-M_alt      'P 1'


loop_
_space_group_symop_operation_xyz
  'x, y, z' 

loop_
_atom_site_label
_atom_site_fract_x
_atom_site_fract_y
_atom_site_fract_z
_atom_site_type_symbol
H          0.0   0.3499   0.3253     H
H          0.0   0.3499   0.6747     H
C          0.0   0.3568   0.2955     C
C          0.0   0.3568   0.7045     C
C          0.0   0.3788   0.2087     C
C          0.0   0.3788   0.7913     C
H          0.0   0.3867   0.1791     H
H          0.0   0.3867   0.8209     H
H          0.0   0.6133   0.1791     H
H          0.0   0.6133   0.8209     H
C          0.0   0.6212   0.2087     C
C          0.0   0.6212   0.7913     C
C          0.0   0.6432   0.2955     C
C          0.0   0.6432   0.7045     C
H          0.0   0.6501   0.3253     H
H          0.0   0.6501   0.6747     H
C       0.0387    0.373   0.2304     C
C       0.0387    0.373   0.7696     C
C       0.0387    0.627   0.2304     C
C       0.0387    0.627   0.7696     C
C       0.0388   0.3619   0.2735     C
C       0.0388   0.3619   0.7265     C
C       0.0388   0.6381   0.2735     C
C       0.0388   0.6381   0.7265     C
H       0.0651   0.3767   0.2156     H
H       0.0651   0.3767   0.7844     H
H       0.0651   0.6233   0.2156     H
H       0.0651   0.6233   0.7844     H
C        0.082    0.354   0.2909     C
C        0.082    0.354   0.7091     C
C        0.082    0.646   0.2909     C
C        0.082    0.646   0.7091     C
H       0.0901   0.4101   0.3061     H
H       0.0901   0.4101   0.6939     H
H       0.0901   0.5899   0.3061     H
H       0.0901   0.5899   0.6939     H
N       0.1034   0.3854   0.3101     N
N       0.1034   0.3854   0.6899     N
N       0.1034   0.6146   0.3101     N
N       0.1034   0.6146   0.6899     N
O       0.1038   0.3218   0.2767     O
O       0.1038   0.3218   0.7233     O
O       0.1038   0.6782   0.2767     O
O       0.1038   0.6782   0.7233     O
H       0.1133   0.4334   0.3777     H
H       0.1133   0.4334   0.6223     H
H       0.1133   0.5666   0.3777     H
H       0.1133   0.5666   0.6223     H
Zn     0.12743      0.5      0.5    Zn
C       0.1389   0.4173   0.3733     C
C       0.1389   0.4173   0.6267     C
C       0.1389   0.5827   0.3733     C
C       0.1389   0.5827   0.6267     C
O       0.1403   0.4572   0.4581     O
O       0.1403   0.4572   0.5419     O
O       0.1403   0.5428   0.4581     O
O       0.1403   0.5428   0.5419     O
C       0.1434   0.3921   0.3367     C
C       0.1434   0.3921   0.6633     C
C       0.1434   0.6079   0.3367     C
C       0.1434   0.6079   0.6633     C
C       0.1718   0.4191   0.4034     C
C       0.1718   0.4191   0.5966     C
C       0.1718   0.5809   0.4034     C
C       0.1718   0.5809   0.5966     C
C       0.1758   0.4447   0.4405     C
C       0.1758   0.4447   0.5595     C
C       0.1758   0.5553   0.4405     C
C       0.1758   0.5553   0.5595     C
H       0.1791      0.0   0.3867     H
H       0.1791      0.0   0.6133     H
C       0.1809   0.3687   0.3302     C
C       0.1809   0.3687   0.6698     C
C       0.1809   0.6313   0.3302     C
C       0.1809   0.6313   0.6698     C
H        0.184   0.3514   0.3052     H
H        0.184   0.3514   0.6948     H
H        0.184   0.6486   0.3052     H
H        0.184   0.6486   0.6948     H
C       0.2087      0.0   0.3788     C
C       0.2087      0.0   0.6212     C
C       0.2093   0.3957   0.3969     C
C       0.2093   0.3957   0.6031     C
C       0.2093   0.6043   0.3969     C
C       0.2093   0.6043   0.6031     C
O       0.2113   0.4562   0.4569     O
O       0.2113   0.4562   0.5431     O
O       0.2113   0.5438   0.4569     O
O       0.2113   0.5438   0.5431     O
C       0.2139   0.3705   0.3603     C
C       0.2139   0.3705   0.6397     C
C       0.2139   0.6295   0.3603     C
C       0.2139   0.6295   0.6397     C
H       0.2156   0.0651   0.3767     H
H       0.2156   0.0651   0.6233     H
H       0.2156   0.9349   0.3767     H
H       0.2156   0.9349   0.6233     H
Zn     0.22334      0.5      0.5    Zn
C       0.2304   0.0387    0.373     C
C       0.2304   0.0387    0.627     C
C       0.2304   0.9613    0.373     C
C       0.2304   0.9613    0.627     C
H       0.2319   0.3969   0.4175     H
H       0.2319   0.3969   0.5825     H
H       0.2319   0.6031   0.4175     H
H       0.2319   0.6031   0.5825     H
O       0.2473   0.3151   0.3178     O
O       0.2473   0.3151   0.6822     O
O       0.2473   0.6849   0.3178     O
O       0.2473   0.6849   0.6822     O
C       0.2488    0.347   0.3448     C
C       0.2488    0.347   0.6552     C
C       0.2488    0.653   0.3448     C
C       0.2488    0.653   0.6552     C
C       0.2735   0.0388   0.3619     C
C       0.2735   0.0388   0.6381     C
C       0.2735   0.9612   0.3619     C
C       0.2735   0.9612   0.6381     C
O       0.2767   0.1038   0.3218     O
O       0.2767   0.1038   0.6782     O
O       0.2767   0.8962   0.3218     O
O       0.2767   0.8962   0.6782     O
Zn     0.27804  0.27804  0.27804    Zn
Zn     0.27804  0.27804  0.72196    Zn
Zn     0.27804  0.72196  0.27804    Zn
Zn     0.27804  0.72196  0.72196    Zn
O       0.2858   0.3581   0.3585     O
O       0.2858   0.3581   0.6415     O
O       0.2858   0.6419   0.3585     O
O       0.2858   0.6419   0.6415     O
C       0.2909    0.082    0.354     C
C       0.2909    0.082    0.646     C
C       0.2909    0.918    0.354     C
C       0.2909    0.918    0.646     C
C       0.2955      0.0   0.3568     C
C       0.2955      0.0   0.6432     C
H       0.3052    0.184   0.3514     H
H       0.3052    0.184   0.6486     H
H       0.3052    0.816   0.3514     H
H       0.3052    0.816   0.6486     H
H       0.3061   0.0901   0.4101     H
H       0.3061   0.0901   0.5899     H
H       0.3061   0.9099   0.4101     H
H       0.3061   0.9099   0.5899     H
N       0.3101   0.1034   0.3854     N
N       0.3101   0.1034   0.6146     N
N       0.3101   0.8966   0.3854     N
N       0.3101   0.8966   0.6146     N
O       0.3151   0.3178   0.2473     O
O       0.3151   0.3178   0.7527     O
O       0.3151   0.6822   0.2473     O
O       0.3151   0.6822   0.7527     O
O       0.3178   0.2473   0.3151     O
O       0.3178   0.2473   0.6849     O
O       0.3178   0.7527   0.3151     O
O       0.3178   0.7527   0.6849     O
O       0.3218   0.2767   0.1038     O
O       0.3218   0.2767   0.8962     O
O       0.3218   0.7233   0.1038     O
O       0.3218   0.7233   0.8962     O
H       0.3253      0.0   0.3499     H
H       0.3253      0.0   0.6501     H
C       0.3302   0.1809   0.3687     C
C       0.3302   0.1809   0.6313     C
C       0.3302   0.8191   0.3687     C
C       0.3302   0.8191   0.6313     C
C       0.3367   0.1434   0.3921     C
C       0.3367   0.1434   0.6079     C
C       0.3367   0.8566   0.3921     C
C       0.3367   0.8566   0.6079     C
Zn     0.34329  0.34329  0.34329    Zn
Zn     0.34329  0.34329  0.65671    Zn
Zn     0.34329  0.65671  0.34329    Zn
Zn     0.34329  0.65671  0.65671    Zn
C       0.3448   0.2488    0.347     C
C       0.3448   0.2488    0.653     C
C       0.3448   0.7512    0.347     C
C       0.3448   0.7512    0.653     C
C        0.347   0.3448   0.2488     C
C        0.347   0.3448   0.7512     C
C        0.347   0.6552   0.2488     C
C        0.347   0.6552   0.7512     C
H       0.3499   0.3253      0.0     H
H       0.3499   0.6747      0.0     H
H       0.3514   0.3052    0.184     H
H       0.3514   0.3052    0.816     H
H       0.3514   0.6948    0.184     H
H       0.3514   0.6948    0.816     H
C        0.354   0.2909    0.082     C
C        0.354   0.2909    0.918     C
C        0.354   0.7091    0.082     C
C        0.354   0.7091    0.918     C
C       0.3568   0.2955      0.0     C
C       0.3568   0.7045      0.0     C
O       0.3581   0.3585   0.2858     O
O       0.3581   0.3585   0.7142     O
O       0.3581   0.6415   0.2858     O
O       0.3581   0.6415   0.7142     O
O       0.3585   0.2858   0.3581     O
O       0.3585   0.2858   0.6419     O
O       0.3585   0.7142   0.3581     O
O       0.3585   0.7142   0.6419     O
C       0.3603   0.2139   0.3705     C
C       0.3603   0.2139   0.6295     C
C       0.3603   0.7861   0.3705     C
C       0.3603   0.7861   0.6295     C
C       0.3619   0.2735   0.0388     C
C       0.3619   0.2735   0.9612     C
C       0.3619   0.7265   0.0388     C
C       0.3619   0.7265   0.9612     C
C       0.3687   0.3302   0.1809     C
C       0.3687   0.3302   0.8191     C
C       0.3687   0.6698   0.1809     C
C       0.3687   0.6698   0.8191     C
C       0.3705   0.3603   0.2139     C
C       0.3705   0.3603   0.7861     C
C       0.3705   0.6397   0.2139     C
C       0.3705   0.6397   0.7861     C
C        0.373   0.2304   0.0387     C
C        0.373   0.2304   0.9613     C
C        0.373   0.7696   0.0387     C
C        0.373   0.7696   0.9613     C
C       0.3733   0.1389   0.4173     C
C       0.3733   0.1389   0.5827     C
C       0.3733   0.8611   0.4173     C
C       0.3733   0.8611   0.5827     C
H       0.3767   0.2156   0.0651     H
H       0.3767   0.2156   0.9349     H
H       0.3767   0.7844   0.0651     H
H       0.3767   0.7844   0.9349     H
H       0.3777   0.1133   0.4334     H
H       0.3777   0.1133   0.5666     H
H       0.3777   0.8867   0.4334     H
H       0.3777   0.8867   0.5666     H
C       0.3788   0.2087      0.0     C
C       0.3788   0.7913      0.0     C
N       0.3854   0.3101   0.1034     N
N       0.3854   0.3101   0.8966     N
N       0.3854   0.6899   0.1034     N
N       0.3854   0.6899   0.8966     N
H       0.3867   0.1791      0.0     H
H       0.3867   0.8209      0.0     H
C       0.3921   0.3367   0.1434     C
C       0.3921   0.3367   0.8566     C
C       0.3921   0.6633   0.1434     C
C       0.3921   0.6633   0.8566     C
C       0.3957   0.3969   0.2093     C
C       0.3957   0.3969   0.7907     C
C       0.3957   0.6031   0.2093     C
C       0.3957   0.6031   0.7907     C
C       0.3969   0.2093   0.3957     C
C       0.3969   0.2093   0.6043     C
H       0.3969   0.4175   0.2319     H
H       0.3969   0.4175   0.7681     H
H       0.3969   0.5825   0.2319     H
H       0.3969   0.5825   0.7681     H
C       0.3969   0.7907   0.3957     C
C       0.3969   0.7907   0.6043     C
C       0.4034   0.1718   0.4191     C
C       0.4034   0.1718   0.5809     C
C       0.4034   0.8282   0.4191     C
C       0.4034   0.8282   0.5809     C
H       0.4101   0.3061   0.0901     H
H       0.4101   0.3061   0.9099     H
H       0.4101   0.6939   0.0901     H
H       0.4101   0.6939   0.9099     H
C       0.4173   0.3733   0.1389     C
C       0.4173   0.3733   0.8611     C
C       0.4173   0.6267   0.1389     C
C       0.4173   0.6267   0.8611     C
H       0.4175   0.2319   0.3969     H
H       0.4175   0.2319   0.6031     H
H       0.4175   0.7681   0.3969     H
H       0.4175   0.7681   0.6031     H
C       0.4191   0.4034   0.1718     C
C       0.4191   0.4034   0.8282     C
C       0.4191   0.5966   0.1718     C
C       0.4191   0.5966   0.8282     C
H       0.4334   0.3777   0.1133     H
H       0.4334   0.3777   0.8867     H
H       0.4334   0.6223   0.1133     H
H       0.4334   0.6223   0.8867     H
C       0.4405   0.1758   0.4447     C
C       0.4405   0.1758   0.5553     C
C       0.4405   0.8242   0.4447     C
C       0.4405   0.8242   0.5553     C
C       0.4447   0.4405   0.1758     C
C       0.4447   0.4405   0.8242     C
C       0.4447   0.5595   0.1758     C
C       0.4447   0.5595   0.8242     C
O       0.4562   0.4569   0.2113     O
O       0.4562   0.4569   0.7887     O
O       0.4562   0.5431   0.2113     O
O       0.4562   0.5431   0.7887     O
O       0.4569   0.2113   0.4562     O
O       0.4569   0.2113   0.5438     O
O       0.4569   0.7887   0.4562     O
O       0.4569   0.7887   0.5438     O
O       0.4572   0.4581   0.1403     O
O       0.4572   0.4581   0.8597     O
O       0.4572   0.5419   0.1403     O
O       0.4572   0.5419   0.8597     O
O       0.4581   0.1403   0.4572     O
O       0.4581   0.1403   0.5428     O
O       0.4581   0.8597   0.4572     O
O       0.4581   0.8597   0.5428     O
Zn         0.5  0.12743      0.5    Zn
Zn         0.5  0.22334      0.5    Zn
Zn         0.5      0.5  0.12743    Zn
Zn         0.5      0.5  0.22334    Zn
Zn         0.5      0.5  0.77666    Zn
Zn         0.5      0.5  0.87257    Zn
Zn         0.5  0.77666      0.5    Zn
Zn         0.5  0.87257      0.5    Zn
O       0.5419   0.1403   0.4572     O
O       0.5419   0.1403   0.5428     O
O       0.5419   0.8597   0.4572     O
O       0.5419   0.8597   0.5428     O
O       0.5428   0.4581   0.1403     O
O       0.5428   0.4581   0.8597     O
O       0.5428   0.5419   0.1403     O
O       0.5428   0.5419   0.8597     O
O       0.5431   0.2113   0.4562     O
O       0.5431   0.2113   0.5438     O
O       0.5431   0.7887   0.4562     O
O       0.5431   0.7887   0.5438     O
O       0.5438   0.4569   0.2113     O
O       0.5438   0.4569   0.7887     O
O       0.5438   0.5431   0.2113     O
O       0.5438   0.5431   0.7887     O
C       0.5553   0.4405   0.1758     C
C       0.5553   0.4405   0.8242     C
C       0.5553   0.5595   0.1758     C
C       0.5553   0.5595   0.8242     C
C       0.5595   0.1758   0.4447     C
C       0.5595   0.1758   0.5553     C
C       0.5595   0.8242   0.4447     C
C       0.5595   0.8242   0.5553     C
H       0.5666   0.3777   0.1133     H
H       0.5666   0.3777   0.8867     H
H       0.5666   0.6223   0.1133     H
H       0.5666   0.6223   0.8867     H
C       0.5809   0.4034   0.1718     C
C       0.5809   0.4034   0.8282     C
C       0.5809   0.5966   0.1718     C
C       0.5809   0.5966   0.8282     C
H       0.5825   0.2319   0.3969     H
H       0.5825   0.2319   0.6031     H
H       0.5825   0.7681   0.3969     H
H       0.5825   0.7681   0.6031     H
C       0.5827   0.3733   0.1389     C
C       0.5827   0.3733   0.8611     C
C       0.5827   0.6267   0.1389     C
C       0.5827   0.6267   0.8611     C
H       0.5899   0.3061   0.0901     H
H       0.5899   0.3061   0.9099     H
H       0.5899   0.6939   0.0901     H
H       0.5899   0.6939   0.9099     H
C       0.5966   0.1718   0.4191     C
C       0.5966   0.1718   0.5809     C
C       0.5966   0.8282   0.4191     C
C       0.5966   0.8282   0.5809     C
C       0.6031   0.2093   0.3957     C
C       0.6031   0.2093   0.6043     C
H       0.6031   0.4175   0.2319     H
H       0.6031   0.4175   0.7681     H
H       0.6031   0.5825   0.2319     H
H       0.6031   0.5825   0.7681     H
C       0.6031   0.7907   0.3957     C
C       0.6031   0.7907   0.6043     C
C       0.6043   0.3969   0.2093     C
C       0.6043   0.3969   0.7907     C
C       0.6043   0.6031   0.2093     C
C       0.6043   0.6031   0.7907     C
C       0.6079   0.3367   0.1434     C
C       0.6079   0.3367   0.8566     C
C       0.6079   0.6633   0.1434     C
C       0.6079   0.6633   0.8566     C
H       0.6133   0.1791      0.0     H
H       0.6133   0.8209      0.0     H
N       0.6146   0.3101   0.1034     N
N       0.6146   0.3101   0.8966     N
N       0.6146   0.6899   0.1034     N
N       0.6146   0.6899   0.8966     N
C       0.6212   0.2087      0.0     C
C       0.6212   0.7913      0.0     C
H       0.6223   0.1133   0.4334     H
H       0.6223   0.1133   0.5666     H
H       0.6223   0.8867   0.4334     H
H       0.6223   0.8867   0.5666     H
H       0.6233   0.2156   0.0651     H
H       0.6233   0.2156   0.9349     H
H       0.6233   0.7844   0.0651     H
H       0.6233   0.7844   0.9349     H
C       0.6267   0.1389   0.4173     C
C       0.6267   0.1389   0.5827     C
C       0.6267   0.8611   0.4173     C
C       0.6267   0.8611   0.5827     C
C        0.627   0.2304   0.0387     C
C        0.627   0.2304   0.9613     C
C        0.627   0.7696   0.0387     C
C        0.627   0.7696   0.9613     C
C       0.6295   0.3603   0.2139     C
C       0.6295   0.3603   0.7861     C
C       0.6295   0.6397   0.2139     C
C       0.6295   0.6397   0.7861     C
C       0.6313   0.3302   0.1809     C
C       0.6313   0.3302   0.8191     C
C       0.6313   0.6698   0.1809     C
C       0.6313   0.6698   0.8191     C
C       0.6381   0.2735   0.0388     C
C       0.6381   0.2735   0.9612     C
C       0.6381   0.7265   0.0388     C
C       0.6381   0.7265   0.9612     C
C       0.6397   0.2139   0.3705     C
C       0.6397   0.2139   0.6295     C
C       0.6397   0.7861   0.3705     C
C       0.6397   0.7861   0.6295     C
O       0.6415   0.2858   0.3581     O
O       0.6415   0.2858   0.6419     O
O       0.6415   0.7142   0.3581     O
O       0.6415   0.7142   0.6419     O
O       0.6419   0.3585   0.2858     O
O       0.6419   0.3585   0.7142     O
O       0.6419   0.6415   0.2858     O
O       0.6419   0.6415   0.7142     O
C       0.6432   0.2955      0.0     C
C       0.6432   0.7045      0.0     C
C        0.646   0.2909    0.082     C
C        0.646   0.2909    0.918     C
C        0.646   0.7091    0.082     C
C        0.646   0.7091    0.918     C
H       0.6486   0.3052    0.184     H
H       0.6486   0.3052    0.816     H
H       0.6486   0.6948    0.184     H
H       0.6486   0.6948    0.816     H
H       0.6501   0.3253      0.0     H
H       0.6501   0.6747      0.0     H
C        0.653   0.3448   0.2488     C
C        0.653   0.3448   0.7512     C
C        0.653   0.6552   0.2488     C
C        0.653   0.6552   0.7512     C
C       0.6552   0.2488    0.347     C
C       0.6552   0.2488    0.653     C
C       0.6552   0.7512    0.347     C
C       0.6552   0.7512    0.653     C
Zn     0.65671  0.34329  0.34329    Zn
Zn     0.65671  0.34329  0.65671    Zn
Zn     0.65671  0.65671  0.34329    Zn
Zn     0.65671  0.65671  0.65671    Zn
C       0.6633   0.1434   0.3921     C
C       0.6633   0.1434   0.6079     C
C       0.6633   0.8566   0.3921     C
C       0.6633   0.8566   0.6079     C
C       0.6698   0.1809   0.3687     C
C       0.6698   0.1809   0.6313     C
C       0.6698   0.8191   0.3687     C
C       0.6698   0.8191   0.6313     C
H       0.6747      0.0   0.3499     H
H       0.6747      0.0   0.6501     H
O       0.6782   0.2767   0.1038     O
O       0.6782   0.2767   0.8962     O
O       0.6782   0.7233   0.1038     O
O       0.6782   0.7233   0.8962     O
O       0.6822   0.2473   0.3151     O
O       0.6822   0.2473   0.6849     O
O       0.6822   0.7527   0.3151     O
O       0.6822   0.7527   0.6849     O
O       0.6849   0.3178   0.2473     O
O       0.6849   0.3178   0.7527     O
O       0.6849   0.6822   0.2473     O
O       0.6849   0.6822   0.7527     O
N       0.6899   0.1034   0.3854     N
N       0.6899   0.1034   0.6146     N
N       0.6899   0.8966   0.3854     N
N       0.6899   0.8966   0.6146     N
H       0.6939   0.0901   0.4101     H
H       0.6939   0.0901   0.5899     H
H       0.6939   0.9099   0.4101     H
H       0.6939   0.9099   0.5899     H
H       0.6948    0.184   0.3514     H
H       0.6948    0.184   0.6486     H
H       0.6948    0.816   0.3514     H
H       0.6948    0.816   0.6486     H
C       0.7045      0.0   0.3568     C
C       0.7045      0.0   0.6432     C
C       0.7091    0.082    0.354     C
C       0.7091    0.082    0.646     C
C       0.7091    0.918    0.354     C
C       0.7091    0.918    0.646     C
O       0.7142   0.3581   0.3585     O
O       0.7142   0.3581   0.6415     O
O       0.7142   0.6419   0.3585     O
O       0.7142   0.6419   0.6415     O
Zn     0.72196  0.27804  0.27804    Zn
Zn     0.72196  0.27804  0.72196    Zn
Zn     0.72196  0.72196  0.27804    Zn
Zn     0.72196  0.72196  0.72196    Zn
O       0.7233   0.1038   0.3218     O
O       0.7233   0.1038   0.6782     O
O       0.7233   0.8962   0.3218     O
O       0.7233   0.8962   0.6782     O
C       0.7265   0.0388   0.3619     C
C       0.7265   0.0388   0.6381     C
C       0.7265   0.9612   0.3619     C
C       0.7265   0.9612   0.6381     C
C       0.7512    0.347   0.3448     C
C       0.7512    0.347   0.6552     C
C       0.7512    0.653   0.3448     C
C       0.7512    0.653   0.6552     C
O       0.7527   0.3151   0.3178     O
O       0.7527   0.3151   0.6822     O
O       0.7527   0.6849   0.3178     O
O       0.7527   0.6849   0.6822     O
H       0.7681   0.3969   0.4175     H
H       0.7681   0.3969   0.5825     H
H       0.7681   0.6031   0.4175     H
H       0.7681   0.6031   0.5825     H
C       0.7696   0.0387    0.373     C
C       0.7696   0.0387    0.627     C
C       0.7696   0.9613    0.373     C
C       0.7696   0.9613    0.627     C
Zn     0.77666      0.5      0.5    Zn
H       0.7844   0.0651   0.3767     H
H       0.7844   0.0651   0.6233     H
H       0.7844   0.9349   0.3767     H
H       0.7844   0.9349   0.6233     H
C       0.7861   0.3705   0.3603     C
C       0.7861   0.3705   0.6397     C
C       0.7861   0.6295   0.3603     C
C       0.7861   0.6295   0.6397     C
O       0.7887   0.4562   0.4569     O
O       0.7887   0.4562   0.5431     O
O       0.7887   0.5438   0.4569     O
O       0.7887   0.5438   0.5431     O
C       0.7907   0.3957   0.3969     C
C       0.7907   0.3957   0.6031     C
C       0.7907   0.6043   0.3969     C
C       0.7907   0.6043   0.6031     C
C       0.7913      0.0   0.3788     C
C       0.7913      0.0   0.6212     C
H        0.816   0.3514   0.3052     H
H        0.816   0.3514   0.6948     H
H        0.816   0.6486   0.3052     H
H        0.816   0.6486   0.6948     H
C       0.8191   0.3687   0.3302     C
C       0.8191   0.3687   0.6698     C
C       0.8191   0.6313   0.3302     C
C       0.8191   0.6313   0.6698     C
H       0.8209      0.0   0.3867     H
H       0.8209      0.0   0.6133     H
C       0.8242   0.4447   0.4405     C
C       0.8242   0.4447   0.5595     C
C       0.8242   0.5553   0.4405     C
C       0.8242   0.5553   0.5595     C
C       0.8282   0.4191   0.4034     C
C       0.8282   0.4191   0.5966     C
C       0.8282   0.5809   0.4034     C
C       0.8282   0.5809   0.5966     C
C       0.8566   0.3921   0.3367     C
C       0.8566   0.3921   0.6633     C
C       0.8566   0.6079   0.3367     C
C       0.8566   0.6079   0.6633     C
O       0.8597   0.4572   0.4581     O
O       0.8597   0.4572   0.5419     O
O       0.8597   0.5428   0.4581     O
O       0.8597   0.5428   0.5419     O
C       0.8611   0.4173   0.3733     C
C       0.8611   0.4173   0.6267     C
C       0.8611   0.5827   0.3733     C
C       0.8611   0.5827   0.6267     C
Zn     0.87257      0.5      0.5    Zn
H       0.8867   0.4334   0.3777     H
H       0.8867   0.4334   0.6223     H
H       0.8867   0.5666   0.3777     H
H       0.8867   0.5666   0.6223     H
O       0.8962   0.3218   0.2767     O
O       0.8962   0.3218   0.7233     O
O       0.8962   0.6782   0.2767     O
O       0.8962   0.6782   0.7233     O
N       0.8966   0.3854   0.3101     N
N       0.8966   0.3854   0.6899     N
N       0.8966   0.6146   0.3101     N
N       0.8966   0.6146   0.6899     N
H       0.9099   0.4101   0.3061     H
H       0.9099   0.4101   0.6939     H
H       0.9099   0.5899   0.3061     H
H       0.9099   0.5899   0.6939     H
C        0.918    0.354   0.2909     C
C        0.918    0.354   0.7091     C
C        0.918    0.646   0.2909     C
C        0.918    0.646   0.7091     C
H       0.9349   0.3767   0.2156     H
H       0.9349   0.3767   0.7844     H
H       0.9349   0.6233   0.2156     H
H       0.9349   0.6233   0.7844     H
C       0.9612   0.3619   0.2735     C
C       0.9612   0.3619   0.7265     C
C       0.9612   0.6381   0.2735     C
C       0.9612   0.6381   0.7265     C
C       0.9613    0.373   0.2304     C
C       0.9613    0.373   0.7696     C
C       0.9613    0.627   0.2304     C
C       0.9613    0.627   0.7696     C
