data_I
_chemical_name_common  '/home/zhangsd/repos/MofS-CGCNN/ML/data/SSD/clean_cifs/YODWOF_clean'
_cell_length_a 32.36600
_cell_length_b 32.36600
_cell_length_c 32.36600
_cell_angle_alpha 90.00000
_cell_angle_beta  90.00000
_cell_angle_gamma 90.00000
_space_group_name_H-M_alt      'P 1'


loop_
_space_group_symop_operation_xyz
  'x, y, z' 

loop_
_atom_site_label
_atom_site_fract_x
_atom_site_fract_y
_atom_site_fract_z
_atom_site_type_symbol
H          0.0   0.2598   0.2598     H
H          0.0   0.2598   0.7402     H
C          0.0   0.2802   0.2802     C
C          0.0   0.2802   0.7198     C
C          0.0   0.3415   0.3415     C
C          0.0   0.3415   0.6585     C
H          0.0   0.3618   0.3618     H
H          0.0   0.3618   0.6382     H
H          0.0   0.6382   0.3618     H
H          0.0   0.6382   0.6382     H
C          0.0   0.6585   0.3415     C
C          0.0   0.6585   0.6585     C
C          0.0   0.7198   0.2802     C
C          0.0   0.7198   0.7198     C
H          0.0   0.7402   0.2598     H
H          0.0   0.7402   0.7402     H
C       0.0367   0.3259   0.3259     C
C       0.0367   0.3259   0.6741     C
C       0.0367   0.6741   0.3259     C
C       0.0367   0.6741   0.6741     C
C       0.0373   0.2955   0.2955     C
C       0.0373   0.2955   0.7045     C
C       0.0373   0.7045   0.2955     C
C       0.0373   0.7045   0.7045     C
H       0.0623   0.2855   0.2855     H
H       0.0623   0.2855   0.7145     H
H       0.0623   0.7145   0.2855     H
H       0.0623   0.7145   0.7145     H
C       0.0757   0.3408   0.3408     C
C       0.0757   0.3408   0.6592     C
C       0.0757   0.6592   0.3408     C
C       0.0757   0.6592   0.6592     C
C       0.1087    0.352    0.352     C
C       0.1087    0.352    0.648     C
C       0.1087    0.648    0.352     C
C       0.1087    0.648    0.648     C
H       0.1232   0.4081   0.4081     H
H       0.1232   0.4081   0.5919     H
H       0.1232   0.5919   0.4081     H
H       0.1232   0.5919   0.5919     H
Zn      0.1389      0.5      0.5    Zn
C       0.1474   0.3674   0.3674     C
C       0.1474   0.3674   0.6326     C
C       0.1474   0.6326   0.3674     C
C       0.1474   0.6326   0.6326     C
C       0.1479   0.3978   0.3978     C
C       0.1479   0.3978   0.6022     C
C       0.1479   0.6022   0.3978     C
C       0.1479   0.6022   0.6022     C
O       0.1491   0.4588   0.4588     O
O       0.1491   0.4588   0.5412     O
O       0.1491   0.5412   0.4588     O
O       0.1491   0.5412   0.5412     O
C       0.1838    0.445    0.445     C
C       0.1838    0.445    0.555     C
C       0.1838    0.555    0.445     C
C       0.1838    0.555    0.555     C
H        0.184   0.3316   0.3316     H
H        0.184   0.3316   0.6684     H
H        0.184   0.6684   0.3316     H
H        0.184   0.6684   0.6684     H
C       0.1843   0.3519   0.3519     C
C       0.1843   0.3519   0.6481     C
C       0.1843   0.6481   0.3519     C
C       0.1843   0.6481   0.6481     C
C       0.1854   0.4126   0.4126     C
C       0.1854   0.4126   0.5874     C
C       0.1854   0.5874   0.4126     C
C       0.1854   0.5874   0.5874     C
O       0.2199   0.4574   0.4574     O
O       0.2199   0.4574   0.5426     O
O       0.2199   0.5426   0.4574     O
O       0.2199   0.5426   0.5426     O
C       0.2218   0.3667   0.3667     C
C       0.2218   0.3667   0.6333     C
C       0.2218   0.6333   0.3667     C
C       0.2218   0.6333   0.6333     C
C       0.2223   0.3971   0.3971     C
C       0.2223   0.3971   0.6029     C
C       0.2223   0.6029   0.3971     C
C       0.2223   0.6029   0.6029     C
Zn      0.2301      0.5      0.5    Zn
H       0.2474    0.407    0.407     H
H       0.2474    0.407    0.593     H
H       0.2474    0.593    0.407     H
H       0.2474    0.593    0.593     H
O       0.2529   0.3203   0.3203     O
O       0.2529   0.3203   0.6797     O
O       0.2529   0.6797   0.3203     O
O       0.2529   0.6797   0.6797     O
C       0.2593   0.3478   0.3478     C
C       0.2593   0.3478   0.6522     C
C       0.2593   0.6522   0.3478     C
C       0.2593   0.6522   0.6522     C
H       0.2598      0.0   0.2598     H
H       0.2598      0.0   0.7402     H
H       0.2598   0.2598      0.0     H
H       0.2598   0.7402      0.0     H
C       0.2802      0.0   0.2802     C
C       0.2802      0.0   0.7198     C
C       0.2802   0.2802      0.0     C
C       0.2802   0.7198      0.0     C
Zn      0.2853   0.2853   0.2853    Zn
Zn      0.2853   0.2853   0.7147    Zn
Zn      0.2853   0.7147   0.2853    Zn
Zn      0.2853   0.7147   0.7147    Zn
H       0.2855   0.0623   0.2855     H
H       0.2855   0.0623   0.7145     H
H       0.2855   0.2855   0.0623     H
H       0.2855   0.2855   0.9377     H
H       0.2855   0.7145   0.0623     H
H       0.2855   0.7145   0.9377     H
H       0.2855   0.9377   0.2855     H
H       0.2855   0.9377   0.7145     H
O       0.2925   0.3626   0.3626     O
O       0.2925   0.3626   0.6374     O
O       0.2925   0.6374   0.3626     O
O       0.2925   0.6374   0.6374     O
C       0.2955   0.0373   0.2955     C
C       0.2955   0.0373   0.7045     C
C       0.2955   0.2955   0.0373     C
C       0.2955   0.2955   0.9627     C
C       0.2955   0.7045   0.0373     C
C       0.2955   0.7045   0.9627     C
C       0.2955   0.9627   0.2955     C
C       0.2955   0.9627   0.7045     C
O       0.3203   0.2529   0.3203     O
O       0.3203   0.2529   0.6797     O
O       0.3203   0.3203   0.2529     O
O       0.3203   0.3203   0.7471     O
O       0.3203   0.6797   0.2529     O
O       0.3203   0.6797   0.7471     O
O       0.3203   0.7471   0.3203     O
O       0.3203   0.7471   0.6797     O
C       0.3259   0.0367   0.3259     C
C       0.3259   0.0367   0.6741     C
C       0.3259   0.3259   0.0367     C
C       0.3259   0.3259   0.9633     C
C       0.3259   0.6741   0.0367     C
C       0.3259   0.6741   0.9633     C
C       0.3259   0.9633   0.3259     C
C       0.3259   0.9633   0.6741     C
H       0.3316    0.184   0.3316     H
H       0.3316    0.184   0.6684     H
H       0.3316   0.3316    0.184     H
H       0.3316   0.3316    0.816     H
H       0.3316   0.6684    0.184     H
H       0.3316   0.6684    0.816     H
H       0.3316    0.816   0.3316     H
H       0.3316    0.816   0.6684     H
C       0.3408   0.0757   0.3408     C
C       0.3408   0.0757   0.6592     C
C       0.3408   0.3408   0.0757     C
C       0.3408   0.3408   0.9243     C
C       0.3408   0.6592   0.0757     C
C       0.3408   0.6592   0.9243     C
C       0.3408   0.9243   0.3408     C
C       0.3408   0.9243   0.6592     C
C       0.3415      0.0   0.3415     C
C       0.3415      0.0   0.6585     C
C       0.3415   0.3415      0.0     C
C       0.3415   0.6585      0.0     C
C       0.3478   0.2593   0.3478     C
C       0.3478   0.2593   0.6522     C
C       0.3478   0.3478   0.2593     C
C       0.3478   0.3478   0.7407     C
C       0.3478   0.6522   0.2593     C
C       0.3478   0.6522   0.7407     C
C       0.3478   0.7407   0.3478     C
C       0.3478   0.7407   0.6522     C
Zn     0.34927  0.34927  0.34927    Zn
Zn     0.34927  0.34927  0.65073    Zn
Zn     0.34927  0.65073  0.34927    Zn
Zn     0.34927  0.65073  0.65073    Zn
C       0.3519   0.1843   0.3519     C
C       0.3519   0.1843   0.6481     C
C       0.3519   0.3519   0.1843     C
C       0.3519   0.3519   0.8157     C
C       0.3519   0.6481   0.1843     C
C       0.3519   0.6481   0.8157     C
C       0.3519   0.8157   0.3519     C
C       0.3519   0.8157   0.6481     C
C        0.352   0.1087    0.352     C
C        0.352   0.1087    0.648     C
C        0.352    0.352   0.1087     C
C        0.352    0.352   0.8913     C
C        0.352    0.648   0.1087     C
C        0.352    0.648   0.8913     C
C        0.352   0.8913    0.352     C
C        0.352   0.8913    0.648     C
H       0.3618      0.0   0.3618     H
H       0.3618      0.0   0.6382     H
H       0.3618   0.3618      0.0     H
H       0.3618   0.6382      0.0     H
O       0.3626   0.2925   0.3626     O
O       0.3626   0.2925   0.6374     O
O       0.3626   0.3626   0.2925     O
O       0.3626   0.3626   0.7075     O
O       0.3626   0.6374   0.2925     O
O       0.3626   0.6374   0.7075     O
O       0.3626   0.7075   0.3626     O
O       0.3626   0.7075   0.6374     O
C       0.3667   0.2218   0.3667     C
C       0.3667   0.2218   0.6333     C
C       0.3667   0.3667   0.2218     C
C       0.3667   0.3667   0.7782     C
C       0.3667   0.6333   0.2218     C
C       0.3667   0.6333   0.7782     C
C       0.3667   0.7782   0.3667     C
C       0.3667   0.7782   0.6333     C
C       0.3674   0.1474   0.3674     C
C       0.3674   0.1474   0.6326     C
C       0.3674   0.3674   0.1474     C
C       0.3674   0.3674   0.8526     C
C       0.3674   0.6326   0.1474     C
C       0.3674   0.6326   0.8526     C
C       0.3674   0.8526   0.3674     C
C       0.3674   0.8526   0.6326     C
C       0.3971   0.2223   0.3971     C
C       0.3971   0.2223   0.6029     C
C       0.3971   0.3971   0.2223     C
C       0.3971   0.3971   0.7777     C
C       0.3971   0.6029   0.2223     C
C       0.3971   0.6029   0.7777     C
C       0.3971   0.7777   0.3971     C
C       0.3971   0.7777   0.6029     C
C       0.3978   0.1479   0.3978     C
C       0.3978   0.1479   0.6022     C
C       0.3978   0.3978   0.1479     C
C       0.3978   0.3978   0.8521     C
C       0.3978   0.6022   0.1479     C
C       0.3978   0.6022   0.8521     C
C       0.3978   0.8521   0.3978     C
C       0.3978   0.8521   0.6022     C
H        0.407   0.2474    0.407     H
H        0.407   0.2474    0.593     H
H        0.407    0.407   0.2474     H
H        0.407    0.407   0.7526     H
H        0.407    0.593   0.2474     H
H        0.407    0.593   0.7526     H
H        0.407   0.7526    0.407     H
H        0.407   0.7526    0.593     H
H       0.4081   0.1232   0.4081     H
H       0.4081   0.1232   0.5919     H
H       0.4081   0.4081   0.1232     H
H       0.4081   0.4081   0.8768     H
H       0.4081   0.5919   0.1232     H
H       0.4081   0.5919   0.8768     H
H       0.4081   0.8768   0.4081     H
H       0.4081   0.8768   0.5919     H
C       0.4126   0.1854   0.4126     C
C       0.4126   0.1854   0.5874     C
C       0.4126   0.4126   0.1854     C
C       0.4126   0.4126   0.8146     C
C       0.4126   0.5874   0.1854     C
C       0.4126   0.5874   0.8146     C
C       0.4126   0.8146   0.4126     C
C       0.4126   0.8146   0.5874     C
C        0.445   0.1838    0.445     C
C        0.445   0.1838    0.555     C
C        0.445    0.445   0.1838     C
C        0.445    0.445   0.8162     C
C        0.445    0.555   0.1838     C
C        0.445    0.555   0.8162     C
C        0.445   0.8162    0.445     C
C        0.445   0.8162    0.555     C
O       0.4574   0.2199   0.4574     O
O       0.4574   0.2199   0.5426     O
O       0.4574   0.4574   0.2199     O
O       0.4574   0.4574   0.7801     O
O       0.4574   0.5426   0.2199     O
O       0.4574   0.5426   0.7801     O
O       0.4574   0.7801   0.4574     O
O       0.4574   0.7801   0.5426     O
O       0.4588   0.1491   0.4588     O
O       0.4588   0.1491   0.5412     O
O       0.4588   0.4588   0.1491     O
O       0.4588   0.4588   0.8509     O
O       0.4588   0.5412   0.1491     O
O       0.4588   0.5412   0.8509     O
O       0.4588   0.8509   0.4588     O
O       0.4588   0.8509   0.5412     O
Zn         0.5   0.1389      0.5    Zn
Zn         0.5   0.2301      0.5    Zn
Zn         0.5      0.5   0.1389    Zn
Zn         0.5      0.5   0.2301    Zn
Zn         0.5      0.5   0.7699    Zn
Zn         0.5      0.5   0.8611    Zn
Zn         0.5   0.7699      0.5    Zn
Zn         0.5   0.8611      0.5    Zn
O       0.5412   0.1491   0.4588     O
O       0.5412   0.1491   0.5412     O
O       0.5412   0.4588   0.1491     O
O       0.5412   0.4588   0.8509     O
O       0.5412   0.5412   0.1491     O
O       0.5412   0.5412   0.8509     O
O       0.5412   0.8509   0.4588     O
O       0.5412   0.8509   0.5412     O
O       0.5426   0.2199   0.4574     O
O       0.5426   0.2199   0.5426     O
O       0.5426   0.4574   0.2199     O
O       0.5426   0.4574   0.7801     O
O       0.5426   0.5426   0.2199     O
O       0.5426   0.5426   0.7801     O
O       0.5426   0.7801   0.4574     O
O       0.5426   0.7801   0.5426     O
C        0.555   0.1838    0.445     C
C        0.555   0.1838    0.555     C
C        0.555    0.445   0.1838     C
C        0.555    0.445   0.8162     C
C        0.555    0.555   0.1838     C
C        0.555    0.555   0.8162     C
C        0.555   0.8162    0.445     C
C        0.555   0.8162    0.555     C
C       0.5874   0.1854   0.4126     C
C       0.5874   0.1854   0.5874     C
C       0.5874   0.4126   0.1854     C
C       0.5874   0.4126   0.8146     C
C       0.5874   0.5874   0.1854     C
C       0.5874   0.5874   0.8146     C
C       0.5874   0.8146   0.4126     C
C       0.5874   0.8146   0.5874     C
H       0.5919   0.1232   0.4081     H
H       0.5919   0.1232   0.5919     H
H       0.5919   0.4081   0.1232     H
H       0.5919   0.4081   0.8768     H
H       0.5919   0.5919   0.1232     H
H       0.5919   0.5919   0.8768     H
H       0.5919   0.8768   0.4081     H
H       0.5919   0.8768   0.5919     H
H        0.593   0.2474    0.407     H
H        0.593   0.2474    0.593     H
H        0.593    0.407   0.2474     H
H        0.593    0.407   0.7526     H
H        0.593    0.593   0.2474     H
H        0.593    0.593   0.7526     H
H        0.593   0.7526    0.407     H
H        0.593   0.7526    0.593     H
C       0.6022   0.1479   0.3978     C
C       0.6022   0.1479   0.6022     C
C       0.6022   0.3978   0.1479     C
C       0.6022   0.3978   0.8521     C
C       0.6022   0.6022   0.1479     C
C       0.6022   0.6022   0.8521     C
C       0.6022   0.8521   0.3978     C
C       0.6022   0.8521   0.6022     C
C       0.6029   0.2223   0.3971     C
C       0.6029   0.2223   0.6029     C
C       0.6029   0.3971   0.2223     C
C       0.6029   0.3971   0.7777     C
C       0.6029   0.6029   0.2223     C
C       0.6029   0.6029   0.7777     C
C       0.6029   0.7777   0.3971     C
C       0.6029   0.7777   0.6029     C
C       0.6326   0.1474   0.3674     C
C       0.6326   0.1474   0.6326     C
C       0.6326   0.3674   0.1474     C
C       0.6326   0.3674   0.8526     C
C       0.6326   0.6326   0.1474     C
C       0.6326   0.6326   0.8526     C
C       0.6326   0.8526   0.3674     C
C       0.6326   0.8526   0.6326     C
C       0.6333   0.2218   0.3667     C
C       0.6333   0.2218   0.6333     C
C       0.6333   0.3667   0.2218     C
C       0.6333   0.3667   0.7782     C
C       0.6333   0.6333   0.2218     C
C       0.6333   0.6333   0.7782     C
C       0.6333   0.7782   0.3667     C
C       0.6333   0.7782   0.6333     C
O       0.6374   0.2925   0.3626     O
O       0.6374   0.2925   0.6374     O
O       0.6374   0.3626   0.2925     O
O       0.6374   0.3626   0.7075     O
O       0.6374   0.6374   0.2925     O
O       0.6374   0.6374   0.7075     O
O       0.6374   0.7075   0.3626     O
O       0.6374   0.7075   0.6374     O
H       0.6382      0.0   0.3618     H
H       0.6382      0.0   0.6382     H
H       0.6382   0.3618      0.0     H
H       0.6382   0.6382      0.0     H
C        0.648   0.1087    0.352     C
C        0.648   0.1087    0.648     C
C        0.648    0.352   0.1087     C
C        0.648    0.352   0.8913     C
C        0.648    0.648   0.1087     C
C        0.648    0.648   0.8913     C
C        0.648   0.8913    0.352     C
C        0.648   0.8913    0.648     C
C       0.6481   0.1843   0.3519     C
C       0.6481   0.1843   0.6481     C
C       0.6481   0.3519   0.1843     C
C       0.6481   0.3519   0.8157     C
C       0.6481   0.6481   0.1843     C
C       0.6481   0.6481   0.8157     C
C       0.6481   0.8157   0.3519     C
C       0.6481   0.8157   0.6481     C
Zn     0.65073  0.34927  0.34927    Zn
Zn     0.65073  0.34927  0.65073    Zn
Zn     0.65073  0.65073  0.34927    Zn
Zn     0.65073  0.65073  0.65073    Zn
C       0.6522   0.2593   0.3478     C
C       0.6522   0.2593   0.6522     C
C       0.6522   0.3478   0.2593     C
C       0.6522   0.3478   0.7407     C
C       0.6522   0.6522   0.2593     C
C       0.6522   0.6522   0.7407     C
C       0.6522   0.7407   0.3478     C
C       0.6522   0.7407   0.6522     C
C       0.6585      0.0   0.3415     C
C       0.6585      0.0   0.6585     C
C       0.6585   0.3415      0.0     C
C       0.6585   0.6585      0.0     C
C       0.6592   0.0757   0.3408     C
C       0.6592   0.0757   0.6592     C
C       0.6592   0.3408   0.0757     C
C       0.6592   0.3408   0.9243     C
C       0.6592   0.6592   0.0757     C
C       0.6592   0.6592   0.9243     C
C       0.6592   0.9243   0.3408     C
C       0.6592   0.9243   0.6592     C
H       0.6684    0.184   0.3316     H
H       0.6684    0.184   0.6684     H
H       0.6684   0.3316    0.184     H
H       0.6684   0.3316    0.816     H
H       0.6684   0.6684    0.184     H
H       0.6684   0.6684    0.816     H
H       0.6684    0.816   0.3316     H
H       0.6684    0.816   0.6684     H
C       0.6741   0.0367   0.3259     C
C       0.6741   0.0367   0.6741     C
C       0.6741   0.3259   0.0367     C
C       0.6741   0.3259   0.9633     C
C       0.6741   0.6741   0.0367     C
C       0.6741   0.6741   0.9633     C
C       0.6741   0.9633   0.3259     C
C       0.6741   0.9633   0.6741     C
O       0.6797   0.2529   0.3203     O
O       0.6797   0.2529   0.6797     O
O       0.6797   0.3203   0.2529     O
O       0.6797   0.3203   0.7471     O
O       0.6797   0.6797   0.2529     O
O       0.6797   0.6797   0.7471     O
O       0.6797   0.7471   0.3203     O
O       0.6797   0.7471   0.6797     O
C       0.7045   0.0373   0.2955     C
C       0.7045   0.0373   0.7045     C
C       0.7045   0.2955   0.0373     C
C       0.7045   0.2955   0.9627     C
C       0.7045   0.7045   0.0373     C
C       0.7045   0.7045   0.9627     C
C       0.7045   0.9627   0.2955     C
C       0.7045   0.9627   0.7045     C
O       0.7075   0.3626   0.3626     O
O       0.7075   0.3626   0.6374     O
O       0.7075   0.6374   0.3626     O
O       0.7075   0.6374   0.6374     O
H       0.7145   0.0623   0.2855     H
H       0.7145   0.0623   0.7145     H
H       0.7145   0.2855   0.0623     H
H       0.7145   0.2855   0.9377     H
H       0.7145   0.7145   0.0623     H
H       0.7145   0.7145   0.9377     H
H       0.7145   0.9377   0.2855     H
H       0.7145   0.9377   0.7145     H
Zn      0.7147   0.2853   0.2853    Zn
Zn      0.7147   0.2853   0.7147    Zn
Zn      0.7147   0.7147   0.2853    Zn
Zn      0.7147   0.7147   0.7147    Zn
C       0.7198      0.0   0.2802     C
C       0.7198      0.0   0.7198     C
C       0.7198   0.2802      0.0     C
C       0.7198   0.7198      0.0     C
H       0.7402      0.0   0.2598     H
H       0.7402      0.0   0.7402     H
H       0.7402   0.2598      0.0     H
H       0.7402   0.7402      0.0     H
C       0.7407   0.3478   0.3478     C
C       0.7407   0.3478   0.6522     C
C       0.7407   0.6522   0.3478     C
C       0.7407   0.6522   0.6522     C
O       0.7471   0.3203   0.3203     O
O       0.7471   0.3203   0.6797     O
O       0.7471   0.6797   0.3203     O
O       0.7471   0.6797   0.6797     O
H       0.7526    0.407    0.407     H
H       0.7526    0.407    0.593     H
H       0.7526    0.593    0.407     H
H       0.7526    0.593    0.593     H
Zn      0.7699      0.5      0.5    Zn
C       0.7777   0.3971   0.3971     C
C       0.7777   0.3971   0.6029     C
C       0.7777   0.6029   0.3971     C
C       0.7777   0.6029   0.6029     C
C       0.7782   0.3667   0.3667     C
C       0.7782   0.3667   0.6333     C
C       0.7782   0.6333   0.3667     C
C       0.7782   0.6333   0.6333     C
O       0.7801   0.4574   0.4574     O
O       0.7801   0.4574   0.5426     O
O       0.7801   0.5426   0.4574     O
O       0.7801   0.5426   0.5426     O
C       0.8146   0.4126   0.4126     C
C       0.8146   0.4126   0.5874     C
C       0.8146   0.5874   0.4126     C
C       0.8146   0.5874   0.5874     C
C       0.8157   0.3519   0.3519     C
C       0.8157   0.3519   0.6481     C
C       0.8157   0.6481   0.3519     C
C       0.8157   0.6481   0.6481     C
H        0.816   0.3316   0.3316     H
H        0.816   0.3316   0.6684     H
H        0.816   0.6684   0.3316     H
H        0.816   0.6684   0.6684     H
C       0.8162    0.445    0.445     C
C       0.8162    0.445    0.555     C
C       0.8162    0.555    0.445     C
C       0.8162    0.555    0.555     C
O       0.8509   0.4588   0.4588     O
O       0.8509   0.4588   0.5412     O
O       0.8509   0.5412   0.4588     O
O       0.8509   0.5412   0.5412     O
C       0.8521   0.3978   0.3978     C
C       0.8521   0.3978   0.6022     C
C       0.8521   0.6022   0.3978     C
C       0.8521   0.6022   0.6022     C
C       0.8526   0.3674   0.3674     C
C       0.8526   0.3674   0.6326     C
C       0.8526   0.6326   0.3674     C
C       0.8526   0.6326   0.6326     C
Zn      0.8611      0.5      0.5    Zn
H       0.8768   0.4081   0.4081     H
H       0.8768   0.4081   0.5919     H
H       0.8768   0.5919   0.4081     H
H       0.8768   0.5919   0.5919     H
C       0.8913    0.352    0.352     C
C       0.8913    0.352    0.648     C
C       0.8913    0.648    0.352     C
C       0.8913    0.648    0.648     C
C       0.9243   0.3408   0.3408     C
C       0.9243   0.3408   0.6592     C
C       0.9243   0.6592   0.3408     C
C       0.9243   0.6592   0.6592     C
H       0.9377   0.2855   0.2855     H
H       0.9377   0.2855   0.7145     H
H       0.9377   0.7145   0.2855     H
H       0.9377   0.7145   0.7145     H
C       0.9627   0.2955   0.2955     C
C       0.9627   0.2955   0.7045     C
C       0.9627   0.7045   0.2955     C
C       0.9627   0.7045   0.7045     C
C       0.9633   0.3259   0.3259     C
C       0.9633   0.3259   0.6741     C
C       0.9633   0.6741   0.3259     C
C       0.9633   0.6741   0.6741     C
