data_I
_chemical_name_common  '/home/zhangsd/repos/MofS-CGCNN/ML/data/SSD/clean_cifs/YORZAH_clean'
_cell_length_a  6.82000
_cell_length_b 16.49300
_cell_length_c 22.22000
_cell_angle_alpha 90.00000
_cell_angle_beta  90.00000
_cell_angle_gamma 90.00000
_space_group_name_H-M_alt      'P 1'


loop_
_space_group_symop_operation_xyz
  'x, y, z' 

loop_
_atom_site_label
_atom_site_fract_x
_atom_site_fract_y
_atom_site_fract_z
_atom_site_type_symbol
O       0.0174   0.4004  0.06154     O
O       0.0174   0.5996  0.43846     O
O       0.0185      0.1  0.08977     O
O       0.0185      0.9  0.41023     O
H       0.0334   0.2529   0.0906     H
H       0.0334   0.7471   0.4094     H
Sr     0.04403  0.05797  0.91306    Sr
Sr     0.04403  0.94203  0.58694    Sr
O       0.0558   0.0508  0.18172     O
O       0.0558   0.9492  0.31828     O
C       0.0586   0.1084   0.1448     C
C       0.0586   0.8916   0.3552     C
C       0.0767   0.2596   0.1299     C
C       0.0767   0.7404   0.3701     C
C       0.0838   0.4109   0.1128     C
C       0.0838   0.5891   0.3872     C
C       0.1063   0.1929   0.1665     C
C       0.1063   0.8071   0.3335     C
C       0.1122   0.3364   0.1524     C
C       0.1122   0.6636   0.3476     C
O       0.1365   0.4784  0.13488     O
O       0.1365   0.5216  0.36512     O
O       0.1679   0.1229  0.81654     O
O       0.1679   0.8771  0.68346     O
N       0.1762   0.3493  0.20877     N
N       0.1762   0.6507  0.29123     N
C       0.1763   0.2059   0.2248     C
C       0.1763   0.7941   0.2752     C
O       0.1823   0.2521  0.84167     O
O       0.1823   0.7479  0.65833     O
H        0.195    0.467   0.0076     H
H        0.195    0.533   0.4924     H
H       0.2005   0.1623   0.2503     H
H       0.2005   0.8377   0.2497     H
H        0.205    0.469    0.526     H
H        0.205    0.531    0.974     H
C       0.2081   0.1963    0.806     C
C       0.2081   0.8037    0.694     C
C       0.2092   0.2847   0.2441     C
C       0.2092   0.7153   0.2559     C
O       0.2287   0.0013  0.49277     O
O       0.2287   0.9987  0.00723     O
Sr     0.24167      0.0     0.75    Sr
Sr     0.25833      0.5     0.25    Sr
O       0.2713   0.4987  0.99277     O
O       0.2713   0.5013  0.50723     O
C       0.2908   0.2153   0.7441     C
C       0.2908   0.7847   0.7559     C
C       0.2919   0.3037    0.306     C
C       0.2919   0.6963    0.194     C
H        0.295    0.031    0.026     H
H        0.295    0.969    0.474     H
H       0.2995   0.3377   0.7503     H
H       0.2995   0.6623   0.7497     H
H        0.305    0.033   0.5076     H
H        0.305    0.967   0.9924     H
O       0.3177   0.2479  0.34167     O
O       0.3177   0.7521  0.15833     O
C       0.3237   0.2941   0.7248     C
C       0.3237   0.7059   0.7752     C
N       0.3238   0.1507  0.70877     N
N       0.3238   0.8493  0.79123     N
O       0.3321   0.3771  0.31654     O
O       0.3321   0.6229  0.18346     O
O       0.3635   0.0216  0.63488     O
O       0.3635   0.9784  0.86512     O
C       0.3878   0.1636   0.6524     C
C       0.3878   0.8364   0.8476     C
C       0.3937   0.3071   0.6665     C
C       0.3937   0.6929   0.8335     C
C       0.4162   0.0891   0.6128     C
C       0.4162   0.9109   0.8872     C
C       0.4233   0.2404   0.6299     C
C       0.4233   0.7596   0.8701     C
C       0.4414   0.3916   0.6448     C
C       0.4414   0.6084   0.8552     C
O       0.4442   0.4492  0.68172     O
O       0.4442   0.5508  0.81828     O
Sr     0.45597  0.44203  0.41306    Sr
Sr     0.45597  0.55797  0.08694    Sr
H       0.4666   0.2471   0.5906     H
H       0.4666   0.7529   0.9094     H
O       0.4815      0.4  0.58977     O
O       0.4815      0.6  0.91023     O
O       0.4826   0.0996  0.56154     O
O       0.4826   0.9004  0.93846     O
O       0.5174   0.0996  0.06154     O
O       0.5174   0.9004  0.43846     O
O       0.5185      0.4  0.08977     O
O       0.5185      0.6  0.41023     O
H       0.5334   0.2471   0.0906     H
H       0.5334   0.7529   0.4094     H
Sr     0.54403  0.44203  0.91306    Sr
Sr     0.54403  0.55797  0.58694    Sr
O       0.5558   0.4492  0.18172     O
O       0.5558   0.5508  0.31828     O
C       0.5586   0.3916   0.1448     C
C       0.5586   0.6084   0.3552     C
C       0.5767   0.2404   0.1299     C
C       0.5767   0.7596   0.3701     C
C       0.5838   0.0891   0.1128     C
C       0.5838   0.9109   0.3872     C
C       0.6063   0.3071   0.1665     C
C       0.6063   0.6929   0.3335     C
C       0.6122   0.1636   0.1524     C
C       0.6122   0.8364   0.3476     C
O       0.6365   0.0216  0.13488     O
O       0.6365   0.9784  0.36512     O
O       0.6679   0.3771  0.81654     O
O       0.6679   0.6229  0.68346     O
N       0.6762   0.1507  0.20877     N
N       0.6762   0.8493  0.29123     N
C       0.6763   0.2941   0.2248     C
C       0.6763   0.7059   0.2752     C
O       0.6823   0.2479  0.84167     O
O       0.6823   0.7521  0.65833     O
H        0.695    0.033   0.0076     H
H        0.695    0.967   0.4924     H
H       0.7005   0.3377   0.2503     H
H       0.7005   0.6623   0.2497     H
H        0.705    0.031    0.526     H
H        0.705    0.969    0.974     H
C       0.7081   0.3037    0.806     C
C       0.7081   0.6963    0.694     C
C       0.7092   0.2153   0.2441     C
C       0.7092   0.7847   0.2559     C
O       0.7287   0.4987  0.49277     O
O       0.7287   0.5013  0.00723     O
Sr     0.74167      0.5     0.75    Sr
Sr     0.75833      0.0     0.25    Sr
O       0.7713   0.0013  0.99277     O
O       0.7713   0.9987  0.50723     O
C       0.7908   0.2847   0.7441     C
C       0.7908   0.7153   0.7559     C
C       0.7919   0.1963    0.306     C
C       0.7919   0.8037    0.194     C
H        0.795    0.469    0.026     H
H        0.795    0.531    0.474     H
H       0.7995   0.1623   0.7503     H
H       0.7995   0.8377   0.7497     H
H        0.805    0.467   0.5076     H
H        0.805    0.533   0.9924     H
O       0.8177   0.2521  0.34167     O
O       0.8177   0.7479  0.15833     O
C       0.8237   0.2059   0.7248     C
C       0.8237   0.7941   0.7752     C
N       0.8238   0.3493  0.70877     N
N       0.8238   0.6507  0.79123     N
O       0.8321   0.1229  0.31654     O
O       0.8321   0.8771  0.18346     O
O       0.8635   0.4784  0.63488     O
O       0.8635   0.5216  0.86512     O
C       0.8878   0.3364   0.6524     C
C       0.8878   0.6636   0.8476     C
C       0.8937   0.1929   0.6665     C
C       0.8937   0.8071   0.8335     C
C       0.9162   0.4109   0.6128     C
C       0.9162   0.5891   0.8872     C
C       0.9233   0.2596   0.6299     C
C       0.9233   0.7404   0.8701     C
C       0.9414   0.1084   0.6448     C
C       0.9414   0.8916   0.8552     C
O       0.9442   0.0508  0.68172     O
O       0.9442   0.9492  0.81828     O
Sr     0.95597  0.05797  0.41306    Sr
Sr     0.95597  0.94203  0.08694    Sr
H       0.9666   0.2529   0.5906     H
H       0.9666   0.7471   0.9094     H
O       0.9815      0.1  0.58977     O
O       0.9815      0.9  0.91023     O
O       0.9826   0.4004  0.56154     O
O       0.9826   0.5996  0.93846     O
