data_I
_chemical_name_common  '/home/zhangsd/repos/MofS-CGCNN/ML/data/SSD/clean_cifs/YOYREL_clean'
_cell_length_a 17.48500
_cell_length_b 17.48500
_cell_length_c 14.01900
_cell_angle_alpha 90.00000
_cell_angle_beta  90.00000
_cell_angle_gamma 120.00000
_space_group_name_H-M_alt      'P 1'


loop_
_space_group_symop_operation_xyz
  'x, y, z' 

loop_
_atom_site_label
_atom_site_fract_x
_atom_site_fract_y
_atom_site_fract_z
_atom_site_type_symbol
H       0.0086   0.2474   0.9504     H
H       0.0086   0.7612   0.5496     H
H       0.0244   0.3514   0.0632     H
H       0.0244    0.673   0.4368     H
C       0.0248   0.3496   0.5236     C
C       0.0248   0.6752   0.9764     C
C       0.0346    0.298   0.4559     C
C       0.0346   0.7366   0.0441     C
C       0.0368   0.4954    0.169     C
C       0.0368   0.5414    0.331     C
C       0.0538   0.5033     0.67     C
C       0.0538   0.5505     0.83     C
H       0.0673   0.4957   0.1145     H
H       0.0673   0.5716   0.3855     H
C      0.08286  0.54143     0.25     C
C       0.0914   0.4364   0.5298     C
C       0.0914    0.655   0.9702     C
C      0.09948  0.54974     0.75     C
N      0.10456   0.5061   0.5884     N
N      0.10456  0.59846   0.9116     N
C       0.1075   0.3323   0.3955     C
C       0.1075   0.7752   0.1045     C
H       0.1111   0.2958   0.3496     H
H       0.1111   0.8153   0.1504     H
H       0.1608   0.5804     0.75     H
C       0.1657   0.4708   0.4707     C
C       0.1657   0.6949   0.0293     C
C       0.1744   0.4186   0.4018     C
C       0.1744   0.7558   0.0982     C
C      0.18194  0.59097     0.25     C
C       0.1827   0.5757   0.5622     C
C       0.1827    0.607   0.9378     C
H       0.1847   0.2958   0.1504     H
H       0.1847   0.8889   0.3496     H
H       0.2063   0.5755   0.9088     H
H       0.2063   0.6308   0.5912     H
H       0.2178   0.4411   0.1383     H
H       0.2178   0.7767   0.3617     H
O      0.21934  0.57703  0.18097     O
O      0.21934  0.64231  0.31903     O
N      0.22292   0.5596  0.49275     N
N      0.22292  0.66332  0.00725     N
H       0.2233   0.4411   0.3617     H
H       0.2233   0.7822   0.1383     H
C       0.2248   0.3323   0.1045     C
C       0.2248   0.8925   0.3955     C
H       0.2388   0.2474   0.5496     H
H       0.2388   0.9914   0.9504     H
C       0.2442   0.4186   0.0982     C
C       0.2442   0.8256   0.4018     C
H       0.2474   0.0086   0.4504     H
H       0.2474   0.2388   0.0496     H
C       0.2634    0.298   0.0441     C
C       0.2634   0.9654   0.4559     C
H       0.2958   0.1111   0.8496     H
H       0.2958   0.1847   0.6504     H
C        0.298   0.0346   0.9559     C
C        0.298   0.2634   0.5441     C
C       0.3051   0.4708   0.0293     C
C       0.3051   0.8343   0.4707     C
C       0.3248   0.3496   0.9764     C
C       0.3248   0.9752   0.5236     C
H        0.327   0.3514   0.4368     H
H        0.327   0.9756   0.0632     H
C       0.3323   0.1075   0.8955     C
C       0.3323   0.2248   0.6045     C
Mn     0.33333  0.66667  0.10147    Mn
Mn     0.33333  0.66667  0.39853    Mn
N      0.33668   0.5596  0.00725     N
N      0.33668  0.77708  0.49275     N
C        0.345   0.4364   0.9702     C
C        0.345   0.9086   0.5298     C
C       0.3496   0.0248   0.0236     C
C       0.3496   0.3248   0.4764     C
H       0.3514   0.0244   0.5632     H
H       0.3514    0.327   0.9368     H
O      0.35769  0.57703  0.31903     O
O      0.35769  0.78066  0.18097     O
H       0.3692   0.5755   0.5912     H
H       0.3692   0.7937   0.9088     H
C        0.393   0.5757   0.9378     C
C        0.393   0.8173   0.5622     C
N      0.40154   0.5061   0.9116     N
N      0.40154  0.89544   0.5884     N
C      0.40903  0.59097     0.25     C
C      0.40903  0.81806     0.25     C
C       0.4186   0.1744   0.9018     C
C       0.4186   0.2442   0.5982     C
H       0.4196   0.5804     0.75     H
H       0.4196   0.8392     0.75     H
O      0.42297  0.64231  0.18097     O
O      0.42297  0.78066  0.31903     O
C       0.4243    0.607   0.5622     C
C       0.4243   0.8173   0.9378     C
H       0.4245   0.6308   0.9088     H
H       0.4245   0.7937   0.5912     H
H       0.4284   0.4957   0.3855     H
H       0.4284   0.9327   0.1145     H
C       0.4364   0.0914   0.0298     C
C       0.4364    0.345   0.4702     C
N       0.4404  0.66332  0.49275     N
N       0.4404  0.77708  0.00725     N
H       0.4411   0.2178   0.6383     H
H       0.4411   0.2233   0.8617     H
C       0.4495   0.5033     0.83     C
C       0.4495   0.9462     0.67     C
C      0.45026  0.54974     0.75     C
C      0.45026  0.90052     0.75     C
C      0.45857  0.54143     0.25     C
C      0.45857  0.91714     0.25     C
C       0.4586   0.4954    0.331     C
C       0.4586   0.9632    0.169     C
C       0.4708   0.1657   0.9707     C
C       0.4708   0.3051   0.5293     C
N       0.4939  0.59846   0.5884     N
N       0.4939  0.89544   0.9116     N
C       0.4954   0.0368    0.669     C
C       0.4954   0.4586    0.831     C
H       0.4957   0.0673   0.6145     H
H       0.4957   0.4284   0.8855     H
C       0.4967   0.5505     0.67     C
C       0.4967   0.9462     0.83     C
C       0.5033   0.0538     0.17     C
C       0.5033   0.4495     0.33     C
H       0.5043   0.5716   0.1145     H
H       0.5043   0.9327   0.3855     H
C       0.5046   0.5414    0.169     C
C       0.5046   0.9632    0.331     C
N       0.5061  0.10456   0.0884     N
N       0.5061  0.40154   0.4116     N
C       0.5292   0.6949   0.4707     C
C       0.5292   0.8343   0.0293     C
C       0.5414   0.0368    0.831     C
C       0.5414   0.5046    0.669     C
C      0.54143  0.08286     0.75     C
C      0.54143  0.45857     0.75     C
C      0.54974  0.09948     0.25     C
C      0.54974  0.45026     0.25     C
C       0.5505   0.0538     0.33     C
C       0.5505   0.4967     0.17     C
H       0.5589   0.7767   0.1383     H
H       0.5589   0.7822   0.3617     H
N       0.5596  0.22292  0.99275     N
N       0.5596  0.33668  0.50725     N
C       0.5636    0.655   0.5298     C
C       0.5636   0.9086   0.9702     C
H       0.5716   0.0673   0.8855     H
H       0.5716   0.5043   0.6145     H
H       0.5755   0.2063   0.4088     H
H       0.5755   0.3692   0.0912     H
C       0.5757   0.1827   0.0622     C
C       0.5757    0.393   0.4378     C
O      0.57703  0.21934  0.68097     O
O      0.57703  0.35769  0.81903     O
H       0.5804   0.1608     0.25     H
H       0.5804   0.4196     0.25     H
C       0.5814   0.7558   0.4018     C
C       0.5814   0.8256   0.0982     C
C      0.59097  0.18194     0.75     C
C      0.59097  0.40903     0.75     C
N      0.59846  0.10456   0.4116     N
N      0.59846   0.4939   0.0884     N
C        0.607   0.1827   0.4378     C
C        0.607   0.4243   0.0622     C
H       0.6308   0.2063   0.0912     H
H       0.6308   0.4245   0.4088     H
O      0.64231  0.21934  0.81903     O
O      0.64231  0.42297  0.68097     O
H       0.6486    0.673   0.0632     H
H       0.6486   0.9756   0.4368     H
C       0.6504   0.6752   0.5236     C
C       0.6504   0.9752   0.9764     C
C        0.655   0.0914   0.4702     C
C        0.655   0.5636   0.0298     C
N      0.66332  0.22292  0.50725     N
N      0.66332   0.4404  0.99275     N
Mn     0.66667  0.33333  0.60147    Mn
Mn     0.66667  0.33333  0.89853    Mn
C       0.6677   0.7752   0.3955     C
C       0.6677   0.8925   0.1045     C
H        0.673   0.0244   0.9368     H
H        0.673   0.6486   0.5632     H
C       0.6752   0.0248   0.4764     C
C       0.6752   0.6504   0.0236     C
C       0.6949   0.1657   0.5293     C
C       0.6949   0.5292   0.9707     C
C        0.702   0.7366   0.4559     C
C        0.702   0.9654   0.0441     C
H       0.7042   0.8153   0.3496     H
H       0.7042   0.8889   0.1504     H
C       0.7366   0.0346   0.5441     C
C       0.7366    0.702   0.9559     C
H       0.7526   0.7612   0.9504     H
H       0.7526   0.9914   0.5496     H
C       0.7558   0.1744   0.5982     C
C       0.7558   0.5814   0.9018     C
H       0.7612   0.0086   0.0496     H
H       0.7612   0.7526   0.4504     H
C       0.7752   0.1075   0.6045     C
C       0.7752   0.6677   0.8955     C
H       0.7767   0.2178   0.8617     H
H       0.7767   0.5589   0.6383     H
N      0.77708  0.33668  0.99275     N
N      0.77708   0.4404  0.50725     N
O      0.78066  0.35769  0.68097     O
O      0.78066  0.42297  0.81903     O
H       0.7822   0.2233   0.6383     H
H       0.7822   0.5589   0.8617     H
H       0.7937   0.3692   0.4088     H
H       0.7937   0.4245   0.0912     H
H       0.8153   0.1111   0.6504     H
H       0.8153   0.7042   0.8496     H
C       0.8173    0.393   0.0622     C
C       0.8173   0.4243   0.4378     C
C      0.81806  0.40903     0.75     C
C       0.8256   0.2442   0.9018     C
C       0.8256   0.5814   0.5982     C
C       0.8343   0.3051   0.9707     C
C       0.8343   0.5292   0.5293     C
H       0.8392   0.4196     0.25     H
H       0.8889   0.1847   0.8496     H
H       0.8889   0.7042   0.6504     H
C       0.8925   0.2248   0.8955     C
C       0.8925   0.6677   0.6045     C
N      0.89544  0.40154   0.0884     N
N      0.89544   0.4939   0.4116     N
C      0.90052  0.45026     0.25     C
C       0.9086    0.345   0.0298     C
C       0.9086   0.5636   0.4702     C
C      0.91714  0.45857     0.75     C
H       0.9327   0.4284   0.6145     H
H       0.9327   0.5043   0.8855     H
C       0.9462   0.4495     0.17     C
C       0.9462   0.4967     0.33     C
C       0.9632   0.4586    0.669     C
C       0.9632   0.5046    0.831     C
C       0.9654   0.2634   0.9559     C
C       0.9654    0.702   0.5441     C
C       0.9752   0.3248   0.0236     C
C       0.9752   0.6504   0.4764     C
H       0.9756    0.327   0.5632     H
H       0.9756   0.6486   0.9368     H
H       0.9914   0.2388   0.4504     H
H       0.9914   0.7526   0.0496     H
