data_I
_chemical_name_common  '/home/zhangsd/repos/MofS-CGCNN/ML/data/SSD/clean_cifs/YOYRIP_clean'
_cell_length_a 17.20300
_cell_length_b 17.20300
_cell_length_c 14.04500
_cell_angle_alpha 90.00000
_cell_angle_beta  90.00000
_cell_angle_gamma 120.00000
_space_group_name_H-M_alt      'P 1'


loop_
_space_group_symop_operation_xyz
  'x, y, z' 

loop_
_atom_site_label
_atom_site_fract_x
_atom_site_fract_y
_atom_site_fract_z
_atom_site_type_symbol
H       0.0085    0.221   0.5189     H
H       0.0085   0.7875   0.9811     H
H       0.0098   0.3247   0.9138     H
H       0.0098   0.6851   0.5862     H
C        0.031   0.4887   0.8295     C
C        0.031   0.5423   0.6705     C
C       0.0373   0.3377   0.4572     C
C       0.0373   0.6996   0.0428     C
C       0.0487   0.2825   0.5203     C
C       0.0487   0.7662   0.9797     C
C       0.0618   0.5041   0.3286     C
C       0.0618   0.5577   0.1714     C
H        0.062   0.4864   0.8828     H
H        0.062   0.5756   0.6172     H
C       0.0779  0.53895     0.75     C
C       0.0999    0.429   0.4618     C
C       0.0999   0.6709   0.0382     C
C       0.1085  0.55425     0.25     C
N       0.1114   0.5026   0.4081     N
N       0.1114   0.6088   0.0919     N
C       0.1189   0.3169    0.586     C
C       0.1189    0.802    0.914     C
H       0.1235   0.2779   0.6285     H
H       0.1235   0.8456   0.8715     H
H       0.1544   0.2779   0.8715     H
H       0.1544   0.8765   0.6285     H
H       0.1709  0.58545     0.25     H
C       0.1724   0.4642   0.5256     C
C       0.1724   0.7082   0.9744     C
C       0.1791  0.58955     0.75     C
C       0.1821   0.4076   0.5898     C
C       0.1821   0.7745   0.9102     C
C        0.188   0.5755   0.4413     C
C        0.188   0.6125   0.0587     C
C        0.198   0.3169    0.914     C
C        0.198   0.8811    0.586     C
H       0.2009   0.4299   0.8666     H
H       0.2009    0.771   0.6334     H
H       0.2105   0.5775   0.0833     H
H       0.2105    0.633   0.4167     H
H       0.2125    0.221   0.9811     H
H       0.2125   0.9915   0.5189     H
O      0.21658  0.57346  0.81759     O
O      0.21658  0.64312  0.68241     O
H        0.221   0.0085   0.0189     H
H        0.221   0.2125   0.4811     H
C       0.2255   0.4076   0.9102     C
C       0.2255   0.8179   0.5898     C
N       0.2268   0.5568   0.5112     N
N       0.2268     0.67   0.9888     N
H        0.229   0.4299   0.6334     H
H        0.229   0.7991   0.8666     H
C       0.2338   0.2825   0.9797     C
C       0.2338   0.9513   0.5203     C
H       0.2779   0.1235   0.1285     H
H       0.2779   0.1544   0.3715     H
C       0.2825   0.0487   0.0203     C
C       0.2825   0.2338   0.4797     C
C       0.2918   0.4642   0.9744     C
C       0.2918   0.8276   0.5256     C
C       0.3004   0.3377   0.0428     C
C       0.3004   0.9627   0.4572     C
H       0.3149   0.3247   0.5862     H
H       0.3149   0.9902   0.9138     H
C       0.3169   0.1189    0.086     C
C       0.3169    0.198    0.414     C
H       0.3247   0.0098   0.4138     H
H       0.3247   0.3149   0.0862     H
C       0.3291    0.429   0.0382     C
C       0.3291   0.9001   0.4618     C
N         0.33   0.5568   0.9888     N
N         0.33   0.7732   0.5112     N
Mn     0.33333  0.66667  0.60599    Mn
Mn     0.33333  0.66667  0.89401    Mn
C       0.3377   0.0373   0.9572     C
C       0.3377   0.3004   0.5428     C
O      0.35688  0.57346  0.68241     O
O      0.35688  0.78342  0.81759     O
H        0.367   0.5775   0.4167     H
H        0.367   0.7895   0.0833     H
C       0.3875   0.5755   0.0587     C
C       0.3875    0.812   0.4413     C
N       0.3912   0.5026   0.0919     N
N       0.3912   0.8886   0.4081     N
C       0.4076   0.1821   0.0898     C
C       0.4076   0.2255   0.4102     C
C      0.41045  0.58955     0.75     C
C      0.41045   0.8209     0.75     C
H      0.41455  0.58545     0.25     H
H      0.41455   0.8291     0.25     H
H       0.4225    0.633   0.0833     H
H       0.4225   0.7895   0.4167     H
H       0.4244   0.4864   0.6172     H
H       0.4244    0.938   0.8828     H
C       0.4245   0.6125   0.4413     C
C       0.4245    0.812   0.0587     C
O      0.42654  0.64312  0.81759     O
O      0.42654  0.78342  0.68241     O
C        0.429   0.0999   0.9618     C
C        0.429   0.3291   0.5382     C
H       0.4299   0.2009   0.3666     H
H       0.4299    0.229   0.1334     H
C       0.4423   0.5041   0.1714     C
C       0.4423   0.9382   0.3286     C
N       0.4432     0.67   0.5112     N
N       0.4432   0.7732   0.9888     N
C      0.44575  0.55425     0.25     C
C      0.44575   0.8915     0.25     C
C       0.4577   0.4887   0.6705     C
C       0.4577    0.969   0.8295     C
C      0.46105  0.53895     0.75     C
C      0.46105   0.9221     0.75     C
C       0.4642   0.1724   0.0256     C
C       0.4642   0.2918   0.4744     C
H       0.4864    0.062   0.3828     H
H       0.4864   0.4244   0.1172     H
C       0.4887    0.031   0.3295     C
C       0.4887   0.4577   0.1705     C
C       0.4959   0.5577   0.3286     C
C       0.4959   0.9382   0.1714     C
N       0.4974   0.6088   0.4081     N
N       0.4974   0.8886   0.0919     N
N       0.5026   0.1114   0.9081     N
N       0.5026   0.3912   0.5919     N
C       0.5041   0.0618   0.8286     C
C       0.5041   0.4423   0.6714     C
C       0.5113   0.5423   0.8295     C
C       0.5113    0.969   0.6705     C
H       0.5136   0.5756   0.8828     H
H       0.5136    0.938   0.6172     H
C       0.5358   0.7082   0.5256     C
C       0.5358   0.8276   0.9744     C
C      0.53895   0.0779     0.25     C
C      0.53895  0.46105     0.25     C
C       0.5423    0.031   0.1705     C
C       0.5423   0.5113   0.3295     C
C      0.55425   0.1085     0.75     C
C      0.55425  0.44575     0.75     C
N       0.5568   0.2268   0.0112     N
N       0.5568     0.33   0.4888     N
C       0.5577   0.0618   0.6714     C
C       0.5577   0.4959   0.8286     C
H       0.5701    0.771   0.8666     H
H       0.5701   0.7991   0.6334     H
C        0.571   0.6709   0.4618     C
C        0.571   0.9001   0.0382     C
O      0.57346  0.21658  0.31759     O
O      0.57346  0.35688  0.18241     O
C       0.5755    0.188   0.9413     C
C       0.5755   0.3875   0.5587     C
H       0.5756    0.062   0.1172     H
H       0.5756   0.5136   0.3828     H
H       0.5775   0.2105   0.5833     H
H       0.5775    0.367   0.9167     H
H      0.58545   0.1709     0.75     H
H      0.58545  0.41455     0.75     H
C      0.58955   0.1791     0.25     C
C      0.58955  0.41045     0.25     C
C       0.5924   0.7745   0.5898     C
C       0.5924   0.8179   0.9102     C
N       0.6088   0.1114   0.5919     N
N       0.6088   0.4974   0.9081     N
C       0.6125    0.188   0.5587     C
C       0.6125   0.4245   0.9413     C
H        0.633   0.2105   0.9167     H
H        0.633   0.4225   0.5833     H
O      0.64312  0.21658  0.18241     O
O      0.64312  0.42654  0.31759     O
C       0.6623   0.6996   0.4572     C
C       0.6623   0.9627   0.0428     C
Mn     0.66667  0.33333  0.10599    Mn
Mn     0.66667  0.33333  0.39401    Mn
N         0.67   0.2268   0.4888     N
N         0.67   0.4432   0.0112     N
C       0.6709   0.0999   0.5382     C
C       0.6709    0.571   0.9618     C
H       0.6753   0.6851   0.9138     H
H       0.6753   0.9902   0.5862     H
C       0.6831    0.802    0.586     C
C       0.6831   0.8811    0.914     C
H       0.6851   0.0098   0.0862     H
H       0.6851   0.6753   0.4138     H
C       0.6996   0.0373   0.5428     C
C       0.6996   0.6623   0.9572     C
C       0.7082   0.1724   0.4744     C
C       0.7082   0.5358   0.0256     C
C       0.7175   0.7662   0.5203     C
C       0.7175   0.9513   0.9797     C
H       0.7221   0.8456   0.6285     H
H       0.7221   0.8765   0.8715     H
C       0.7662   0.0487   0.4797     C
C       0.7662   0.7175   0.0203     C
H        0.771   0.2009   0.1334     H
H        0.771   0.5701   0.3666     H
N       0.7732     0.33   0.0112     N
N       0.7732   0.4432   0.4888     N
C       0.7745   0.1821   0.4102     C
C       0.7745   0.5924   0.0898     C
H        0.779   0.7875   0.5189     H
H        0.779   0.9915   0.9811     H
O      0.78342  0.35688  0.31759     O
O      0.78342  0.42654  0.18241     O
H       0.7875   0.0085   0.4811     H
H       0.7875    0.779   0.0189     H
H       0.7895    0.367   0.5833     H
H       0.7895   0.4225   0.9167     H
H       0.7991    0.229   0.3666     H
H       0.7991   0.5701   0.1334     H
C        0.802   0.1189    0.414     C
C        0.802   0.6831    0.086     C
C        0.812   0.3875   0.9413     C
C        0.812   0.4245   0.5587     C
C       0.8179   0.2255   0.0898     C
C       0.8179   0.5924   0.4102     C
C       0.8209  0.41045     0.25     C
C       0.8276   0.2918   0.0256     C
C       0.8276   0.5358   0.4744     C
H       0.8291  0.41455     0.75     H
H       0.8456   0.1235   0.3715     H
H       0.8456   0.7221   0.1285     H
H       0.8765   0.1544   0.1285     H
H       0.8765   0.7221   0.3715     H
C       0.8811    0.198    0.086     C
C       0.8811   0.6831    0.414     C
N       0.8886   0.3912   0.9081     N
N       0.8886   0.4974   0.5919     N
C       0.8915  0.44575     0.75     C
C       0.9001   0.3291   0.9618     C
C       0.9001    0.571   0.5382     C
C       0.9221  0.46105     0.25     C
H        0.938   0.4244   0.3828     H
H        0.938   0.5136   0.1172     H
C       0.9382   0.4423   0.8286     C
C       0.9382   0.4959   0.6714     C
C       0.9513   0.2338   0.0203     C
C       0.9513   0.7175   0.4797     C
C       0.9627   0.3004   0.9572     C
C       0.9627   0.6623   0.5428     C
C        0.969   0.4577   0.3295     C
C        0.969   0.5113   0.1705     C
H       0.9902   0.3149   0.4138     H
H       0.9902   0.6753   0.0862     H
H       0.9915   0.2125   0.0189     H
H       0.9915    0.779   0.4811     H
