data_I
_chemical_name_common  '/home/zhangsd/repos/MofS-CGCNN/ML/data/SSD/clean_cifs/YOYTUD_clean'
_cell_length_a 26.20030
_cell_length_b 26.20030
_cell_length_c  9.80140
_cell_angle_alpha 90.00000
_cell_angle_beta  90.00000
_cell_angle_gamma 120.00000
_space_group_name_H-M_alt      'P 1'


loop_
_space_group_symop_operation_xyz
  'x, y, z' 

loop_
_atom_site_label
_atom_site_fract_x
_atom_site_fract_y
_atom_site_fract_z
_atom_site_type_symbol
Ag         0.0  0.29727      0.0    Ag
Fe         0.0      0.5      0.0    Fe
Ag         0.0  0.70273      0.0    Ag
N       0.0033   0.4474   0.8622     N
N       0.0033   0.5559   0.8622     N
C       0.0087   0.4152   0.7899     C
C       0.0087   0.5935   0.7899     C
H      0.00913  0.14427  0.65737     H
H      0.00913  0.86487  0.65737     H
C      0.02877  0.05753  0.33803     C
C      0.02877  0.97123  0.33803     C
N      0.03018  0.06037  0.66107     N
N      0.03018  0.96982  0.66107     N
C      0.03187  0.15473  0.34243     C
C      0.03187  0.87713  0.34243     C
Ag     0.03606   0.3694  0.66667    Ag
Ag     0.03606  0.66667  0.66667    Ag
H      0.04257  0.23523  0.34533     H
H      0.04257  0.80733  0.34533     H
C      0.05753  0.02877  0.66197     C
N      0.06037  0.03018  0.33893     N
C      0.06137  0.12273  0.34063     C
C      0.06137  0.93863  0.34063     C
C      0.06307  0.21473  0.34373     C
C      0.06307  0.84833  0.34373     C
C      0.07317  0.32463  0.12323     C
C      0.07317  0.74853  0.12323     C
C      0.08187  0.34203  0.54343     C
C      0.08187  0.73983  0.54343     C
N       0.0874   0.5437   0.0095     N
H       0.0981    0.474    0.012     H
H       0.0981   0.6241    0.012     H
N      0.11077  0.33003  0.19553     N
N      0.11077  0.78073  0.19553     N
N      0.11407  0.33663  0.47113     N
N      0.11407  0.77743  0.47113     N
C       0.1186    0.515   0.0104     C
C       0.1186   0.6036   0.0104     C
C      0.12273  0.06137  0.65937     C
C      0.12287  0.15473  0.34243     C
C      0.12287  0.96813  0.34243     C
N      0.12297  0.24593  0.34283     N
N      0.12297  0.87703  0.34283     N
H      0.13513  0.14427  0.65737     H
H      0.13513  0.99087  0.65737     H
H      0.14067  0.43143  0.32133     H
H      0.14067  0.70923  0.32133     H
H      0.14427  0.00913  0.34263     H
H      0.14427  0.13513  0.34263     H
C      0.15167  0.21473  0.34373     C
C      0.15167  0.93693  0.34373     C
C      0.15473  0.03187  0.65757     C
C      0.15473  0.12287  0.65757     C
Fe     0.16667  0.33333  0.33333    Fe
Fe     0.16667  0.83333  0.33333    Fe
C       0.1786   0.5438   0.0091     C
C       0.1786   0.6348   0.0091     C
C      0.18167  0.45193  0.32293     C
C      0.18167  0.72973  0.32293     C
H      0.18907  0.53153  0.32403     H
H      0.18907  0.65753  0.32403     H
H      0.19267  0.23523  0.34533     H
H      0.19267  0.95743  0.34533     H
H       0.1982   0.5224   0.0093     H
H       0.1982   0.6758   0.0093     H
N      0.21037  0.42073  0.32383     N
N      0.21037  0.78963  0.32383     N
C      0.21047  0.51193  0.32423     C
C      0.21047  0.69853  0.32423     C
C       0.2106   0.6053   0.0073     C
C      0.21473  0.06307  0.65627     C
C      0.21473  0.15167  0.65627     C
N      0.21927  0.33003  0.19553     N
N      0.21927  0.88923  0.19553     N
N      0.22257  0.33663  0.47113     N
N      0.22257  0.88593  0.47113     N
H      0.23523  0.04257  0.65467     H
H      0.23523  0.19267  0.65467     H
N      0.24593  0.12297  0.65717     N
C      0.25147  0.32463  0.12323     C
C      0.25147  0.92683  0.12323     C
C      0.26017  0.34203  0.54343     C
C      0.26017  0.91813  0.54343     C
C      0.27027  0.45193  0.32293     C
C      0.27027  0.81833  0.32293     C
C      0.27197  0.54393  0.32603     C
C      0.27197  0.72803  0.32603     C
N      0.27297  0.63648  0.32773     N
C       0.2758   0.6379   0.0047     C
H      0.29077  0.43143  0.32133     H
H      0.29077  0.85933  0.32133     H
Ag     0.29727      0.0      0.0    Ag
Ag     0.29727  0.29727      0.0    Ag
C      0.30147  0.51193  0.32423     C
C      0.30147  0.78953  0.32423     C
N      0.30315   0.6063   0.0056     N
N      0.30315  0.69685   0.0056     N
C      0.30457  0.60913  0.32863     C
C      0.30457  0.69543  0.32863     C
H       0.3242   0.5224   0.0093     H
H       0.3242   0.8018   0.0093     H
C      0.32463  0.07317  0.87677     C
C      0.32463  0.25147  0.87677     C
N      0.33003  0.11077  0.80447     N
N      0.33003  0.21927  0.80447     N
Fe     0.33333  0.16667  0.66667    Fe
Ag     0.33333   0.3694  0.66667    Ag
Ag     0.33333  0.96394  0.66667    Ag
N      0.33663  0.11407  0.52887     N
N      0.33663  0.22257  0.52887     N
C      0.34203  0.08187  0.45657     C
C      0.34203  0.26017  0.45657     C
H      0.34247  0.53153  0.32403     H
H      0.34247  0.81093  0.32403     H
C       0.3621   0.6379   0.0047     C
C       0.3621   0.7242   0.0047     C
N      0.36352  0.63648  0.32773     N
N      0.36352  0.72703  0.32773     N
C       0.3652   0.5438   0.0091     C
C       0.3652   0.8214   0.0091     C
Ag      0.3694  0.03606  0.33333    Ag
Ag      0.3694  0.33333  0.33333    Ag
H       0.3759    0.474    0.012     H
H       0.3759   0.9019    0.012     H
C      0.39087  0.69543  0.32863     C
N       0.3937  0.69685   0.0056     N
C       0.3947   0.6053   0.0073     C
C       0.3947   0.7894   0.0073     C
C       0.3964    0.515   0.0104     C
C       0.3964   0.8814   0.0104     C
C       0.4065   0.4152   0.7899     C
C       0.4065   0.9913   0.7899     C
C       0.4152   0.0087   0.2101     C
C       0.4152   0.4065   0.2101     C
N      0.42073  0.21037  0.67617     N
H      0.43143  0.14067  0.67867     H
H      0.43143  0.29077  0.67867     H
N       0.4441   0.4474   0.8622     N
N       0.4441   0.9967   0.8622     N
N       0.4474   0.0033   0.1378     N
N       0.4474   0.4441   0.1378     N
C      0.45193  0.18167  0.67707     C
C      0.45193  0.27027  0.67707     C
C      0.45607  0.72803  0.32603     C
C       0.4562   0.6348   0.0091     C
C       0.4562   0.8214   0.0091     C
N       0.4563   0.5437   0.0095     N
N       0.4563   0.9126   0.0095     N
H      0.46847  0.65753  0.32403     H
H      0.46847  0.81093  0.32403     H
H        0.474   0.0981    0.988     H
H        0.474   0.3759    0.988     H
H       0.4776   0.6758   0.0093     H
H       0.4776   0.8018   0.0093     H
C        0.485   0.6036   0.0104     C
C        0.485   0.8814   0.0104     C
C      0.48807  0.69853  0.32423     C
C      0.48807  0.78953  0.32423     C
Fe         0.5      0.0      0.0    Fe
Fe         0.5      0.5      0.0    Fe
C      0.51193  0.21047  0.67577     C
C      0.51193  0.30147  0.67577     C
C        0.515   0.1186   0.9896     C
C        0.515   0.3964   0.9896     C
H       0.5224   0.1982   0.9907     H
H       0.5224   0.3242   0.9907     H
H        0.526   0.6241    0.012     H
H        0.526   0.9019    0.012     H
H      0.53153  0.18907  0.67597     H
H      0.53153  0.34247  0.67597     H
N       0.5437   0.0874   0.9905     N
N       0.5437   0.4563   0.9905     N
C       0.5438   0.1786   0.9909     C
C       0.5438   0.3652   0.9909     C
C      0.54393  0.27197  0.67397     C
C      0.54807  0.72973  0.32293     C
C      0.54807  0.81833  0.32293     C
N       0.5526   0.5559   0.8622     N
N       0.5526   0.9967   0.8622     N
N       0.5559   0.0033   0.1378     N
N       0.5559   0.5526   0.1378     N
H      0.56857  0.70923  0.32133     H
H      0.56857  0.85933  0.32133     H
N      0.57927  0.78963  0.32383     N
C       0.5848   0.5935   0.7899     C
C       0.5848   0.9913   0.7899     C
C       0.5935   0.0087   0.2101     C
C       0.5935   0.5848   0.2101     C
C       0.6036   0.1186   0.9896     C
C       0.6036    0.485   0.9896     C
C       0.6053   0.2106   0.9927     C
C       0.6053   0.3947   0.9927     C
N       0.6063  0.30315   0.9944     N
C      0.60913  0.30457  0.67137     C
H       0.6241   0.0981    0.988     H
H       0.6241    0.526    0.988     H
Ag      0.6306  0.66667  0.66667    Ag
Ag      0.6306  0.96394  0.66667    Ag
C       0.6348   0.1786   0.9909     C
C       0.6348   0.4562   0.9909     C
N      0.63648  0.27297  0.67227     N
N      0.63648  0.36352  0.67227     N
C       0.6379   0.2758   0.9953     C
C       0.6379   0.3621   0.9953     C
H      0.65753  0.18907  0.67597     H
H      0.65753  0.46847  0.67597     H
C      0.65797  0.73983  0.54343     C
C      0.65797  0.91813  0.54343     C
N      0.66337  0.77743  0.47113     N
N      0.66337  0.88593  0.47113     N
Ag     0.66667  0.03606  0.33333    Ag
Ag     0.66667   0.6306  0.33333    Ag
Fe     0.66667  0.83333  0.33333    Fe
N      0.66997  0.78073  0.19553     N
N      0.66997  0.88923  0.19553     N
C      0.67537  0.74853  0.12323     C
C      0.67537  0.92683  0.12323     C
H       0.6758   0.1982   0.9907     H
H       0.6758   0.4776   0.9907     H
C      0.69543  0.30457  0.67137     C
C      0.69543  0.39087  0.67137     C
N      0.69685  0.30315   0.9944     N
N      0.69685   0.3937   0.9944     N
C      0.69853  0.21047  0.67577     C
C      0.69853  0.48807  0.67577     C
Ag     0.70273      0.0      0.0    Ag
Ag     0.70273  0.70273      0.0    Ag
H      0.70923  0.14067  0.67867     H
H      0.70923  0.56857  0.67867     H
C       0.7242   0.3621   0.9953     C
N      0.72703  0.36352  0.67227     N
C      0.72803  0.27197  0.67397     C
C      0.72803  0.45607  0.67397     C
C      0.72973  0.18167  0.67707     C
C      0.72973  0.54807  0.67707     C
C      0.73983  0.08187  0.45657     C
C      0.73983  0.65797  0.45657     C
C      0.74853  0.07317  0.87677     C
C      0.74853  0.67537  0.87677     C
N      0.75407  0.87703  0.34283     N
H      0.76477  0.80733  0.34533     H
H      0.76477  0.95743  0.34533     H
N      0.77743  0.11407  0.52887     N
N      0.77743  0.66337  0.52887     N
N      0.78073  0.11077  0.80447     N
N      0.78073  0.66997  0.80447     N
C      0.78527  0.84833  0.34373     C
C      0.78527  0.93693  0.34373     C
C       0.7894   0.3947   0.9927     C
C      0.78953  0.30147  0.67577     C
C      0.78953  0.48807  0.67577     C
N      0.78963  0.21037  0.67617     N
N      0.78963  0.57927  0.67617     N
H       0.8018   0.3242   0.9907     H
H       0.8018   0.4776   0.9907     H
H      0.80733  0.04257  0.65467     H
H      0.80733  0.76477  0.65467     H
H      0.81093  0.34247  0.67597     H
H      0.81093  0.46847  0.67597     H
C      0.81833  0.27027  0.67707     C
C      0.81833  0.54807  0.67707     C
C       0.8214   0.3652   0.9909     C
C       0.8214   0.4562   0.9909     C
Fe     0.83333  0.16667  0.66667    Fe
Fe     0.83333  0.66667  0.66667    Fe
C      0.84527  0.87713  0.34243     C
C      0.84527  0.96813  0.34243     C
C      0.84833  0.06307  0.65627     C
C      0.84833  0.78527  0.65627     C
H      0.85573  0.86487  0.65737     H
H      0.85573  0.99087  0.65737     H
H      0.85933  0.29077  0.67867     H
H      0.85933  0.56857  0.67867     H
H      0.86487  0.00913  0.34263     H
H      0.86487  0.85573  0.34263     H
N      0.87703  0.12297  0.65717     N
N      0.87703  0.75407  0.65717     N
C      0.87713  0.03187  0.65757     C
C      0.87713  0.84527  0.65757     C
C      0.87727  0.93863  0.34063     C
C       0.8814   0.3964   0.9896     C
C       0.8814    0.485   0.9896     C
N      0.88593  0.22257  0.52887     N
N      0.88593  0.66337  0.52887     N
N      0.88923  0.21927  0.80447     N
N      0.88923  0.66997  0.80447     N
H       0.9019   0.3759    0.988     H
H       0.9019    0.526    0.988     H
N       0.9126   0.4563   0.9905     N
C      0.91813  0.26017  0.45657     C
C      0.91813  0.65797  0.45657     C
C      0.92683  0.25147  0.87677     C
C      0.92683  0.67537  0.87677     C
C      0.93693  0.15167  0.65627     C
C      0.93693  0.78527  0.65627     C
C      0.93863  0.06137  0.65937     C
C      0.93863  0.87727  0.65937     C
N      0.93963  0.96982  0.66107     N
C      0.94247  0.97123  0.33803     C
H      0.95743  0.19267  0.65467     H
H      0.95743  0.76477  0.65467     H
Ag     0.96394  0.33333  0.33333    Ag
Ag     0.96394   0.6306  0.33333    Ag
C      0.96813  0.12287  0.65757     C
C      0.96813  0.84527  0.65757     C
N      0.96982  0.03018  0.33893     N
N      0.96982  0.93963  0.33893     N
C      0.97123  0.02877  0.66197     C
C      0.97123  0.94247  0.66197     C
H      0.99087  0.13513  0.34263     H
H      0.99087  0.85573  0.34263     H
C       0.9913   0.4065   0.2101     C
C       0.9913   0.5848   0.2101     C
N       0.9967   0.4441   0.1378     N
N       0.9967   0.5526   0.1378     N
