data_I
_chemical_name_common  '/home/zhangsd/repos/MofS-CGCNN/ML/data/SSD/clean_cifs/YOYTOX_clean'
_cell_length_a 26.89130
_cell_length_b 26.89130
_cell_length_c 10.00690
_cell_angle_alpha 90.00000
_cell_angle_beta  90.00000
_cell_angle_gamma 120.00000
_space_group_name_H-M_alt      'P 1'


loop_
_space_group_symop_operation_xyz
  'x, y, z' 

loop_
_atom_site_label
_atom_site_fract_x
_atom_site_fract_y
_atom_site_fract_z
_atom_site_type_symbol
Ag         0.0  0.29782      0.0    Ag
Fe         0.0      0.5      0.0    Fe
Ag         0.0  0.70218      0.0    Ag
N       0.0001   0.4417   0.1468     N
N       0.0001   0.5584   0.1468     N
C       0.0081   0.4118   0.7876     C
C       0.0081   0.5963   0.7876     C
H      0.00863  0.13957  0.66267     H
H      0.00863  0.86907  0.66267     H
C      0.02802  0.05603  0.33503     C
C      0.02802  0.97198  0.33503     C
N      0.02936  0.05873  0.66407     N
N      0.02936  0.97064  0.66407     N
C      0.03127  0.14993  0.33683     C
C      0.03127  0.88133  0.33683     C
Ag     0.03552  0.36885  0.66667    Ag
Ag     0.03552  0.66667  0.66667    Ag
H      0.04257  0.22903  0.33783     H
H      0.04257  0.81353  0.33783     H
C      0.05603  0.02802  0.66497     C
N      0.05873  0.02936  0.33593     N
C      0.05962  0.11923  0.33553     C
C      0.05962  0.94038  0.33553     C
C      0.06247  0.20903  0.33723     C
C      0.06247  0.85343  0.33723     C
C      0.07037  0.32523  0.12093     C
C      0.07037  0.74513  0.12093     C
C      0.07847  0.34143  0.54573     C
C      0.07847  0.73703  0.54573     C
N       0.0945  0.54725   0.0036     N
H       0.1043   0.4802   0.0045     H
H       0.1043   0.6241   0.0045     H
N      0.10827  0.33323  0.48013     N
N      0.10827  0.77503  0.48013     N
N      0.10837  0.33343  0.18653     N
N      0.10837  0.77493  0.18653     N
C      0.11867  0.14993  0.33683     C
C      0.11867  0.96873  0.33683     C
C      0.11923  0.05962  0.66447     C
N      0.11942  0.23883  0.33693     N
N      0.11942  0.88058  0.33693     N
C       0.1243   0.5201   0.0039     C
C       0.1243   0.6042   0.0039     C
H      0.13093  0.13957  0.66267     H
H      0.13093  0.99137  0.66267     H
H      0.13957  0.00863  0.33733     H
H      0.13957  0.13093  0.33733     H
C      0.14657  0.20903  0.33723     C
C      0.14657  0.93753  0.33723     C
H      0.14687  0.43763  0.32883     H
H      0.14687  0.70923  0.32883     H
C      0.14993  0.03127  0.66317     C
C      0.14993  0.11867  0.66317     C
Fe     0.16667  0.33333  0.33333    Fe
Fe     0.16667  0.83333  0.33333    Fe
C       0.1834    0.548   0.0035     C
C       0.1834   0.6354   0.0035     C
H      0.18647  0.22903  0.33783     H
H      0.18647  0.95743  0.33783     H
C      0.18677  0.45763  0.32943     C
C      0.18677  0.72913  0.32943     C
H      0.19377  0.53573  0.32933     H
H      0.19377  0.65803  0.32933     H
H       0.2024   0.5271    0.004     H
H       0.2024   0.6753    0.004     H
C      0.20903  0.06247  0.66277     C
C      0.20903  0.14657  0.66277     C
N      0.21392  0.42783  0.32973     N
N      0.21392  0.78608  0.32973     N
C       0.2141  0.60705   0.0022     C
C      0.21467  0.51673  0.32983     C
C      0.21467  0.69793  0.32983     C
N      0.22497  0.33323  0.48013     N
N      0.22497  0.89173  0.48013     N
N      0.22507  0.33343  0.18653     N
N      0.22507  0.89163  0.18653     N
H      0.22903  0.04257  0.66217     H
H      0.22903  0.18647  0.66217     H
N      0.23883  0.11942  0.66307     N
C      0.25487  0.32523  0.12093     C
C      0.25487  0.92963  0.12093     C
C      0.26297  0.34143  0.54573     C
C      0.26297  0.92153  0.54573     C
C      0.27087  0.45763  0.32943     C
C      0.27087  0.81323  0.32943     C
C      0.27372  0.54743  0.33113     C
C      0.27372  0.72628  0.33113     C
N      0.27461   0.6373  0.33073     N
C       0.2773  0.63865   0.0017     C
H      0.29077  0.43763  0.32883     H
H      0.29077  0.85313  0.32883     H
Ag     0.29782      0.0      0.0    Ag
Ag     0.29782  0.29782      0.0    Ag
C      0.30207  0.51673  0.32983     C
C      0.30207  0.78533  0.32983     C
N      0.30397  0.60794   0.0026     N
N      0.30397  0.69603   0.0026     N
C      0.30532  0.61063  0.33163     C
C      0.30532  0.69468  0.33163     C
H       0.3247   0.5271    0.004     H
H       0.3247   0.7976    0.004     H
C      0.32523  0.07037  0.87907     C
C      0.32523  0.25487  0.87907     C
N      0.33323  0.10827  0.51987     N
N      0.33323  0.22497  0.51987     N
Fe     0.33333  0.16667  0.66667    Fe
Ag     0.33333  0.36885  0.66667    Ag
Ag     0.33333  0.96448  0.66667    Ag
N      0.33343  0.10837  0.81347     N
N      0.33343  0.22507  0.81347     N
C      0.34143  0.07847  0.45427     C
C      0.34143  0.26297  0.45427     C
H      0.34197  0.53573  0.32933     H
H      0.34197  0.80623  0.32933     H
C      0.36135  0.63865   0.0017     C
C      0.36135   0.7227   0.0017     C
N       0.3627   0.6373  0.33073     N
N       0.3627  0.72539  0.33073     N
C       0.3646    0.548   0.0035     C
C       0.3646   0.8166   0.0035     C
Ag     0.36885  0.03552  0.33333    Ag
Ag     0.36885  0.33333  0.33333    Ag
H       0.3759   0.4802   0.0045     H
H       0.3759   0.8957   0.0045     H
C      0.38937  0.69468  0.33163     C
N      0.39206  0.69603   0.0026     N
C      0.39295  0.60705   0.0022     C
C      0.39295   0.7859   0.0022     C
C       0.3958   0.5201   0.0039     C
C       0.3958   0.8757   0.0039     C
C       0.4037   0.4118   0.7876     C
C       0.4037   0.9919   0.7876     C
C       0.4118   0.0081   0.2124     C
C       0.4118   0.4037   0.2124     C
N      0.42783  0.21392  0.67027     N
H      0.43763  0.14687  0.67117     H
H      0.43763  0.29077  0.67117     H
N       0.4416   0.4417   0.1468     N
N       0.4416   0.9999   0.1468     N
N       0.4417   0.0001   0.8532     N
N       0.4417   0.4416   0.8532     N
C        0.452   0.6354   0.0035     C
C        0.452   0.8166   0.0035     C
C      0.45257  0.72628  0.33113     C
N      0.45275  0.54725   0.0036     N
N      0.45275   0.9055   0.0036     N
C      0.45763  0.18677  0.67057     C
C      0.45763  0.27087  0.67057     C
H      0.46427  0.65803  0.32933     H
H      0.46427  0.80623  0.32933     H
H       0.4729   0.6753    0.004     H
H       0.4729   0.7976    0.004     H
C       0.4799   0.6042   0.0039     C
C       0.4799   0.8757   0.0039     C
H       0.4802   0.1043   0.9955     H
H       0.4802   0.3759   0.9955     H
C      0.48327  0.69793  0.32983     C
C      0.48327  0.78533  0.32983     C
Fe         0.5      0.0      0.0    Fe
Fe         0.5      0.5      0.0    Fe
C      0.51673  0.21467  0.67017     C
C      0.51673  0.30207  0.67017     C
H       0.5198   0.6241   0.0045     H
H       0.5198   0.8957   0.0045     H
C       0.5201   0.1243   0.9961     C
C       0.5201   0.3958   0.9961     C
H       0.5271   0.2024    0.996     H
H       0.5271   0.3247    0.996     H
H      0.53573  0.19377  0.67067     H
H      0.53573  0.34197  0.67067     H
C      0.54237  0.72913  0.32943     C
C      0.54237  0.81323  0.32943     C
N      0.54725   0.0945   0.9964     N
N      0.54725  0.45275   0.9964     N
C      0.54743  0.27372  0.66887     C
C        0.548   0.1834   0.9965     C
C        0.548   0.3646   0.9965     C
N       0.5583   0.5584   0.1468     N
N       0.5583   0.9999   0.1468     N
N       0.5584   0.0001   0.8532     N
N       0.5584   0.5583   0.8532     N
H      0.56237  0.70923  0.32883     H
H      0.56237  0.85313  0.32883     H
N      0.57217  0.78608  0.32973     N
C       0.5882   0.5963   0.7876     C
C       0.5882   0.9919   0.7876     C
C       0.5963   0.0081   0.2124     C
C       0.5963   0.5882   0.2124     C
C       0.6042   0.1243   0.9961     C
C       0.6042   0.4799   0.9961     C
C      0.60705   0.2141   0.9978     C
C      0.60705  0.39295   0.9978     C
N      0.60794  0.30397   0.9974     N
C      0.61063  0.30532  0.66837     C
H       0.6241   0.1043   0.9955     H
H       0.6241   0.5198   0.9955     H
Ag     0.63115  0.66667  0.66667    Ag
Ag     0.63115  0.96448  0.66667    Ag
C       0.6354   0.1834   0.9965     C
C       0.6354    0.452   0.9965     C
N       0.6373  0.27461  0.66927     N
N       0.6373   0.3627  0.66927     N
C      0.63865   0.2773   0.9983     C
C      0.63865  0.36135   0.9983     C
H      0.65803  0.19377  0.67067     H
H      0.65803  0.46427  0.67067     H
C      0.65857  0.73703  0.54573     C
C      0.65857  0.92153  0.54573     C
N      0.66657  0.77493  0.18653     N
N      0.66657  0.89163  0.18653     N
Ag     0.66667  0.03552  0.33333    Ag
Ag     0.66667  0.63115  0.33333    Ag
Fe     0.66667  0.83333  0.33333    Fe
N      0.66677  0.77503  0.48013     N
N      0.66677  0.89173  0.48013     N
C      0.67477  0.74513  0.12093     C
C      0.67477  0.92963  0.12093     C
H       0.6753   0.2024    0.996     H
H       0.6753   0.4729    0.996     H
C      0.69468  0.30532  0.66837     C
C      0.69468  0.38937  0.66837     C
N      0.69603  0.30397   0.9974     N
N      0.69603  0.39206   0.9974     N
C      0.69793  0.21467  0.67017     C
C      0.69793  0.48327  0.67017     C
Ag     0.70218      0.0      0.0    Ag
Ag     0.70218  0.70218      0.0    Ag
H      0.70923  0.14687  0.67117     H
H      0.70923  0.56237  0.67117     H
C       0.7227  0.36135   0.9983     C
N      0.72539   0.3627  0.66927     N
C      0.72628  0.27372  0.66887     C
C      0.72628  0.45257  0.66887     C
C      0.72913  0.18677  0.67057     C
C      0.72913  0.54237  0.67057     C
C      0.73703  0.07847  0.45427     C
C      0.73703  0.65857  0.45427     C
C      0.74513  0.07037  0.87907     C
C      0.74513  0.67477  0.87907     C
N      0.76117  0.88058  0.33693     N
H      0.77097  0.81353  0.33783     H
H      0.77097  0.95743  0.33783     H
N      0.77493  0.10837  0.81347     N
N      0.77493  0.66657  0.81347     N
N      0.77503  0.10827  0.51987     N
N      0.77503  0.66677  0.51987     N
C      0.78533  0.30207  0.67017     C
C      0.78533  0.48327  0.67017     C
C       0.7859  0.39295   0.9978     C
N      0.78608  0.21392  0.67027     N
N      0.78608  0.57217  0.67027     N
C      0.79097  0.85343  0.33723     C
C      0.79097  0.93753  0.33723     C
H       0.7976   0.3247    0.996     H
H       0.7976   0.4729    0.996     H
H      0.80623  0.34197  0.67067     H
H      0.80623  0.46427  0.67067     H
C      0.81323  0.27087  0.67057     C
C      0.81323  0.54237  0.67057     C
H      0.81353  0.04257  0.66217     H
H      0.81353  0.77097  0.66217     H
C       0.8166   0.3646   0.9965     C
C       0.8166    0.452   0.9965     C
Fe     0.83333  0.16667  0.66667    Fe
Fe     0.83333  0.66667  0.66667    Fe
C      0.85007  0.88133  0.33683     C
C      0.85007  0.96873  0.33683     C
H      0.85313  0.29077  0.67117     H
H      0.85313  0.56237  0.67117     H
C      0.85343  0.06247  0.66277     C
C      0.85343  0.79097  0.66277     C
H      0.86043  0.86907  0.66267     H
H      0.86043  0.99137  0.66267     H
H      0.86907  0.00863  0.33733     H
H      0.86907  0.86043  0.33733     H
C       0.8757   0.3958   0.9961     C
C       0.8757   0.4799   0.9961     C
N      0.88058  0.11942  0.66307     N
N      0.88058  0.76117  0.66307     N
C      0.88077  0.94038  0.33553     C
C      0.88133  0.03127  0.66317     C
C      0.88133  0.85007  0.66317     C
N      0.89163  0.22507  0.81347     N
N      0.89163  0.66657  0.81347     N
N      0.89173  0.22497  0.51987     N
N      0.89173  0.66677  0.51987     N
H       0.8957   0.3759   0.9955     H
H       0.8957   0.5198   0.9955     H
N       0.9055  0.45275   0.9964     N
C      0.92153  0.26297  0.45427     C
C      0.92153  0.65857  0.45427     C
C      0.92963  0.25487  0.87907     C
C      0.92963  0.67477  0.87907     C
C      0.93753  0.14657  0.66277     C
C      0.93753  0.79097  0.66277     C
C      0.94038  0.05962  0.66447     C
C      0.94038  0.88077  0.66447     C
N      0.94127  0.97064  0.66407     N
C      0.94397  0.97198  0.33503     C
H      0.95743  0.18647  0.66217     H
H      0.95743  0.77097  0.66217     H
Ag     0.96448  0.33333  0.33333    Ag
Ag     0.96448  0.63115  0.33333    Ag
C      0.96873  0.11867  0.66317     C
C      0.96873  0.85007  0.66317     C
N      0.97064  0.02936  0.33593     N
N      0.97064  0.94127  0.33593     N
C      0.97198  0.02802  0.66497     C
C      0.97198  0.94397  0.66497     C
H      0.99137  0.13093  0.33733     H
H      0.99137  0.86043  0.33733     H
C       0.9919   0.4037   0.2124     C
C       0.9919   0.5882   0.2124     C
N       0.9999   0.4416   0.8532     N
N       0.9999   0.5583   0.8532     N
