data_I
_chemical_name_common  '/home/zhangsd/repos/MofS-CGCNN/ML/data/SSD/clean_cifs/YOYVAL_clean'
_cell_length_a 26.88240
_cell_length_b 26.88240
_cell_length_c 10.20720
_cell_angle_alpha 90.00000
_cell_angle_beta  90.00000
_cell_angle_gamma 120.00000
_space_group_name_H-M_alt      'P 1'


loop_
_space_group_symop_operation_xyz
  'x, y, z' 

loop_
_atom_site_label
_atom_site_fract_x
_atom_site_fract_y
_atom_site_fract_z
_atom_site_type_symbol
Ag         0.0  0.29815      0.0    Ag
Fe         0.0      0.5      0.0    Fe
Ag         0.0  0.70185      0.0    Ag
N       0.0019   0.4418    0.857     N
N       0.0019   0.5601    0.857     N
H      0.00873  0.13997  0.65637     H
H      0.00873  0.86877  0.65637     H
C       0.0094   0.4118   0.7894     C
C       0.0094   0.5976   0.7894     C
C      0.02822  0.05643  0.34093     C
C      0.02822  0.97178  0.34093     C
N      0.02931  0.05863  0.66087     N
N      0.02931  0.97069  0.66087     N
C      0.03117  0.15003  0.34283     C
C      0.03117  0.88113  0.34283     C
Ag     0.03518  0.36852  0.66667    Ag
Ag     0.03518  0.66667  0.66667    Ag
H      0.04247  0.22923  0.34303     H
H      0.04247  0.81323  0.34303     H
C      0.05643  0.02822  0.65907     C
N      0.05863  0.02931  0.33913     N
C      0.05932  0.11863  0.34123     C
C      0.05932  0.94068  0.34123     C
C      0.06227  0.20913  0.34313     C
C      0.06227  0.85313  0.34313     C
C      0.06907  0.32393  0.12273     C
C      0.06907  0.74513  0.12273     C
C      0.07847  0.34273  0.54393     C
C      0.07847  0.73573  0.54393     C
N       0.0947  0.54735   0.0102     N
H       0.1041   0.4799   0.0097     H
H       0.1041   0.6242   0.0097     H
N      0.10657  0.33143  0.19033     N
N      0.10657  0.77513  0.19033     N
N      0.10847  0.33523  0.47633     N
N      0.10847  0.77323  0.47633     N
C      0.11863  0.05932  0.65877     C
C      0.11887  0.15003  0.34283     C
C      0.11887  0.96883  0.34283     C
N      0.11932  0.23863  0.34353     N
N      0.11932  0.88068  0.34353     N
C       0.1242   0.5198   0.0098     C
C       0.1242   0.6044   0.0098     C
H      0.13123  0.13997  0.65637     H
H      0.13123  0.99127  0.65637     H
H      0.13997  0.00873  0.34363     H
H      0.13997  0.13123  0.34363     H
H      0.14657  0.43743  0.32363     H
H      0.14657  0.70913  0.32363     H
C      0.14687  0.20913  0.34313     C
C      0.14687  0.93773  0.34313     C
C      0.15003  0.03117  0.65717     C
C      0.15003  0.11887  0.65717     C
Fe     0.16667  0.33333  0.33333    Fe
Fe     0.16667  0.83333  0.33333    Fe
C       0.1833   0.5478   0.0095     C
C       0.1833   0.6355   0.0095     C
C      0.18647  0.45753  0.32353     C
C      0.18647  0.72893  0.32353     C
H      0.18677  0.22923  0.34303     H
H      0.18677  0.95753  0.34303     H
H      0.19337  0.53543  0.32303     H
H      0.19337  0.65793  0.32303     H
H       0.2021   0.5267   0.0103     H
H       0.2021   0.6754   0.0103     H
C      0.20913  0.06227  0.65687     C
C      0.20913  0.14687  0.65687     C
N      0.21402  0.42803  0.32313     N
N      0.21402  0.78598  0.32313     N
C      0.21447  0.51663  0.32383     C
C      0.21447  0.69783  0.32383     C
C       0.2147  0.60735   0.0079     C
N      0.22487  0.33143  0.19033     N
N      0.22487  0.89343  0.19033     N
N      0.22677  0.33523  0.47633     N
N      0.22677  0.89153  0.47633     N
H      0.22923  0.04247  0.65697     H
H      0.22923  0.18677  0.65697     H
N      0.23863  0.11932  0.65647     N
C      0.25487  0.32393  0.12273     C
C      0.25487  0.93093  0.12273     C
C      0.26427  0.34273  0.54393     C
C      0.26427  0.92153  0.54393     C
C      0.27107  0.45753  0.32353     C
C      0.27107  0.81353  0.32353     C
C      0.27402  0.54803  0.32543     C
C      0.27402  0.72598  0.32543     C
N      0.27471  0.63735  0.32753     N
C       0.2769  0.63845   0.0076     C
H      0.29087  0.43743  0.32363     H
H      0.29087  0.85343  0.32363     H
Ag     0.29815      0.0      0.0    Ag
Ag     0.29815  0.29815      0.0    Ag
C      0.30217  0.51663  0.32383     C
C      0.30217  0.78553  0.32383     C
N      0.30402  0.60804   0.0058     N
N      0.30402  0.69598   0.0058     N
C      0.30512  0.61023  0.32573     C
C      0.30512  0.69488  0.32573     C
C      0.32393  0.06907  0.87727     C
C      0.32393  0.25487  0.87727     C
H       0.3246   0.5267   0.0103     H
H       0.3246   0.7979   0.0103     H
N      0.33143  0.10657  0.80967     N
N      0.33143  0.22487  0.80967     N
Fe     0.33333  0.16667  0.66667    Fe
Ag     0.33333  0.36852  0.66667    Ag
Ag     0.33333  0.96482  0.66667    Ag
N      0.33523  0.10847  0.52367     N
N      0.33523  0.22677  0.52367     N
H      0.34207  0.53543  0.32303     H
H      0.34207  0.80663  0.32303     H
C      0.34273  0.07847  0.45607     C
C      0.34273  0.26427  0.45607     C
C      0.36155  0.63845   0.0076     C
C      0.36155   0.7231   0.0076     C
N      0.36265  0.63735  0.32753     N
N      0.36265  0.72529  0.32753     N
C       0.3645   0.5478   0.0095     C
C       0.3645   0.8167   0.0095     C
Ag     0.36852  0.03518  0.33333    Ag
Ag     0.36852  0.33333  0.33333    Ag
H       0.3758   0.4799   0.0097     H
H       0.3758   0.8959   0.0097     H
C      0.38977  0.69488  0.32573     C
N      0.39196  0.69598   0.0058     N
C      0.39265  0.60735   0.0079     C
C      0.39265   0.7853   0.0079     C
C       0.3956   0.5198   0.0098     C
C       0.3956   0.8758   0.0098     C
C       0.4024   0.4118   0.7894     C
C       0.4024   0.9906   0.7894     C
C       0.4118   0.0094   0.2106     C
C       0.4118   0.4024   0.2106     C
N      0.42803  0.21402  0.67687     N
H      0.43743  0.14657  0.67637     H
H      0.43743  0.29087  0.67637     H
N       0.4399   0.4418    0.857     N
N       0.4399   0.9981    0.857     N
N       0.4418   0.0019    0.143     N
N       0.4418   0.4399    0.143     N
C      0.45197  0.72598  0.32543     C
C       0.4522   0.6355   0.0095     C
C       0.4522   0.8167   0.0095     C
N      0.45265  0.54735   0.0102     N
N      0.45265   0.9053   0.0102     N
C      0.45753  0.18647  0.67647     C
C      0.45753  0.27107  0.67647     C
H      0.46457  0.65793  0.32303     H
H      0.46457  0.80663  0.32303     H
H       0.4733   0.6754   0.0103     H
H       0.4733   0.7979   0.0103     H
H       0.4799   0.1041   0.9903     H
H       0.4799   0.3758   0.9903     H
C       0.4802   0.6044   0.0098     C
C       0.4802   0.8758   0.0098     C
C      0.48337  0.69783  0.32383     C
C      0.48337  0.78553  0.32383     C
Fe         0.5      0.0      0.0    Fe
Fe         0.5      0.5      0.0    Fe
C      0.51663  0.21447  0.67617     C
C      0.51663  0.30217  0.67617     C
C       0.5198   0.1242   0.9902     C
C       0.5198   0.3956   0.9902     C
H       0.5201   0.6242   0.0097     H
H       0.5201   0.8959   0.0097     H
H       0.5267   0.2021   0.9897     H
H       0.5267   0.3246   0.9897     H
H      0.53543  0.19337  0.67697     H
H      0.53543  0.34207  0.67697     H
C      0.54247  0.72893  0.32353     C
C      0.54247  0.81353  0.32353     C
N      0.54735   0.0947   0.9898     N
N      0.54735  0.45265   0.9898     N
C       0.5478   0.1833   0.9905     C
C       0.5478   0.3645   0.9905     C
C      0.54803  0.27402  0.67457     C
N       0.5582   0.5601    0.857     N
N       0.5582   0.9981    0.857     N
N       0.5601   0.0019    0.143     N
N       0.5601   0.5582    0.143     N
H      0.56257  0.70913  0.32363     H
H      0.56257  0.85343  0.32363     H
N      0.57197  0.78598  0.32313     N
C       0.5882   0.5976   0.7894     C
C       0.5882   0.9906   0.7894     C
C       0.5976   0.0094   0.2106     C
C       0.5976   0.5882   0.2106     C
C       0.6044   0.1242   0.9902     C
C       0.6044   0.4802   0.9902     C
C      0.60735   0.2147   0.9921     C
C      0.60735  0.39265   0.9921     C
N      0.60804  0.30402   0.9942     N
C      0.61023  0.30512  0.67427     C
H       0.6242   0.1041   0.9903     H
H       0.6242   0.5201   0.9903     H
Ag     0.63148  0.66667  0.66667    Ag
Ag     0.63148  0.96482  0.66667    Ag
C       0.6355   0.1833   0.9905     C
C       0.6355   0.4522   0.9905     C
N      0.63735  0.27471  0.67247     N
N      0.63735  0.36265  0.67247     N
C      0.63845   0.2769   0.9924     C
C      0.63845  0.36155   0.9924     C
C      0.65727  0.73573  0.54393     C
C      0.65727  0.92153  0.54393     C
H      0.65793  0.19337  0.67697     H
H      0.65793  0.46457  0.67697     H
N      0.66477  0.77323  0.47633     N
N      0.66477  0.89153  0.47633     N
Ag     0.66667  0.03518  0.33333    Ag
Ag     0.66667  0.63148  0.33333    Ag
Fe     0.66667  0.83333  0.33333    Fe
N      0.66857  0.77513  0.19033     N
N      0.66857  0.89343  0.19033     N
H       0.6754   0.2021   0.9897     H
H       0.6754   0.4733   0.9897     H
C      0.67607  0.74513  0.12273     C
C      0.67607  0.93093  0.12273     C
C      0.69488  0.30512  0.67427     C
C      0.69488  0.38977  0.67427     C
N      0.69598  0.30402   0.9942     N
N      0.69598  0.39196   0.9942     N
C      0.69783  0.21447  0.67617     C
C      0.69783  0.48337  0.67617     C
Ag     0.70185      0.0      0.0    Ag
Ag     0.70185  0.70185      0.0    Ag
H      0.70913  0.14657  0.67637     H
H      0.70913  0.56257  0.67637     H
C       0.7231  0.36155   0.9924     C
N      0.72529  0.36265  0.67247     N
C      0.72598  0.27402  0.67457     C
C      0.72598  0.45197  0.67457     C
C      0.72893  0.18647  0.67647     C
C      0.72893  0.54247  0.67647     C
C      0.73573  0.07847  0.45607     C
C      0.73573  0.65727  0.45607     C
C      0.74513  0.06907  0.87727     C
C      0.74513  0.67607  0.87727     C
N      0.76137  0.88068  0.34353     N
H      0.77077  0.81323  0.34303     H
H      0.77077  0.95753  0.34303     H
N      0.77323  0.10847  0.52367     N
N      0.77323  0.66477  0.52367     N
N      0.77513  0.10657  0.80967     N
N      0.77513  0.66857  0.80967     N
C       0.7853  0.39265   0.9921     C
C      0.78553  0.30217  0.67617     C
C      0.78553  0.48337  0.67617     C
N      0.78598  0.21402  0.67687     N
N      0.78598  0.57197  0.67687     N
C      0.79087  0.85313  0.34313     C
C      0.79087  0.93773  0.34313     C
H       0.7979   0.3246   0.9897     H
H       0.7979   0.4733   0.9897     H
H      0.80663  0.34207  0.67697     H
H      0.80663  0.46457  0.67697     H
H      0.81323  0.04247  0.65697     H
H      0.81323  0.77077  0.65697     H
C      0.81353  0.27107  0.67647     C
C      0.81353  0.54247  0.67647     C
C       0.8167   0.3645   0.9905     C
C       0.8167   0.4522   0.9905     C
Fe     0.83333  0.16667  0.66667    Fe
Fe     0.83333  0.66667  0.66667    Fe
C      0.84997  0.88113  0.34283     C
C      0.84997  0.96883  0.34283     C
C      0.85313  0.06227  0.65687     C
C      0.85313  0.79087  0.65687     C
H      0.85343  0.29087  0.67637     H
H      0.85343  0.56257  0.67637     H
H      0.86003  0.86877  0.65637     H
H      0.86003  0.99127  0.65637     H
H      0.86877  0.00873  0.34363     H
H      0.86877  0.86003  0.34363     H
C       0.8758   0.3956   0.9902     C
C       0.8758   0.4802   0.9902     C
N      0.88068  0.11932  0.65647     N
N      0.88068  0.76137  0.65647     N
C      0.88113  0.03117  0.65717     C
C      0.88113  0.84997  0.65717     C
C      0.88137  0.94068  0.34123     C
N      0.89153  0.22677  0.52367     N
N      0.89153  0.66477  0.52367     N
N      0.89343  0.22487  0.80967     N
N      0.89343  0.66857  0.80967     N
H       0.8959   0.3758   0.9903     H
H       0.8959   0.5201   0.9903     H
N       0.9053  0.45265   0.9898     N
C      0.92153  0.26427  0.45607     C
C      0.92153  0.65727  0.45607     C
C      0.93093  0.25487  0.87727     C
C      0.93093  0.67607  0.87727     C
C      0.93773  0.14687  0.65687     C
C      0.93773  0.79087  0.65687     C
C      0.94068  0.05932  0.65877     C
C      0.94068  0.88137  0.65877     C
N      0.94137  0.97069  0.66087     N
C      0.94357  0.97178  0.34093     C
H      0.95753  0.18677  0.65697     H
H      0.95753  0.77077  0.65697     H
Ag     0.96482  0.33333  0.33333    Ag
Ag     0.96482  0.63148  0.33333    Ag
C      0.96883  0.11887  0.65717     C
C      0.96883  0.84997  0.65717     C
N      0.97069  0.02931  0.33913     N
N      0.97069  0.94137  0.33913     N
C      0.97178  0.02822  0.65907     C
C      0.97178  0.94357  0.65907     C
C       0.9906   0.4024   0.2106     C
C       0.9906   0.5882   0.2106     C
H      0.99127  0.13123  0.34363     H
H      0.99127  0.86003  0.34363     H
N       0.9981   0.4399    0.143     N
N       0.9981   0.5582    0.143     N
