data_I
_chemical_name_common  '/home/zhangsd/repos/MofS-CGCNN/ML/data/SSD/clean_cifs/YUBQET_clean'
_cell_length_a 11.00200
_cell_length_b 22.15470
_cell_length_c 16.99570
_cell_angle_alpha 90.00000
_cell_angle_beta  100.69700
_cell_angle_gamma 90.00000
_space_group_name_H-M_alt      'P 1'


loop_
_space_group_symop_operation_xyz
  'x, y, z' 

loop_
_atom_site_label
_atom_site_fract_x
_atom_site_fract_y
_atom_site_fract_z
_atom_site_type_symbol
O      0.00072   0.5909  0.45246     O
O      0.00072   0.9091  0.95246     O
C       0.0457  0.51049   0.7594     C
C       0.0457  0.98951   0.2594     C
C       0.0519  0.08442   0.8626     C
C       0.0519  0.41558   0.3626     C
N       0.0529  0.55536  0.63222     N
N       0.0529  0.94464  0.13222     N
H       0.0594   0.1722   0.1495     H
H       0.0594   0.3278   0.6495     H
C       0.0624  0.04066   0.7358     C
C       0.0624  0.45934   0.2358     C
H       0.0814   0.0156   0.3001     H
H       0.0814   0.4844   0.8001     H
H       0.0865   0.1097   0.9045     H
H       0.0865   0.3903   0.4045     H
N       0.0868  0.51086   0.1127     N
N       0.0868  0.98914   0.6127     N
C       0.0997  0.51942   0.6939     C
C       0.0997  0.98058   0.1939     C
C       0.1113  0.07878   0.7985     C
C       0.1113  0.42122   0.2985     C
C       0.1123  0.07861   0.0633     C
C       0.1123  0.42139   0.5633     C
C       0.1241  0.03256   0.6662     C
C       0.1241  0.46744   0.1662     C
Co     0.14436   0.5574  0.53059    Co
Co     0.14436   0.9426  0.03059    Co
C       0.1447   0.1678   0.1557     C
C       0.1447   0.3322   0.6557     C
H       0.1537   0.6113   0.3599     H
H       0.1537   0.8887   0.8599     H
O       0.1626  0.03315  0.03921     O
O       0.1626  0.46685  0.53921     O
N       0.1655  0.50337   0.0601     N
N       0.1655  0.99663   0.5601     N
H       0.1734   0.0007   0.1921     H
H       0.1734   0.4993   0.6921     H
H       0.1834   0.1003   0.7971     H
H       0.1834   0.3997   0.2971     H
H       0.1876   0.2368   0.2318     H
H       0.1876   0.2632   0.7318     H
C       0.1933  0.12226   0.1162     C
C       0.1933  0.37774   0.6162     C
O        0.214  0.64692  0.56017     O
O        0.214  0.85308  0.06017     O
C       0.2187  0.58384    0.366     C
C       0.2187  0.91616    0.866     C
N       0.2189  0.06514  0.65156     N
N       0.2189  0.43486  0.15156     N
C       0.2219  0.20689   0.2044     C
C       0.2219  0.29311   0.7044     C
C       0.2435   0.0422   0.5843     C
C       0.2435   0.4578   0.0843     C
N       0.2442  0.55154  0.43341     N
N       0.2442  0.94846  0.93341     N
H       0.2558   0.0945   0.6794     H
H       0.2558   0.4055   0.1794     H
H       0.2639    0.601   0.2585     H
H       0.2639    0.899   0.7585     H
C       0.2851  0.57812   0.3049     C
C       0.2851  0.92188   0.8049     C
H       0.2965   0.0138   0.4409     H
H       0.2965   0.4862   0.9409     H
H       0.2979   0.7464   0.6194     H
H       0.2979   0.7536   0.1194     H
C       0.3092  0.62749   0.6067     C
C       0.3092  0.87251   0.1067     C
C       0.3213   0.1171   0.1259     C
C       0.3213   0.3829   0.6259     C
O       0.3264  0.57143  0.61576     O
O       0.3264  0.92857  0.11576     O
H       0.3286   0.1798   0.7356     H
H       0.3286   0.3202   0.2356     H
C       0.3376  0.51239   0.4403     C
C       0.3376  0.98761   0.9403     C
C       0.3402   0.0623   0.5423     C
C       0.3402   0.4377   0.0423     C
C       0.3497  0.20263   0.2136     C
C       0.3497  0.29737   0.7136     C
C       0.3516   0.0423   0.4672     C
C       0.3516   0.4577   0.9672     C
H       0.3547   0.0109   0.9865     H
H       0.3547   0.4891   0.4865     H
H       0.3562   0.0864   0.1002     H
H       0.3562   0.4136   0.6002     H
C       0.3723  0.73259   0.6491     C
C       0.3723  0.76741   0.1491     C
H       0.3828   0.5869   0.1636     H
H       0.3828   0.9131   0.6636     H
C       0.3835   0.5381   0.3131     C
C       0.3835   0.9619   0.8131     C
N       0.3882  0.00443   0.3087     N
N       0.3882  0.49557   0.8087     N
C       0.3962   0.1576   0.1738     C
C       0.3962   0.3424   0.6738     C
C       0.3999  0.67113   0.6492     C
C       0.3999  0.82887   0.1492     C
C        0.404  0.19324   0.7643     C
C        0.404  0.30676   0.2643     C
H         0.41   0.6185   0.0499     H
H         0.41   0.8815   0.5499     H
C        0.411  0.50414    0.383     C
C        0.411  0.99586    0.883     C
H       0.4217   0.1158   0.6298     H
H       0.4217   0.3842   0.1298     H
C       0.4279   0.1028   0.5787     C
C       0.4279   0.3972   0.0787     C
H        0.432   0.6863   0.1916     H
H        0.432   0.8137   0.6916     H
C        0.434  0.24642   0.2633     C
C        0.434  0.25358   0.7633     C
N       0.4397  0.50252  0.74256     N
N       0.4397  0.99748  0.24256     N
N       0.4411  0.56201  0.18218     N
N       0.4411  0.93799  0.68218     N
C       0.4445   0.0643   0.4312     C
C       0.4445   0.4357   0.9312     C
C       0.4528  0.72704   0.1921     C
C       0.4528  0.77296   0.6921     C
C       0.4583  0.53298   0.2505     C
C       0.4583  0.96702   0.7505     C
C        0.464  0.04376   0.3523     C
H        0.464   0.1116   0.8089     H
H        0.464   0.3884   0.3089     H
C        0.464  0.45624   0.8523     C
C       0.4741   0.6044   0.0261     C
C       0.4741   0.8956   0.5261     C
H       0.4764   0.0231   0.8911     H
H       0.4764   0.4769   0.3911     H
N       0.4799   0.6247   0.9525     N
N       0.4799   0.8753   0.4525     N
H       0.4816    0.154    0.179     H
H       0.4816    0.346    0.679     H
C       0.4859  0.15217   0.8081     C
C       0.4859  0.34783   0.3081     C
C       0.5141  0.65217   0.6919     C
C       0.5141  0.84783   0.1919     C
H       0.5184    0.654    0.321     H
H       0.5184    0.846    0.821     H
N       0.5201   0.1247   0.5475     N
N       0.5201   0.3753   0.0475     N
H       0.5236   0.5231   0.6089     H
H       0.5236   0.9769   0.1089     H
C       0.5259   0.1044   0.4739     C
C       0.5259   0.3956   0.9739     C
C        0.536  0.54376   0.1477     C
H        0.536   0.6116   0.6911     H
H        0.536   0.8884   0.1911     H
C        0.536  0.95624   0.6477     C
C       0.5417  0.03298   0.2495     C
C       0.5417  0.46702   0.7495     C
C       0.5472  0.22704   0.3079     C
C       0.5472  0.27296   0.8079     C
C       0.5555   0.5643   0.0688     C
C       0.5555   0.9357   0.5688     C
N       0.5589  0.06201  0.31782     N
N       0.5589  0.43799  0.81782     N
N       0.5603  0.00252  0.75744     N
N       0.5603  0.49748  0.25744     N
C        0.566  0.74642   0.2367     C
C        0.566  0.75358   0.7367     C
H        0.568   0.1863   0.3084     H
H        0.568   0.3137   0.8084     H
C       0.5721   0.6028   0.9213     C
C       0.5721   0.8972   0.4213     C
H       0.5783   0.6158   0.8702     H
H       0.5783   0.8842   0.3702     H
C        0.589  0.00414    0.117     C
C        0.589  0.49586    0.617     C
H         0.59   0.1185   0.4501     H
H         0.59   0.3815   0.9501     H
C        0.596  0.69324   0.7357     C
C        0.596  0.80676   0.2357     C
C       0.6001  0.17113   0.8508     C
C       0.6001  0.32887   0.3508     C
C       0.6038   0.6576   0.3262     C
C       0.6038   0.8424   0.8262     C
N       0.6118  0.50443   0.1913     N
N       0.6118  0.99557   0.6913     N
C       0.6165   0.0381   0.1869     C
C       0.6165   0.4619   0.6869     C
H       0.6172   0.0869   0.3364     H
H       0.6172   0.4131   0.8364     H
C       0.6277  0.23259   0.8509     C
C       0.6277  0.26741   0.3509     C
H       0.6438   0.5864   0.3998     H
H       0.6438   0.9136   0.8998     H
H       0.6453   0.5109   0.5135     H
H       0.6453   0.9891   0.0135     H
C       0.6484   0.5423   0.0328     C
C       0.6484   0.9577   0.5328     C
C       0.6503  0.70263   0.2864     C
C       0.6503  0.79737   0.7864     C
C       0.6598   0.5623   0.9577     C
C       0.6598   0.9377   0.4577     C
C       0.6624  0.01239   0.0597     C
C       0.6624  0.48761   0.5597     C
H       0.6714   0.6798   0.7644     H
H       0.6714   0.8202   0.2644     H
O       0.6736  0.07143  0.88424     O
O       0.6736  0.42857  0.38424     O
C       0.6787   0.6171   0.3741     C
C       0.6787   0.8829   0.8741     C
C       0.6908  0.12749   0.8933     C
C       0.6908  0.37251   0.3933     C
H       0.7021   0.2464   0.8806     H
H       0.7021   0.2536   0.3806     H
H       0.7035   0.5138   0.0591     H
H       0.7035   0.9862   0.5591     H
C       0.7149  0.07812   0.1951     C
C       0.7149  0.42188   0.6951     C
H       0.7361    0.101   0.2415     H
H       0.7361    0.399   0.7415     H
H       0.7442   0.5945   0.8206     H
H       0.7442   0.9055   0.3206     H
N       0.7558  0.05154  0.06659     N
N       0.7558  0.44846  0.56659     N
C       0.7565   0.5422   0.9157     C
C       0.7565   0.9578   0.4157     C
C       0.7781  0.70689   0.2956     C
C       0.7781  0.79311   0.7956     C
N       0.7811  0.56514  0.84844     N
N       0.7811  0.93486  0.34844     N
C       0.7813  0.08384    0.134     C
C       0.7813  0.41616    0.634     C
O        0.786  0.14692  0.93983     O
O        0.786  0.35308  0.43983     O
C       0.8067  0.62226   0.3838     C
C       0.8067  0.87774   0.8838     C
H       0.8124   0.7368   0.2682     H
H       0.8124   0.7632   0.7682     H
H       0.8166   0.6003   0.7029     H
H       0.8166   0.8997   0.2029     H
H       0.8266   0.5007   0.3079     H
H       0.8266   0.9993   0.8079     H
N       0.8345  0.00337   0.4399     N
N       0.8345  0.49663   0.9399     N
O       0.8374  0.53315  0.46079     O
O       0.8374  0.96685  0.96079     O
H       0.8463   0.1113   0.1401     H
H       0.8463   0.3887   0.6401     H
C       0.8553   0.6678   0.3443     C
C       0.8553   0.8322   0.8443     C
Co     0.85564   0.0574  0.96941    Co
Co     0.85564   0.4426  0.46941    Co
C       0.8759  0.53256   0.8338     C
C       0.8759  0.96744   0.3338     C
C       0.8877  0.57861   0.4367     C
C       0.8877  0.92139   0.9367     C
C       0.8887  0.57878   0.7015     C
C       0.8887  0.92122   0.2015     C
C       0.9003  0.01942   0.8061     C
C       0.9003  0.48058   0.3061     C
N       0.9132  0.01086   0.3873     N
N       0.9132  0.48914   0.8873     N
H       0.9135   0.6097   0.5955     H
H       0.9135   0.8903   0.0955     H
H       0.9186   0.5156   0.1999     H
H       0.9186   0.9844   0.6999     H
C       0.9376  0.54066   0.7642     C
C       0.9376  0.95934   0.2642     C
H       0.9406   0.6722   0.3505     H
H       0.9406   0.8278   0.8505     H
N       0.9471  0.05536  0.86778     N
N       0.9471  0.44464  0.36778     N
C       0.9481  0.58442   0.6374     C
C       0.9481  0.91558   0.1374     C
C       0.9543  0.01049   0.7406     C
C       0.9543  0.48951   0.2406     C
O      0.99928   0.0909  0.04754     O
O      0.99928   0.4091  0.54754     O
