data_I
_chemical_name_common  '/home/zhangsd/repos/MofS-CGCNN/ML/data/SSD/clean_cifs/YUDFIO_clean'
_cell_length_a 25.17900
_cell_length_b 14.74700
_cell_length_c 26.05300
_cell_angle_alpha 90.00000
_cell_angle_beta  94.96400
_cell_angle_gamma 90.00000
_space_group_name_H-M_alt      'P 1'


loop_
_space_group_symop_operation_xyz
  'x, y, z' 

loop_
_atom_site_label
_atom_site_fract_x
_atom_site_fract_y
_atom_site_fract_z
_atom_site_type_symbol
C       0.0174   0.2502   0.6869     C
C       0.0174   0.7498   0.1869     C
C       0.0203    0.304   0.7304     C
C       0.0203    0.696   0.2304     C
N       0.0256    0.183   0.8219     N
N       0.0256    0.817   0.3219     N
O       0.0361   0.1562   0.8657     O
O       0.0361   0.8438   0.3657     O
H       0.0486    0.219   0.6206     H
H       0.0486    0.781   0.1206     H
O       0.0491   0.1577  0.78565     O
O       0.0491   0.8423  0.28565     O
C       0.0525   0.2566   0.6493     C
C       0.0525   0.7434   0.1493     C
O       0.0569   0.3989   0.8198     O
O       0.0569   0.6011   0.3198     O
C       0.0623   0.3662   0.7345     C
C       0.0623   0.6338   0.2345     C
N       0.0718   0.4251   0.7791     N
N       0.0718   0.5749   0.2791     N
O       0.0924   0.0617   0.6636     O
O       0.0924   0.9383   0.1636     O
C       0.0934   0.3188   0.6545     C
C       0.0934   0.6812   0.1545     C
O       0.0969   0.4919   0.7751     O
O       0.0969   0.5081   0.2751     O
C       0.0989   0.3729    0.697     C
C       0.0989   0.6271    0.197     C
O       0.1206   0.2815  0.57329     O
O       0.1206   0.7185  0.07329     O
O       0.1234   0.0037  0.94969     O
O       0.1234   0.9963  0.44969     O
H       0.1269   0.4142   0.7012     H
H       0.1269   0.5858   0.2012     H
O       0.1273   0.0279   0.2225     O
O       0.1273   0.9721   0.7225     O
N       0.1304   0.0341   0.6913     N
N       0.1304   0.9659   0.1913     N
C       0.1331   0.3256   0.6143     C
C       0.1331   0.6744   0.1143     C
H       0.1418    0.117   0.8818     H
H       0.1418    0.883   0.3818     H
O       0.1491   0.2528   0.8339     O
O       0.1491   0.3309  0.24633     O
O       0.1491   0.6691  0.74633     O
O       0.1491   0.7472   0.3339     O
Gd     0.14975  0.24571  0.49292    Gd
Gd     0.14975  0.75429  0.99292    Gd
O       0.1576   0.2213   0.7547     O
O       0.1576   0.7787   0.2547     O
C       0.1582   0.0413   0.4301     C
C       0.1582   0.9587   0.9301     C
N       0.1602   0.2011   0.8001     N
N       0.1602   0.7989   0.3001     N
C       0.1612   0.0791   0.8619     C
C       0.1612   0.9209   0.3619     C
H       0.1661    0.102   0.6109     H
H       0.1661    0.898   0.1109     H
O       0.1733   0.3715  0.62401     O
O       0.1733   0.6285  0.12401     O
C       0.1756   0.1078    0.815     C
C       0.1756   0.8922    0.315     C
C       0.1759   0.0075   0.3795     C
C       0.1759   0.9925   0.8795     C
O       0.1785    0.114  0.44669     O
O       0.1785    0.886  0.94669     O
C       0.1821   0.0764   0.6871     C
C       0.1821   0.9236   0.1871     C
H       0.1882   0.3225   0.3319     H
H       0.1882   0.6775   0.8319     H
C        0.192   0.1071   0.6384     C
C        0.192   0.8929   0.1384     C
N       0.1931    0.355   0.2362     N
N       0.1931    0.645   0.7362     N
O       0.1993   0.2962  0.42488     O
O       0.1993   0.7038  0.92488     O
C       0.2048   0.0556   0.7827     C
C       0.2048   0.9444   0.2827     C
C       0.2052    0.061   0.3497     C
C       0.2052    0.939   0.8497     C
O       0.2064   0.3584   0.1922     O
O       0.2064   0.6416   0.6922     O
O       0.2144   0.4392   0.7504     O
O       0.2144   0.5608   0.2504     O
H       0.2159   0.1183   0.3613     H
H       0.2159   0.8817   0.8613     H
O      0.21751   0.1764  0.54327     O
O      0.21751   0.8236  0.04327     O
C       0.2184    0.085   0.7303     C
C       0.2184    0.915   0.2303     C
C       0.2189   0.0306   0.3024     C
C       0.2189   0.9694   0.8024     C
C       0.2216   0.3466   0.3273     C
C       0.2216   0.6534   0.8273     C
C       0.2335   0.3743   0.2787     C
C       0.2335   0.6257   0.7787     C
O        0.235   0.1704   0.2704     O
O        0.235   0.8296   0.7704     O
C       0.2412   0.1452   0.6315     C
C       0.2412   0.8548   0.1315     C
C       0.2456   0.3228   0.4216     C
C       0.2456   0.6772   0.9216     C
N       0.2486   0.0913   0.2719     N
N       0.2486   0.9087   0.7719     N
N       0.2514   0.4087   0.7281     N
N       0.2514   0.5913   0.2281     N
C       0.2544   0.1772   0.5784     C
C       0.2544   0.8228   0.0784     C
C       0.2588   0.3548   0.3685     C
C       0.2588   0.6452   0.8685     C
O        0.265   0.3296   0.7296     O
O        0.265   0.6704   0.2296     O
C       0.2665   0.1257   0.7213     C
C       0.2665   0.8743   0.2213     C
C       0.2784   0.1534   0.6727     C
C       0.2784   0.8466   0.1727     C
C       0.2811   0.4694   0.6976     C
C       0.2811   0.5306   0.1976     C
C       0.2816    0.415   0.2697     C
C       0.2816    0.585   0.7697     C
O      0.28249   0.3236  0.45673     O
O      0.28249   0.6764  0.95673     O
H       0.2841   0.3817   0.6387     H
H       0.2841   0.6183   0.1387     H
O       0.2856   0.0608   0.2496     O
O       0.2856   0.9392   0.7496     O
O       0.2936   0.1416   0.8078     O
O       0.2936   0.8584   0.3078     O
C       0.2948    0.439   0.6503     C
C       0.2948    0.561   0.1503     C
C       0.2952   0.4444   0.2173     C
C       0.2952   0.5556   0.7173     C
O       0.3007   0.2038  0.57512     O
O       0.3007   0.7962  0.07512     O
N       0.3069    0.145   0.7638     N
N       0.3069    0.855   0.2638     N
C        0.308   0.3929   0.3616     C
C        0.308   0.6071   0.8616     C
H       0.3118   0.1775   0.6681     H
H       0.3118   0.8225   0.1681     H
C       0.3179   0.4236   0.3129     C
C       0.3179   0.5764   0.8129     C
O       0.3215    0.386  0.55331     O
O       0.3215    0.614  0.05331     O
C       0.3241   0.4925   0.6205     C
C       0.3241   0.5075   0.1205     C
C       0.3244   0.3922    0.185     C
C       0.3244   0.6078    0.685     C
O       0.3267   0.1285  0.37599     O
O       0.3267   0.8715  0.87599     O
H       0.3339    0.398   0.3891     H
H       0.3339    0.602   0.8891     H
C       0.3388   0.4209   0.1381     C
C       0.3388   0.5791   0.6381     C
N       0.3398   0.2989   0.1999     N
N       0.3398   0.7011   0.6999     N
C       0.3418   0.4587   0.5699     C
C       0.3418   0.5413   0.0699     C
O       0.3424   0.2787   0.2453     O
O       0.3424   0.7213   0.7453     O
Gd     0.35025  0.25429  0.50708    Gd
Gd     0.35025  0.74571  0.00708    Gd
O       0.3509   0.1691  0.75367     O
O       0.3509   0.2472   0.1661     O
O       0.3509   0.7528   0.6661     O
O       0.3509   0.8309  0.25367     O
H       0.3582    0.383   0.1182     H
H       0.3582    0.617   0.6182     H
C       0.3669   0.1744   0.3857     C
C       0.3669   0.8256   0.8857     C
N       0.3696   0.4659   0.3087     N
N       0.3696   0.5341   0.8087     N
O       0.3727   0.4721   0.7775     O
O       0.3727   0.5279   0.2775     O
H       0.3731   0.0858   0.2988     H
H       0.3731   0.9142   0.7988     H
O       0.3766   0.4963  0.05031     O
O       0.3766   0.5037  0.55031     O
O       0.3794   0.2185  0.42671     O
O       0.3794   0.7815  0.92671     O
C       0.4011   0.1271    0.303     C
C       0.4011   0.8729    0.803     C
O       0.4031   0.0081   0.2249     O
O       0.4031   0.9919   0.7249     O
C       0.4066   0.1812   0.3455     C
C       0.4066   0.8188   0.8455     C
O       0.4076   0.4383   0.3364     O
O       0.4076   0.5617   0.8364     O
N       0.4282   0.0749   0.2209     N
N       0.4282   0.9251   0.7209     N
C       0.4377   0.1338   0.2655     C
C       0.4377   0.8662   0.7655     C
O       0.4431   0.1011   0.1802     O
O       0.4431   0.8989   0.6802     O
C       0.4475   0.2434   0.3507     C
C       0.4475   0.7566   0.8507     C
O       0.4509   0.3423  0.21435     O
O       0.4509   0.6577  0.71435     O
H       0.4514    0.281   0.3794     H
H       0.4514    0.719   0.8794     H
O       0.4639   0.3438   0.1343     O
O       0.4639   0.6562   0.6343     O
N       0.4744    0.317   0.1781     N
N       0.4744    0.683   0.6781     N
C       0.4797    0.196   0.2696     C
C       0.4797    0.804   0.7696     C
C       0.4826   0.2498   0.3131     C
C       0.4826   0.7502   0.8131     C
C       0.5174   0.2498   0.1869     C
C       0.5174   0.7502   0.6869     C
C       0.5203    0.196   0.2304     C
C       0.5203    0.804   0.7304     C
N       0.5256    0.317   0.3219     N
N       0.5256    0.683   0.8219     N
O       0.5361   0.3438   0.3657     O
O       0.5361   0.6562   0.8657     O
H       0.5486    0.281   0.1206     H
H       0.5486    0.719   0.6206     H
O       0.5491   0.3423  0.28565     O
O       0.5491   0.6577  0.78565     O
C       0.5525   0.2434   0.1493     C
C       0.5525   0.7566   0.6493     C
O       0.5569   0.1011   0.3198     O
O       0.5569   0.8989   0.8198     O
C       0.5623   0.1338   0.2345     C
C       0.5623   0.8662   0.7345     C
N       0.5718   0.0749   0.2791     N
N       0.5718   0.9251   0.7791     N
O       0.5924   0.4383   0.1636     O
O       0.5924   0.5617   0.6636     O
C       0.5934   0.1812   0.1545     C
C       0.5934   0.8188   0.6545     C
O       0.5969   0.0081   0.2751     O
O       0.5969   0.9919   0.7751     O
C       0.5989   0.1271    0.197     C
C       0.5989   0.8729    0.697     C
O       0.6206   0.2185  0.07329     O
O       0.6206   0.7815  0.57329     O
O       0.6234   0.4963  0.44969     O
O       0.6234   0.5037  0.94969     O
H       0.6269   0.0858   0.2012     H
H       0.6269   0.9142   0.7012     H
O       0.6273   0.4721   0.7225     O
O       0.6273   0.5279   0.2225     O
N       0.6304   0.4659   0.1913     N
N       0.6304   0.5341   0.6913     N
C       0.6331   0.1744   0.1143     C
C       0.6331   0.8256   0.6143     C
H       0.6418    0.383   0.3818     H
H       0.6418    0.617   0.8818     H
O       0.6491   0.1691  0.74633     O
O       0.6491   0.2472   0.3339     O
O       0.6491   0.7528   0.8339     O
O       0.6491   0.8309  0.24633     O
Gd     0.64975  0.25429  0.99292    Gd
Gd     0.64975  0.74571  0.49292    Gd
O       0.6576   0.2787   0.2547     O
O       0.6576   0.7213   0.7547     O
C       0.6582   0.4587   0.9301     C
C       0.6582   0.5413   0.4301     C
N       0.6602   0.2989   0.3001     N
N       0.6602   0.7011   0.8001     N
C       0.6612   0.4209   0.3619     C
C       0.6612   0.5791   0.8619     C
H       0.6661    0.398   0.1109     H
H       0.6661    0.602   0.6109     H
O       0.6733   0.1285  0.12401     O
O       0.6733   0.8715  0.62401     O
C       0.6756   0.3922    0.315     C
C       0.6756   0.6078    0.815     C
C       0.6759   0.4925   0.8795     C
C       0.6759   0.5075   0.3795     C
O       0.6785    0.386  0.94669     O
O       0.6785    0.614  0.44669     O
C       0.6821   0.4236   0.1871     C
C       0.6821   0.5764   0.6871     C
H       0.6882   0.1775   0.8319     H
H       0.6882   0.8225   0.3319     H
C        0.692   0.3929   0.1384     C
C        0.692   0.6071   0.6384     C
N       0.6931    0.145   0.7362     N
N       0.6931    0.855   0.2362     N
O       0.6993   0.2038  0.92488     O
O       0.6993   0.7962  0.42488     O
C       0.7048   0.4444   0.2827     C
C       0.7048   0.5556   0.7827     C
C       0.7052    0.439   0.8497     C
C       0.7052    0.561   0.3497     C
O       0.7064   0.1416   0.6922     O
O       0.7064   0.8584   0.1922     O
O       0.7144   0.0608   0.2504     O
O       0.7144   0.9392   0.7504     O
H       0.7159   0.3817   0.8613     H
H       0.7159   0.6183   0.3613     H
O      0.71751   0.3236  0.04327     O
O      0.71751   0.6764  0.54327     O
C       0.7184    0.415   0.2303     C
C       0.7184    0.585   0.7303     C
C       0.7189   0.4694   0.8024     C
C       0.7189   0.5306   0.3024     C
C       0.7216   0.1534   0.8273     C
C       0.7216   0.8466   0.3273     C
C       0.7335   0.1257   0.7787     C
C       0.7335   0.8743   0.2787     C
O        0.735   0.3296   0.7704     O
O        0.735   0.6704   0.2704     O
C       0.7412   0.3548   0.1315     C
C       0.7412   0.6452   0.6315     C
C       0.7456   0.1772   0.9216     C
C       0.7456   0.8228   0.4216     C
N       0.7486   0.4087   0.7719     N
N       0.7486   0.5913   0.2719     N
N       0.7514   0.0913   0.2281     N
N       0.7514   0.9087   0.7281     N
C       0.7544   0.3228   0.0784     C
C       0.7544   0.6772   0.5784     C
C       0.7588   0.1452   0.8685     C
C       0.7588   0.8548   0.3685     C
O        0.765   0.1704   0.2296     O
O        0.765   0.8296   0.7296     O
C       0.7665   0.3743   0.2213     C
C       0.7665   0.6257   0.7213     C
C       0.7784   0.3466   0.1727     C
C       0.7784   0.6534   0.6727     C
C       0.7811   0.0306   0.1976     C
C       0.7811   0.9694   0.6976     C
C       0.7816    0.085   0.7697     C
C       0.7816    0.915   0.2697     C
O      0.78249   0.1764  0.95673     O
O      0.78249   0.8236  0.45673     O
H       0.7841   0.1183   0.1387     H
H       0.7841   0.8817   0.6387     H
O       0.7856   0.4392   0.7496     O
O       0.7856   0.5608   0.2496     O
O       0.7936   0.3584   0.3078     O
O       0.7936   0.6416   0.8078     O
C       0.7948    0.061   0.1503     C
C       0.7948    0.939   0.6503     C
C       0.7952   0.0556   0.7173     C
C       0.7952   0.9444   0.2173     C
O       0.8007   0.2962  0.07512     O
O       0.8007   0.7038  0.57512     O
N       0.8069    0.355   0.2638     N
N       0.8069    0.645   0.7638     N
C        0.808   0.1071   0.8616     C
C        0.808   0.8929   0.3616     C
H       0.8118   0.3225   0.1681     H
H       0.8118   0.6775   0.6681     H
C       0.8179   0.0764   0.8129     C
C       0.8179   0.9236   0.3129     C
O       0.8215    0.114  0.05331     O
O       0.8215    0.886  0.55331     O
C       0.8241   0.0075   0.1205     C
C       0.8241   0.9925   0.6205     C
C       0.8244   0.1078    0.685     C
C       0.8244   0.8922    0.185     C
O       0.8267   0.3715  0.87599     O
O       0.8267   0.6285  0.37599     O
H       0.8339    0.102   0.8891     H
H       0.8339    0.898   0.3891     H
C       0.8388   0.0791   0.6381     C
C       0.8388   0.9209   0.1381     C
N       0.8398   0.2011   0.6999     N
N       0.8398   0.7989   0.1999     N
C       0.8418   0.0413   0.0699     C
C       0.8418   0.9587   0.5699     C
O       0.8424   0.2213   0.7453     O
O       0.8424   0.7787   0.2453     O
Gd     0.85025  0.24571  0.00708    Gd
Gd     0.85025  0.75429  0.50708    Gd
O       0.8509   0.2528   0.6661     O
O       0.8509   0.3309  0.25367     O
O       0.8509   0.6691  0.75367     O
O       0.8509   0.7472   0.1661     O
H       0.8582    0.117   0.6182     H
H       0.8582    0.883   0.1182     H
C       0.8669   0.3256   0.8857     C
C       0.8669   0.6744   0.3857     C
N       0.8696   0.0341   0.8087     N
N       0.8696   0.9659   0.3087     N
O       0.8727   0.0279   0.2775     O
O       0.8727   0.9721   0.7775     O
H       0.8731   0.4142   0.7988     H
H       0.8731   0.5858   0.2988     H
O       0.8766   0.0037  0.55031     O
O       0.8766   0.9963  0.05031     O
O       0.8794   0.2815  0.92671     O
O       0.8794   0.7185  0.42671     O
C       0.9011   0.3729    0.803     C
C       0.9011   0.6271    0.303     C
O       0.9031   0.4919   0.7249     O
O       0.9031   0.5081   0.2249     O
C       0.9066   0.3188   0.8455     C
C       0.9066   0.6812   0.3455     C
O       0.9076   0.0617   0.8364     O
O       0.9076   0.9383   0.3364     O
N       0.9282   0.4251   0.7209     N
N       0.9282   0.5749   0.2209     N
C       0.9377   0.3662   0.7655     C
C       0.9377   0.6338   0.2655     C
O       0.9431   0.3989   0.6802     O
O       0.9431   0.6011   0.1802     O
C       0.9475   0.2566   0.8507     C
C       0.9475   0.7434   0.3507     C
O       0.9509   0.1577  0.71435     O
O       0.9509   0.8423  0.21435     O
H       0.9514    0.219   0.8794     H
H       0.9514    0.781   0.3794     H
O       0.9639   0.1562   0.6343     O
O       0.9639   0.8438   0.1343     O
N       0.9744    0.183   0.6781     N
N       0.9744    0.817   0.1781     N
C       0.9797    0.304   0.7696     C
C       0.9797    0.696   0.2696     C
C       0.9826   0.2502   0.8131     C
C       0.9826   0.7498   0.3131     C
