data_I
_chemical_name_common  '/home/zhangsd/repos/MofS-CGCNN/ML/data/SSD/clean_cifs/YUNXAI_clean'
_cell_length_a 24.26000
_cell_length_b 24.41500
_cell_length_c 24.53100
_cell_angle_alpha 83.56600
_cell_angle_beta  62.29200
_cell_angle_gamma 61.71700
_space_group_name_H-M_alt      'P 1'


loop_
_space_group_symop_operation_xyz
  'x, y, z' 

loop_
_atom_site_label
_atom_site_fract_x
_atom_site_fract_y
_atom_site_fract_z
_atom_site_type_symbol
H       0.0046   0.4613   0.1552     H
H       0.0055   0.1684   0.1133     H
C       0.0081   0.7927    0.867     C
C       0.0089   0.0859   0.6875     C
C       0.0109   0.5117   0.9191     C
H       0.0123   0.8174   0.5268     H
C       0.0125   0.7209   0.5876     C
C        0.013   0.6687   0.6763     C
C       0.0196   0.1045   0.7308     C
N       0.0203   0.2863   0.1357     N
C       0.0205   0.4814   0.0163     C
C       0.0271   0.4545    0.111     C
H       0.0322   0.8327   0.1913     H
H       0.0336   0.6321   0.6931     H
C       0.0374   0.2321   0.1095     C
C       0.0384   0.8465   0.2218     C
C       0.0392   0.7801   0.4981     C
C       0.0398   0.6678   0.6142     C
N       0.0429   0.2784   0.2855     N
C       0.0439    0.681    0.813     C
C       0.0455   0.7238   0.5204     C
H       0.0459   0.4563   0.2446     H
H       0.0476   0.0541   0.6537     H
C       0.0478   0.2273   0.3718     C
H       0.0508    0.068   0.8235     H
H        0.056   0.6422   0.7945     H
H       0.0599   0.4827   0.8956     H
C       0.0601   0.8855   0.3067     C
H       0.0605   0.8653   0.8557     H
O       0.0636   0.2761   0.2247     O
H       0.0642   0.5412    0.241     H
O       0.0648    0.309   0.1138     O
H       0.0652   0.8229    0.422     H
H        0.068    0.899    0.336     H
H       0.0704    0.191   0.3878     H
C       0.0707   0.7836    0.436     C
C       0.0732    0.762   0.8152     C
C       0.0756   0.2274   0.3089     C
H       0.0784   0.6299   0.5878     H
H       0.0819   0.2101   0.0736     H
C       0.0858   0.6705   0.4755     C
H       0.0879   0.6081    0.274     H
C       0.0888   0.0715   0.7298     C
C       0.0898    0.437   0.9858     C
H       0.0902   0.1571   0.1964     H
C       0.0916   0.7046    0.788     C
H       0.0918   0.6308   0.4884     H
C       0.0923   0.4494   0.2325     C
C        0.093   0.0552   0.7849     C
N       0.0945   0.4126   0.0801     N
C       0.1029   0.4999   0.2306     C
C       0.1029   0.8464   0.8174     C
C       0.1047   0.8178   0.2187     C
N         0.11   0.7309   0.3943     N
H       0.1134   0.4294   0.9416     H
H       0.1136   0.6883    0.268     H
N       0.1142   0.8396   0.2601     N
H       0.1154   0.0667   0.2444     H
C       0.1167   0.6752   0.4132     C
H       0.1177   0.1917   0.2816     H
C       0.1211    0.791   0.7876     C
C       0.1269   0.4024    0.018     C
O        0.131   0.3805   0.1106     O
O       0.1331   0.3427   0.2216     O
H       0.1331   0.9121   0.8134     H
C       0.1346   0.6014   0.2465     C
H       0.1364   0.6818   0.7526     H
C       0.1379   0.1248    0.182     C
O       0.1396   0.7359   0.3341     O
H       0.1429   0.6389   0.3833     H
H       0.1431   0.2571   0.9873     H
H       0.1432    0.783   0.1878     H
N       0.1453   0.3906   0.2179     N
C       0.1457   0.8746    0.792     C
C       0.1498   0.6489   0.2431     C
H       0.1505   0.0663   0.6372     H
H        0.151   0.9982    0.303     H
C       0.1518   0.0548    0.675     C
C       0.1531   0.0706   0.2101     C
C       0.1585   0.0204    0.783     C
Yb     0.15864  0.27999  0.13753    Yb
H       0.1613   0.0085   0.8202     H
H       0.1663   0.1724   0.9312     H
C       0.1708   0.4909   0.2131     C
H       0.1753   0.3714   0.9958     H
H       0.1761   0.8167   0.4335     H
H       0.1765    0.904   0.3423     H
O       0.1773   0.1826   0.1072     O
O        0.179   0.8163   0.2539     O
C       0.1834   0.7654   0.7312     C
H       0.1858   0.0595   0.9435     H
C       0.1864   0.5428   0.2102     C
H       0.1868   0.2608   0.2875     H
C       0.1869   0.2194   0.9747     C
N       0.1913   0.1311   0.1343     N
C       0.1926    0.961   0.2778     C
H       0.1975   0.7275   0.7094     H
C        0.201   0.1692   0.9412     C
H        0.204   0.8571   0.8917     H
N       0.2046    0.849   0.7376     N
H       0.2064   0.8585   0.4875     H
H       0.2072   0.8407   0.9853     H
C       0.2078   0.9053    0.301     C
C       0.2116   0.3797   0.2021     C
O       0.2135   0.2043   0.1912     O
H       0.2137   0.9651   0.8966     H
N       0.2154    0.641    0.205     N
C       0.2162   0.0214   0.6753     C
N       0.2171   0.0035   0.7295     N
O       0.2193   0.2629   0.0251     O
C       0.2209   0.0229   0.1895     C
C       0.2216   0.7934   0.4315     C
C       0.2245   0.7945   0.7072     C
H       0.2247   0.8794   0.5526     H
C       0.2248    0.429   0.1991     C
O       0.2312   0.6867   0.2008     O
C       0.2314   0.0356   0.9093     C
N        0.235   0.2153   0.9899     N
C       0.2363   0.2375   0.2602     C
H       0.2375   0.8441   0.0555     H
C       0.2378   0.9638   0.2172     C
C       0.2396   0.8184   0.4631     C
O        0.243   0.8782    0.713     O
O       0.2451   0.7128   0.3699     O
C       0.2454   0.8243   0.8925     C
C        0.247   0.8144   0.9481     C
C       0.2476   0.9796   0.8813     C
H        0.248   0.8273    0.145     H
H        0.249   0.3378    0.193     H
H       0.2497   0.3802   0.0645     H
H       0.2502    0.917   0.6139     H
C       0.2524    0.537   0.1711     C
Yb     0.25688  0.71933   0.2696    Yb
C       0.2582   0.0858   0.1132     C
H       0.2592   0.0111   0.6381     H
N       0.2602   0.2035   0.2063     N
C       0.2637   0.1146   0.9214     C
C       0.2666   0.5853   0.1691     C
N       0.2666   0.7365   0.3973     N
H       0.2669   0.2623   0.3116     H
N        0.267   0.8516    0.266     N
H       0.2672   0.7763    0.669     H
O       0.2674   0.2763   0.1055     O
C       0.2699   0.8038   0.0589     C
H       0.2708   0.5924   0.3907     H
H       0.2715   0.4208   0.1874     H
C       0.2723   0.8605   0.5453     C
C       0.2751   0.0318   0.1396     C
O       0.2755   0.6173   0.2864     O
C       0.2762   0.7938   0.1117     C
C       0.2792   0.0563   0.8887     C
O       0.2795   0.7977   0.2891     O
O       0.2807   0.9687   0.7287     O
C       0.2838   0.2377   0.2744     C
C       0.2873    0.883   0.5816     C
H        0.289   0.4985   0.1448     H
C       0.2942   0.3458    0.038     C
H        0.295   0.0912   0.0792     H
C       0.2969   0.1646   0.9708     C
C       0.2985   0.9076   0.1834     C
O       0.2995   0.7996    0.786     O
N       0.3015   0.7882   0.8394     N
C       0.3054   0.7863   0.4603     C
C       0.3063   0.7663     0.95     C
C       0.3096    0.756   0.0101     C
N        0.312   0.2857   0.0525     N
N        0.312   0.9463   0.8323     N
C       0.3121   0.8532   0.2074     C
H       0.3129   0.5795   0.1421     H
C       0.3133   0.5625   0.3572     C
C       0.3141   0.1122   0.9354     C
N       0.3217   0.7377   0.1175     N
H       0.3233   0.0003   0.1244     H
C       0.3242   0.8107   0.4977     C
N       0.3251   0.5702   0.2986     N
O       0.3284    0.892   0.8077     O
H       0.3291   0.3965   0.9746     H
C       0.3295   0.1673   0.1692     C
O       0.3301   0.7289   0.1682     O
H       0.3307   0.1633    0.981     H
H       0.3312   0.9077   0.1424     H
C       0.3319   0.7045    0.391     C
C       0.3414   0.3552   0.9852     C
C       0.3445   0.0223   0.8376     C
H        0.345    0.142    0.133     H
Yb     0.34818  0.85676  0.71125    Yb
H       0.3496   0.2336   0.3419     H
H       0.3526   0.5078   0.4109     H
C       0.3527   0.7293    0.422     C
H       0.3537   0.8156    0.183     H
N       0.3537   0.8578   0.5726     N
C       0.3563    0.698   0.0176     C
H       0.3565   0.6895    0.723     H
C       0.3566   0.2032   0.2364     C
H       0.3593   0.0759   0.9213     H
C       0.3593     0.74   0.8411     C
C       0.3597   0.9674   0.8092     C
C       0.3607   0.6898   0.0715     C
C       0.3614   0.5124   0.3691     C
C       0.3624   0.7283   0.8947     C
H       0.3642   0.6648   0.3656     H
O       0.3677   0.8804   0.6093     O
H       0.3745   0.0047   0.6721     H
C       0.3759   0.2361    0.015     C
O       0.3773   0.6605   0.2521     O
C       0.3779   0.1667   0.1832     C
H       0.3787   0.0365    0.822     H
H       0.3853   0.6639   0.9849     H
C       0.3859   0.5293   0.2506     C
O       0.3869   0.7635   0.6505     O
H       0.3878   0.1949    0.026     H
H       0.3917   0.6497   0.0766     H
C       0.3933   0.7859   0.4896     C
C       0.3943   0.2247   0.3074     C
H       0.3943    0.536   0.2092     H
H       0.3984   0.7138   0.8036     H
H       0.3997   0.7069   0.4167     H
H       0.4017   0.3932   0.4074     H
H       0.4034   0.6938   0.8947     H
H        0.404   0.9446   0.7732     H
H       0.4053   0.0589   0.5892     H
C       0.4062   0.6731   0.6976     C
C       0.4062   0.8114   0.5277     C
C       0.4089   0.2068   0.2493     C
C       0.4089   0.3046   0.9454     C
C       0.4141   0.9823   0.6331     C
H       0.4165    0.739   0.2534     H
C       0.4226   0.2456   0.9621     C
C       0.4234   0.4678   0.3214     C
H       0.4271   0.1411   0.1563     H
H       0.4306    0.812   0.8213     H
H        0.431    0.244   0.3573     H
H       0.4315   0.7516    0.458     H
N       0.4316   0.7059   0.6539     N
N       0.4319   0.6664   0.2071     N
C       0.4324   0.0145    0.584     C
H       0.4335   0.5943   0.7363     H
O        0.434     0.89    0.675     O
C       0.4352   0.4786    0.261     C
H       0.4369   0.1057   0.5167     H
C       0.4428   0.2301   0.3168     C
H       0.4439   0.3953   0.9321     H
C       0.4443   0.7128   0.2146     C
O       0.4475   0.7771   0.7201     O
C       0.4508    0.376   0.3789     C
N       0.4511   0.9205   0.6267     N
C       0.4517   0.6168   0.7051     C
H       0.4533    0.795   0.5211     H
C        0.462   0.3162   0.8902     C
H       0.4637   0.5938   0.1493     H
H       0.4661   0.2104   0.9357     H
H       0.4707   0.1553   0.4327     H
C       0.4725   0.6267   0.1534     C
C       0.4736   0.3662    0.895     C
C       0.4743   0.4091   0.3327     C
C       0.4754   0.0814    0.478     C
C        0.476   0.1908   0.2017     C
C        0.476   0.8029   0.7878     C
H       0.4782   0.4503   0.2268     H
H        0.481   0.2951   0.4147     H
H       0.4894   0.1754   0.1612     H
C       0.4906   0.9824   0.5264     C
N       0.4932   0.7839   0.7304     N
H       0.4956   0.2447    0.828     H
C       0.4957   0.1108   0.4281     C
C       0.4965   0.7222   0.1665     C
C       0.4981   0.3184   0.3839     C
C       0.5019   0.6816   0.6161     C
C       0.5035   0.2778   0.8335     C
C       0.5043   0.8892   0.5719     C
H       0.5044   0.7553    0.172     H
N       0.5068   0.2161   0.2696     N
C       0.5094   0.0176   0.4736     C
H       0.5106   0.8246   0.8388     H
H        0.519   0.7049   0.5853     H
H       0.5218   0.5497   0.7732     H
C        0.524   0.1971   0.2122     C
C        0.524   0.8092   0.7983     C
C       0.5246   0.9186    0.522     C
C       0.5257   0.5909   0.6673     C
C       0.5264   0.6338    0.105     C
C       0.5275   0.3733   0.8466     C
H       0.5293   0.8447   0.5673     H
H       0.5339   0.7896   0.0643     H
H       0.5363   0.4062   0.8507     H
C        0.538   0.6838   0.1098     C
H       0.5467    0.205   0.4789     H
C       0.5483   0.3832   0.2949     C
N       0.5489   0.0795   0.3733     N
C       0.5492    0.624   0.6211     C
O       0.5525   0.2229   0.2799     O
C       0.5557   0.2872   0.7854     C
H       0.5561   0.6047   0.0679     H
C       0.5572   0.7699   0.6832     C
H       0.5631   0.8943   0.4833     H
C       0.5648   0.5214    0.739     C
O        0.566     0.11    0.325     O
H       0.5665   0.4057   0.2637     H
C       0.5676   0.9855    0.416     C
N       0.5681   0.3336   0.7929     N
N       0.5684   0.2941   0.3461     N
H       0.5685   0.2484    0.542     H
H        0.569    0.756   0.6427     H
H       0.5694    0.188   0.1787     H
H       0.5729   0.8589   0.8437     H
C       0.5766   0.5322   0.6786     C
C       0.5774   0.7544   0.0379     C
H       0.5835    0.261   0.7466     H
C       0.5859   0.0177   0.3669     C
C       0.5911   0.6954   0.0546     C
C       0.5911   0.7932   0.7507     C
C       0.5938   0.1886   0.4723     C
C       0.5938   0.3269   0.3024     C
H       0.5947   0.9411   0.4108     H
H        0.596   0.0554   0.2268     H
H       0.5966   0.3062   0.1053     H
H       0.5983   0.6068   0.5926     H
H       0.6003   0.2931   0.5833     H
H       0.6016   0.2862   0.1964     H
H       0.6057    0.464   0.7908     H
C       0.6057   0.7753   0.6926     C
C       0.6067   0.2141   0.5104     C
H       0.6083   0.3503   0.9234     H
H       0.6122   0.8051    0.974     H
O       0.6131   0.2365   0.3495     O
C       0.6141   0.4707   0.7494     C
H       0.6147   0.3361   0.0151     H
H       0.6213   0.9635    0.178     H
C       0.6221   0.8333   0.8168     C
O       0.6227   0.3395   0.7479     O
C       0.6241   0.7639    0.985     C
H       0.6255   0.9953   0.3279     H
O       0.6323   0.1196   0.3907     O
H       0.6358   0.3352   0.6344     H
C       0.6376   0.2717   0.1053     C
C       0.6386   0.4876   0.6309     C
C       0.6393   0.3102   0.9285     C
C       0.6403   0.0326   0.1908     C
C       0.6407     0.26   0.1589     C
H       0.6407   0.9241   0.0787     H
C       0.6434   0.7968   0.7636     C
H       0.6435   0.3105    0.277     H
C       0.6437    0.302   0.9824     C
N       0.6463   0.1422   0.4274     N
H       0.6463   0.1844    0.817     H
C       0.6473   0.2707    0.578     C
H       0.6474   0.4922   0.5891     H
H       0.6504   0.7664   0.6581     H
Yb     0.65182  0.14324  0.28875    Yb
H        0.655    0.858    0.867     H
C       0.6555   0.9777   0.1624     C
C       0.6586   0.6448   0.0148     C
C       0.6681   0.2955    0.609     C
H       0.6688   0.0923   0.8576     H
H       0.6693   0.8367    0.019     H
O       0.6699   0.2711   0.8318     O
C       0.6705   0.8327   0.8308     C
H       0.6709   0.6035   0.0254     H
O       0.6716    0.108   0.1923     O
N       0.6749   0.4298   0.7014     N
C       0.6758   0.1893   0.5023     C
H       0.6767   0.9997   0.8756     H
N       0.6783   0.2623   0.8825     N
C       0.6859   0.8878   0.0646     C
C       0.6867   0.4375   0.6428     C
H       0.6871   0.4205   0.8579     H
C       0.6879   0.1468   0.7926     C
N        0.688   0.0537   0.1677     N
N        0.688   0.7143   0.9475     N
C       0.6904    0.244   0.9899     C
C       0.6937   0.2337     0.05     C
C       0.6946   0.2137   0.5397     C
N       0.6985   0.2118   0.1606     N
O       0.7005   0.2004    0.214     O
C       0.7015   0.0924   0.8166     C
C       0.7031   0.8354   0.0292     C
H        0.705   0.9088   0.9208     H
C       0.7058   0.6542    0.962     C
H        0.711   0.5015   0.8552     H
C       0.7127    0.117   0.4184     C
C       0.7162   0.7623   0.7256     C
O       0.7193   0.0313   0.2713     O
O       0.7205   0.2023   0.7109     O
C       0.7208   0.9437   0.1113     C
C       0.7238   0.2062   0.8883     C
O       0.7245   0.3827   0.7136     O
C       0.7249   0.9682   0.8604     C
C       0.7277   0.1395   0.4547     C
H       0.7285   0.5792   0.8126     H
H       0.7292   0.4076   0.6093     H
C       0.7301   0.1962   0.9411     C
O       0.7326   0.7237   0.8945     O
H       0.7328   0.2237    0.331     H
N        0.733   0.1484    0.734     N
H       0.7331   0.7377   0.6884     H
N       0.7334   0.2635   0.6027     N
C       0.7334   0.4147   0.8309     C
C       0.7363   0.8854   0.0786     C
N       0.7398   0.7965   0.7937     N
H       0.7408   0.9889   0.3619     H
C       0.7418   0.9142   0.8868     C
Yb     0.74312  0.28067   0.7304    Yb
C       0.7476    0.463   0.8289     C
H       0.7498    0.083   0.3861     H
H       0.7503   0.6198   0.9355     H
H        0.751   0.6622    0.807     H
H        0.752   0.1727    0.855     H
C       0.7524   0.0204   0.1187     C
C        0.753   0.1856   0.0519     C
C       0.7546   0.1757   0.1075     C
O       0.7549   0.2872   0.6301     O
O        0.757   0.1218    0.287     O
C       0.7604   0.1816   0.5369     C
C       0.7622   0.0362   0.7828     C
H       0.7625   0.1559   0.9445     H
C       0.7637   0.7625   0.7398     C
N        0.765   0.7847   0.0101     N
C       0.7686   0.9644   0.0907     C
O       0.7688   0.3133   0.7992     O
C       0.7752    0.571   0.8009     C
H       0.7753   0.1206   0.4474     H
C       0.7755   0.2055   0.2928     C
C       0.7784   0.2066   0.5685     C
C       0.7791   0.9771   0.8105     C
O       0.7807   0.7371   0.9749     O
N       0.7829   0.9965   0.2705     N
C       0.7838   0.9786   0.3247     C
N       0.7846    0.359    0.795     N
H       0.7863   0.0349   0.1034     H
O       0.7865   0.7957   0.8088     O
C       0.7884   0.6203   0.7979     C
C       0.7922   0.0947    0.699     C
H       0.7928   0.1593   0.0147     H
H       0.7936   0.1415   0.5125     H
N       0.7954    0.151   0.2624     N
H        0.796   0.1429   0.1083     H
C        0.799   0.8308   0.0588     C
H       0.8025   0.2725   0.2906     H
C       0.8074    0.039   0.7222     C
N       0.8087   0.8689   0.8657     N
C       0.8131   0.7806   0.0253     C
H       0.8132   0.7392   0.7125     H
C       0.8136   0.4572   0.7898     C
H       0.8142   0.9405   0.0565     H
C       0.8166   0.2346   0.2688     C
O        0.821   0.1837   0.7461     O
O       0.8227   0.8174   0.8928     O
H       0.8235    0.096   0.6577     H
H       0.8239   0.1833   0.5665     H
H       0.8247   0.6286   0.0042     H
C       0.8292   0.5091   0.7869     C
H       0.8337   0.8276   0.0688     H
H       0.8387   0.9915   0.1798     H
Yb     0.84136  0.72001  0.86247    Yb
C       0.8415   0.9796    0.217     C
C       0.8469   0.9294   0.7899     C
C       0.8482   0.9452    0.325     C
H        0.849   0.0018    0.697     H
H       0.8495   0.9337   0.3628     H
C       0.8502   0.3511   0.7569     C
C       0.8543   0.1254    0.208     C
N       0.8547   0.6094   0.7821     N
H       0.8568    0.217   0.8122     H
H       0.8569   0.7429   0.0127     H
H       0.8571   0.3611   0.6167     H
O       0.8604   0.2641   0.6659     O
C       0.8621   0.8752    0.818     C
H       0.8636   0.3182   0.2474     H
C       0.8654   0.3986   0.7535     C
H       0.8669   0.0879   0.1866     H
O       0.8669   0.6573   0.7784     O
O        0.869   0.6195   0.8894     O
C       0.8731   0.5976    0.982     C
C       0.8789    0.209   0.2124     C
H       0.8823   0.8083   0.7184     H
C       0.8833   0.3248   0.5868     C
H       0.8846   0.9333   0.7556     H
N       0.8858   0.1604   0.7399     N
H       0.8864   0.3117    0.732     H
H       0.8866   0.5706   0.0584     H
N         0.89   0.2691   0.6057     N
C       0.8953   0.1822   0.7813     C
C       0.8971   0.1536   0.1826     C
C       0.8971   0.5001   0.7694     C
N       0.9055   0.5874   0.9199     N
C        0.907   0.9448   0.2151     C
C       0.9077   0.5506   0.7675     C
H       0.9082   0.3692   0.5116     H
C       0.9084   0.2954    0.212     C
H       0.9098   0.8429   0.8036     H
C       0.9102    0.563   0.0142     C
C       0.9112   0.9285   0.2702     C
H       0.9121   0.3919    0.726     H
C       0.9142   0.3295   0.5245     C
H       0.9181   0.7899   0.9264     H
H       0.9216   0.3701   0.4122     H
C       0.9244   0.7726   0.6911     C
C       0.9268    0.238   0.1848     C
C       0.9293   0.2164    0.564     C
H       0.9296    0.809   0.6122     H
H        0.932    0.101    0.664     H
H       0.9348   0.1771    0.578     H
O       0.9352    0.691   0.8862     O
H       0.9358   0.4588    0.759     H
O       0.9364   0.7239   0.7753     O
H       0.9395   0.1347   0.1443     H
C       0.9399   0.1145   0.6933     C
H       0.9401   0.5173   0.1044     H
H        0.944   0.3578   0.2055     H
H       0.9492    0.932   0.1765     H
C       0.9522   0.7727   0.6282     C
H       0.9524   0.9459   0.3463     H
H       0.9541   0.5437   0.7554     H
C       0.9545   0.2762   0.4796     C
C       0.9561    0.319    0.187     C
N       0.9571   0.7216   0.7145     N
C       0.9602   0.3322   0.3858     C
C       0.9608   0.2199   0.5019     C
C       0.9616   0.1535   0.7782     C
C       0.9626   0.7679   0.8905     C
H       0.9664   0.3679   0.3069     H
H       0.9678   0.1673   0.8087     H
C       0.9729   0.5455    0.889     C
C       0.9795   0.5186   0.9837     C
N       0.9797   0.7137   0.8643     N
C       0.9804   0.8955   0.2692     C
C        0.987   0.3313   0.3237     C
C       0.9875   0.2791   0.4124     C
H       0.9877   0.1826   0.4732     H
C       0.9891   0.4883   0.0809     C
C       0.9911   0.9141   0.3125     C
C       0.9919   0.2073    0.133     C
H       0.9945   0.8316   0.8867     H
H       0.9954   0.5387   0.8448     H
