data_I
_chemical_name_common  '/home/zhangsd/repos/MofS-CGCNN/ML/data/SSD/clean_cifs/ZAHLEC_clean'
_cell_length_a 31.78640
_cell_length_b 33.33950
_cell_length_c 11.67730
_cell_angle_alpha 90.00000
_cell_angle_beta  90.00000
_cell_angle_gamma 90.00000
_space_group_name_H-M_alt      'P 1'


loop_
_space_group_symop_operation_xyz
  'x, y, z' 

loop_
_atom_site_label
_atom_site_fract_x
_atom_site_fract_y
_atom_site_fract_z
_atom_site_type_symbol
Cu         0.0      0.0      0.5    Cu
Cu         0.0      0.5      0.5    Cu
N      0.04408  0.03819  0.44542     N
N      0.04408  0.46181  0.44542     N
N      0.04408  0.53819  0.55458     N
N      0.04408  0.96181  0.55458     N
H       0.0454   0.0371   0.2697     H
H       0.0454   0.4629   0.2697     H
H       0.0454   0.5371   0.7303     H
H       0.0454   0.9629   0.7303     H
C        0.056  0.04868   0.3383     C
C        0.056  0.45132   0.3383     C
C        0.056  0.54868   0.6617     C
C        0.056  0.95132   0.6617     C
H       0.0641     0.06   0.5944     H
H       0.0641     0.44   0.5944     H
H       0.0641     0.56   0.4056     H
H       0.0641     0.94   0.4056     H
C      0.06608   0.0608   0.5133     C
C      0.06608   0.4392   0.5133     C
C      0.06608   0.5608   0.4867     C
C      0.06608   0.9392   0.4867     C
C      0.08527  0.07805   0.3435     C
C      0.08527  0.42195   0.3435     C
C      0.08527  0.57805   0.6565     C
C      0.08527  0.92195   0.6565     C
H       0.0881   0.1182   0.6552     H
H       0.0881   0.3818   0.6552     H
H       0.0881   0.6182   0.3448     H
H       0.0881   0.8818   0.3448     H
N      0.09209  0.08551   0.4558     N
N      0.09209  0.41449   0.4558     N
N      0.09209  0.58551   0.5442     N
N      0.09209  0.91449   0.5442     N
H       0.0985    0.091   0.2805     H
H       0.0985    0.409   0.2805     H
H       0.0985    0.591   0.7195     H
H       0.0985    0.909   0.7195     H
C      0.11208  0.12749   0.6143     C
C      0.11208  0.37251   0.6143     C
C      0.11208  0.62749   0.3857     C
C      0.11208  0.87251   0.3857     C
C      0.11994  0.11368   0.5062     C
C      0.11994  0.38632   0.5062     C
C      0.11994  0.61368   0.4938     C
C      0.11994  0.88632   0.4938     C
H       0.1335    0.165   0.7392     H
H       0.1335    0.335   0.7392     H
H       0.1335    0.665   0.2608     H
H       0.1335    0.835   0.2608     H
C      0.13917   0.1551   0.6644     C
C      0.13917   0.3449   0.6644     C
C      0.13917   0.6551   0.3356     C
C      0.13917   0.8449   0.3356     C
C      0.15454   0.1274   0.4451     C
C      0.15454   0.3726   0.4451     C
C      0.15454   0.6274   0.5549     C
C      0.15454   0.8726   0.5549     C
H       0.1597    0.118   0.3696     H
H       0.1597    0.382   0.3696     H
H       0.1597    0.618   0.6304     H
H       0.1597    0.882   0.6304     H
C      0.17462  0.16829   0.6049     C
C      0.17462  0.33171   0.6049     C
C      0.17462  0.66829   0.3951     C
C      0.17462  0.83171   0.3951     C
C      0.18147  0.15496   0.4952     C
C      0.18147  0.34504   0.4952     C
C      0.18147  0.65496   0.5048     C
C      0.18147  0.84504   0.5048     C
O      0.19471  0.20904   0.7611     O
O      0.19471  0.29096   0.7611     O
O      0.19471  0.70904   0.2389     O
O      0.19471  0.79096   0.2389     O
C      0.20343  0.19784   0.6613     C
C      0.20343  0.30216   0.6613     C
C      0.20343  0.69784   0.3387     C
C      0.20343  0.80216   0.3387     C
H       0.2049   0.1648   0.4532     H
H       0.2049   0.3352   0.4532     H
H       0.2049   0.6648   0.5468     H
H       0.2049   0.8352   0.5468     H
Cu     0.22624     0.25  0.84324    Cu
Cu     0.22624     0.75  0.15676    Cu
O      0.23437  0.20938   0.6015     O
O      0.23437  0.29062   0.6015     O
O      0.23437  0.70938   0.3985     O
O      0.23437  0.79062   0.3985     O
O      0.26563  0.20938   0.8985     O
O      0.26563  0.29062   0.8985     O
O      0.26563  0.70938   0.1015     O
O      0.26563  0.79062   0.1015     O
Cu     0.27376     0.25  0.65676    Cu
Cu     0.27376     0.75  0.34324    Cu
H       0.2951   0.1648   0.0468     H
H       0.2951   0.3352   0.0468     H
H       0.2951   0.6648   0.9532     H
H       0.2951   0.8352   0.9532     H
C      0.29657  0.19784   0.8387     C
C      0.29657  0.30216   0.8387     C
C      0.29657  0.69784   0.1613     C
C      0.29657  0.80216   0.1613     C
O      0.30529  0.20904   0.7389     O
O      0.30529  0.29096   0.7389     O
O      0.30529  0.70904   0.2611     O
O      0.30529  0.79096   0.2611     O
C      0.31853  0.15496   0.0048     C
C      0.31853  0.34504   0.0048     C
C      0.31853  0.65496   0.9952     C
C      0.31853  0.84504   0.9952     C
C      0.32538  0.16829   0.8951     C
C      0.32538  0.33171   0.8951     C
C      0.32538  0.66829   0.1049     C
C      0.32538  0.83171   0.1049     C
H       0.3403    0.118   0.1304     H
H       0.3403    0.382   0.1304     H
H       0.3403    0.618   0.8696     H
H       0.3403    0.882   0.8696     H
C      0.34546   0.1274   0.0549     C
C      0.34546   0.3726   0.0549     C
C      0.34546   0.6274   0.9451     C
C      0.34546   0.8726   0.9451     C
C      0.36083   0.1551   0.8356     C
C      0.36083   0.3449   0.8356     C
C      0.36083   0.6551   0.1644     C
C      0.36083   0.8449   0.1644     C
H       0.3665    0.165   0.7608     H
H       0.3665    0.335   0.7608     H
H       0.3665    0.665   0.2392     H
H       0.3665    0.835   0.2392     H
C      0.38006  0.11368   0.9938     C
C      0.38006  0.38632   0.9938     C
C      0.38006  0.61368   0.0062     C
C      0.38006  0.88632   0.0062     C
C      0.38792  0.12749   0.8857     C
C      0.38792  0.37251   0.8857     C
C      0.38792  0.62749   0.1143     C
C      0.38792  0.87251   0.1143     C
H       0.4015    0.091   0.2195     H
H       0.4015    0.409   0.2195     H
H       0.4015    0.591   0.7805     H
H       0.4015    0.909   0.7805     H
N      0.40791  0.08551   0.0442     N
N      0.40791  0.41449   0.0442     N
N      0.40791  0.58551   0.9558     N
N      0.40791  0.91449   0.9558     N
H       0.4119   0.1182   0.8448     H
H       0.4119   0.3818   0.8448     H
H       0.4119   0.6182   0.1552     H
H       0.4119   0.8818   0.1552     H
C      0.41473  0.07805   0.1565     C
C      0.41473  0.42195   0.1565     C
C      0.41473  0.57805   0.8435     C
C      0.41473  0.92195   0.8435     C
C      0.43392   0.0608   0.9867     C
C      0.43392   0.4392   0.9867     C
C      0.43392   0.5608   0.0133     C
C      0.43392   0.9392   0.0133     C
H       0.4359     0.06   0.9056     H
H       0.4359     0.44   0.9056     H
H       0.4359     0.56   0.0944     H
H       0.4359     0.94   0.0944     H
C        0.444  0.04868   0.1617     C
C        0.444  0.45132   0.1617     C
C        0.444  0.54868   0.8383     C
C        0.444  0.95132   0.8383     C
H       0.4546   0.0371   0.2303     H
H       0.4546   0.4629   0.2303     H
H       0.4546   0.5371   0.7697     H
H       0.4546   0.9629   0.7697     H
N      0.45592  0.03819  0.05458     N
N      0.45592  0.46181  0.05458     N
N      0.45592  0.53819  0.94542     N
N      0.45592  0.96181  0.94542     N
Cu         0.5      0.0      0.0    Cu
Cu         0.5      0.5      0.0    Cu
N      0.54408  0.03819  0.05458     N
N      0.54408  0.46181  0.05458     N
N      0.54408  0.53819  0.94542     N
N      0.54408  0.96181  0.94542     N
H       0.5454   0.0371   0.2303     H
H       0.5454   0.4629   0.2303     H
H       0.5454   0.5371   0.7697     H
H       0.5454   0.9629   0.7697     H
C        0.556  0.04868   0.1617     C
C        0.556  0.45132   0.1617     C
C        0.556  0.54868   0.8383     C
C        0.556  0.95132   0.8383     C
H       0.5641     0.06   0.9056     H
H       0.5641     0.44   0.9056     H
H       0.5641     0.56   0.0944     H
H       0.5641     0.94   0.0944     H
C      0.56608   0.0608   0.9867     C
C      0.56608   0.4392   0.9867     C
C      0.56608   0.5608   0.0133     C
C      0.56608   0.9392   0.0133     C
C      0.58527  0.07805   0.1565     C
C      0.58527  0.42195   0.1565     C
C      0.58527  0.57805   0.8435     C
C      0.58527  0.92195   0.8435     C
H       0.5881   0.1182   0.8448     H
H       0.5881   0.3818   0.8448     H
H       0.5881   0.6182   0.1552     H
H       0.5881   0.8818   0.1552     H
N      0.59209  0.08551   0.0442     N
N      0.59209  0.41449   0.0442     N
N      0.59209  0.58551   0.9558     N
N      0.59209  0.91449   0.9558     N
H       0.5985    0.091   0.2195     H
H       0.5985    0.409   0.2195     H
H       0.5985    0.591   0.7805     H
H       0.5985    0.909   0.7805     H
C      0.61208  0.12749   0.8857     C
C      0.61208  0.37251   0.8857     C
C      0.61208  0.62749   0.1143     C
C      0.61208  0.87251   0.1143     C
C      0.61994  0.11368   0.9938     C
C      0.61994  0.38632   0.9938     C
C      0.61994  0.61368   0.0062     C
C      0.61994  0.88632   0.0062     C
H       0.6335    0.165   0.7608     H
H       0.6335    0.335   0.7608     H
H       0.6335    0.665   0.2392     H
H       0.6335    0.835   0.2392     H
C      0.63917   0.1551   0.8356     C
C      0.63917   0.3449   0.8356     C
C      0.63917   0.6551   0.1644     C
C      0.63917   0.8449   0.1644     C
C      0.65454   0.1274   0.0549     C
C      0.65454   0.3726   0.0549     C
C      0.65454   0.6274   0.9451     C
C      0.65454   0.8726   0.9451     C
H       0.6597    0.118   0.1304     H
H       0.6597    0.382   0.1304     H
H       0.6597    0.618   0.8696     H
H       0.6597    0.882   0.8696     H
C      0.67462  0.16829   0.8951     C
C      0.67462  0.33171   0.8951     C
C      0.67462  0.66829   0.1049     C
C      0.67462  0.83171   0.1049     C
C      0.68147  0.15496   0.0048     C
C      0.68147  0.34504   0.0048     C
C      0.68147  0.65496   0.9952     C
C      0.68147  0.84504   0.9952     C
O      0.69471  0.20904   0.7389     O
O      0.69471  0.29096   0.7389     O
O      0.69471  0.70904   0.2611     O
O      0.69471  0.79096   0.2611     O
C      0.70343  0.19784   0.8387     C
C      0.70343  0.30216   0.8387     C
C      0.70343  0.69784   0.1613     C
C      0.70343  0.80216   0.1613     C
H       0.7049   0.1648   0.0468     H
H       0.7049   0.3352   0.0468     H
H       0.7049   0.6648   0.9532     H
H       0.7049   0.8352   0.9532     H
Cu     0.72624     0.25  0.65676    Cu
Cu     0.72624     0.75  0.34324    Cu
O      0.73437  0.20938   0.8985     O
O      0.73437  0.29062   0.8985     O
O      0.73437  0.70938   0.1015     O
O      0.73437  0.79062   0.1015     O
O      0.76563  0.20938   0.6015     O
O      0.76563  0.29062   0.6015     O
O      0.76563  0.70938   0.3985     O
O      0.76563  0.79062   0.3985     O
Cu     0.77376     0.25  0.84324    Cu
Cu     0.77376     0.75  0.15676    Cu
H       0.7951   0.1648   0.4532     H
H       0.7951   0.3352   0.4532     H
H       0.7951   0.6648   0.5468     H
H       0.7951   0.8352   0.5468     H
C      0.79657  0.19784   0.6613     C
C      0.79657  0.30216   0.6613     C
C      0.79657  0.69784   0.3387     C
C      0.79657  0.80216   0.3387     C
O      0.80529  0.20904   0.7611     O
O      0.80529  0.29096   0.7611     O
O      0.80529  0.70904   0.2389     O
O      0.80529  0.79096   0.2389     O
C      0.81853  0.15496   0.4952     C
C      0.81853  0.34504   0.4952     C
C      0.81853  0.65496   0.5048     C
C      0.81853  0.84504   0.5048     C
C      0.82538  0.16829   0.6049     C
C      0.82538  0.33171   0.6049     C
C      0.82538  0.66829   0.3951     C
C      0.82538  0.83171   0.3951     C
H       0.8403    0.118   0.3696     H
H       0.8403    0.382   0.3696     H
H       0.8403    0.618   0.6304     H
H       0.8403    0.882   0.6304     H
C      0.84546   0.1274   0.4451     C
C      0.84546   0.3726   0.4451     C
C      0.84546   0.6274   0.5549     C
C      0.84546   0.8726   0.5549     C
C      0.86083   0.1551   0.6644     C
C      0.86083   0.3449   0.6644     C
C      0.86083   0.6551   0.3356     C
C      0.86083   0.8449   0.3356     C
H       0.8665    0.165   0.7392     H
H       0.8665    0.335   0.7392     H
H       0.8665    0.665   0.2608     H
H       0.8665    0.835   0.2608     H
C      0.88006  0.11368   0.5062     C
C      0.88006  0.38632   0.5062     C
C      0.88006  0.61368   0.4938     C
C      0.88006  0.88632   0.4938     C
C      0.88792  0.12749   0.6143     C
C      0.88792  0.37251   0.6143     C
C      0.88792  0.62749   0.3857     C
C      0.88792  0.87251   0.3857     C
H       0.9015    0.091   0.2805     H
H       0.9015    0.409   0.2805     H
H       0.9015    0.591   0.7195     H
H       0.9015    0.909   0.7195     H
N      0.90791  0.08551   0.4558     N
N      0.90791  0.41449   0.4558     N
N      0.90791  0.58551   0.5442     N
N      0.90791  0.91449   0.5442     N
H       0.9119   0.1182   0.6552     H
H       0.9119   0.3818   0.6552     H
H       0.9119   0.6182   0.3448     H
H       0.9119   0.8818   0.3448     H
C      0.91473  0.07805   0.3435     C
C      0.91473  0.42195   0.3435     C
C      0.91473  0.57805   0.6565     C
C      0.91473  0.92195   0.6565     C
C      0.93392   0.0608   0.5133     C
C      0.93392   0.4392   0.5133     C
C      0.93392   0.5608   0.4867     C
C      0.93392   0.9392   0.4867     C
H       0.9359     0.06   0.5944     H
H       0.9359     0.44   0.5944     H
H       0.9359     0.56   0.4056     H
H       0.9359     0.94   0.4056     H
C        0.944  0.04868   0.3383     C
C        0.944  0.45132   0.3383     C
C        0.944  0.54868   0.6617     C
C        0.944  0.95132   0.6617     C
H       0.9546   0.0371   0.2697     H
H       0.9546   0.4629   0.2697     H
H       0.9546   0.5371   0.7303     H
H       0.9546   0.9629   0.7303     H
N      0.95592  0.03819  0.44542     N
N      0.95592  0.46181  0.44542     N
N      0.95592  0.53819  0.55458     N
N      0.95592  0.96181  0.55458     N
