data_I
_chemical_name_common  '/home/zhangsd/repos/MofS-CGCNN/ML/data/SSD/clean_cifs/ZALMIL_clean'
_cell_length_a  6.50170
_cell_length_b 10.15500
_cell_length_c 16.35820
_cell_angle_alpha 87.04100
_cell_angle_beta  87.17700
_cell_angle_gamma 81.42700
_space_group_name_H-M_alt      'P 1'


loop_
_space_group_symop_operation_xyz
  'x, y, z' 

loop_
_atom_site_label
_atom_site_fract_x
_atom_site_fract_y
_atom_site_fract_z
_atom_site_type_symbol
O       0.0058  0.31412  0.28765     O
C       0.0165   0.0442  0.73001     C
Co     0.02927  0.84552  0.99664    Co
C       0.0429   0.7034  0.26698     C
H       0.0666   0.0365   0.7852     H
O       0.0728  0.14191  0.12089     O
C       0.0745   0.7917  0.72073     C
C       0.0815   0.0795  0.28618     C
H       0.1197   0.0696   0.3436     H
Co     0.13422  0.49789  0.73095    Co
H       0.1349   0.0493   0.6921     H
O       0.1397  0.81151  0.11239     O
C       0.1407   0.8275  0.27997     C
O       0.1478  0.28899  0.74407     O
H       0.1546   0.0947   0.5089     H
O       0.1572  0.58969  0.27394     O
H       0.1634   0.6546   0.5471     H
H       0.1803   0.8214   0.3372     H
O       0.2022  0.00351  0.96482     O
C       0.2057   0.5636  0.54208     C
N       0.2262   0.4701   0.6065     N
H       0.2533   0.8815   0.5619     H
C       0.2535   0.1253  0.14495     C
H       0.2543   0.5435    0.418     H
C       0.2564   0.5031  0.47038     C
H         0.26   0.2658   0.3946     H
O       0.2617  0.79379  0.72969     O
C        0.285   0.0885   0.2359     C
C       0.2919   0.3555  0.57257     C
C        0.294   0.0571  0.50517     C
H       0.2951    0.006   0.9049     H
N       0.3111   0.3708  0.49052     N
C       0.3124    0.828  0.13572     C
H       0.3213   0.2743   0.6017     H
C       0.3425   0.8335   0.2276     C
H       0.3497   0.1593   0.2583     H
C       0.3533   0.9287  0.53702     C
C       0.3748   0.2684  0.42992     C
O       0.4137  0.13503  0.09857     O
C       0.4359   0.9578  0.24743     C
C       0.4392   0.1306  0.46769     C
H       0.4404   0.0373   0.7876     H
H       0.4421   0.7553   0.2437     H
O       0.4701  0.84145  0.08791     O
H       0.4781   0.9486   0.3037     H
H       0.4902   0.2938   0.3959     H
Co         0.5      0.0      0.0    Co
H       0.5098   0.7062   0.6041     H
H       0.5219   0.0514   0.6963     H
O       0.5299  0.15855  0.91209     O
H       0.5579   0.2447   0.7563     H
H       0.5596   0.9627   0.2124     H
C       0.5608   0.8694  0.53231     C
C       0.5641   0.0422  0.75257     C
O       0.5863  0.86497  0.90143     O
C       0.6252   0.7316  0.57008     C
C       0.6467   0.0713  0.46298     C
H       0.6503   0.8407   0.7417     H
C       0.6575   0.1665   0.7724     C
H       0.6787   0.7257   0.3983     H
C       0.6876    0.172  0.86428     C
N       0.6889   0.6292  0.50948     N
H       0.7049    0.994   0.0951     H
C        0.706   0.9429  0.49483     C
C       0.7081   0.6445  0.42743     C
C        0.715   0.9115   0.7641     C
O       0.7383  0.20621  0.27031     O
H         0.74   0.7342   0.6054     H
C       0.7436   0.4969  0.52962     C
H       0.7457   0.4565    0.582     H
C       0.7465   0.8747  0.85505     C
H       0.7467   0.1185   0.4381     H
N       0.7738   0.5299   0.3935     N
C       0.7943   0.4364  0.45792     C
O       0.7978  0.99649  0.03518     O
H       0.8197   0.1786   0.6628     H
H       0.8366   0.3454   0.4529     H
O       0.8428  0.41031  0.72606     O
H       0.8454   0.9053   0.4911     H
O       0.8522  0.71101  0.25593     O
C       0.8593   0.1725  0.72003     C
O       0.8603  0.18849  0.88761     O
H       0.8651   0.9507   0.3079     H
Co     0.86578  0.50211  0.26905    Co
H       0.8803   0.9304   0.6564     H
C       0.9185   0.9205  0.71382     C
C       0.9255   0.2083  0.27927     C
O       0.9272  0.85809  0.87911     O
H       0.9334   0.9635   0.2148     H
C       0.9571   0.2966  0.73302     C
Co     0.97073  0.15448  0.00336    Co
C       0.9835   0.9558  0.26999     C
O       0.9942  0.68588  0.71235     O
