data_I
_chemical_name_common  '/home/zhangsd/repos/MofS-CGCNN/ML/data/SSD/clean_cifs/ZEZFIV_clean'
_cell_length_a 22.83900
_cell_length_b 22.83900
_cell_length_c 33.07800
_cell_angle_alpha 90.00000
_cell_angle_beta  90.00000
_cell_angle_gamma 90.00000
_space_group_name_H-M_alt      'P 1'


loop_
_space_group_symop_operation_xyz
  'x, y, z' 

loop_
_atom_site_label
_atom_site_fract_x
_atom_site_fract_y
_atom_site_fract_z
_atom_site_type_symbol
C      0.00164  0.48425  0.85142     C
O       0.0053   0.3414   0.1618     O
C      0.00648  0.55167  0.27983     C
O      0.00734  0.62199    0.181     O
C      0.01093  0.41145  0.74876     C
H       0.0117   0.3146   0.1778     H
C      0.01474   0.5851    0.206     C
C      0.01575  0.50164  0.60142     C
C      0.01774  0.44467  0.81718     C
O       0.0224  0.52638   0.6342     O
H       0.0239   0.4646    0.525     H
O      0.02442  0.53481  0.09479     O
O      0.02638   0.4776   0.8842     O
Na     0.03084  0.43363  0.19284    Na
O      0.03106  0.64605  0.83573     O
O      0.03481  0.47558  0.34479     O
H       0.0354   0.5239    0.275     H
O       0.0383  0.58328  0.74425     O
O      0.03953  0.45387  0.44987     O
Na     0.03961  0.39118   0.2928    Na
O      0.04096  0.61062  0.89758     O
Zn       0.041  0.42361  0.39264    Zn
O      0.04613  0.53953  0.19987     O
C      0.05167  0.49352  0.52983     C
C       0.0529   0.3691  0.75544     C
C      0.05533  0.51774  0.56718     C
C      0.06008   0.6381  0.86769     C
C       0.0609   0.4035  0.82401     C
H       0.0641   0.3442   0.7346     H
O      0.06608   0.6082  0.99803     O
Na     0.06637  0.53084  0.94284    Na
Zn     0.07639    0.541  0.14264    Zn
C       0.0782   0.3636   0.7928     C
H       0.0789   0.4016   0.8492     H
O      0.08328   0.4617  0.99425     O
C       0.0851  0.48526    0.456     C
O       0.0859   0.1619   0.4678     O
O       0.0875   0.1386  0.55594     O
C      0.08855  0.51093  0.49876     C
O      0.08879  0.35295  0.39639     O
H       0.0947   0.2491   0.4247     H
C       0.0965   0.5609  0.57401     C
H       0.0984   0.5789   0.5992     H
O       0.1082  0.43392  0.24803     O
Na     0.10882  0.53961   0.0428    Na
C       0.1095   0.3303  0.36522     C
O      0.10982  0.35262  0.33153     O
O      0.11062  0.45904  0.14758     O
H        0.115   0.1751   0.6267     H
C       0.1155   0.1346   0.4384     C
C       0.1173   0.6709   0.8734     C
C       0.1175   0.2328  0.40429     C
N       0.1211   0.3205  0.80426     N
H       0.1214   0.7022   0.8175     H
O      0.12199  0.49266    0.431     O
H       0.1255   0.3155   0.8298     H
C       0.1309   0.5529  0.50544     C
H       0.1333   0.6438   0.9307     H
C       0.1339   0.1783   0.4067     C
H       0.1341   0.2492   0.6749     H
C       0.1346   0.1155   0.5616     C
C       0.1346   0.2683  0.36989     C
C       0.1364   0.5782   0.5428     C
C       0.1381  0.43992  0.11769     C
O       0.1386   0.0875  0.44406     O
N      0.14059   0.2764   0.7425     N
C       0.1411   0.7013  0.84205     C
H       0.1438   0.3667   0.1807     H
O      0.14605  0.46894  0.08573     O
O      0.14705  0.58879  0.14639     O
O      0.14738  0.60982  0.08153     O
C       0.1485   0.6662  0.90965     C
C       0.1551   0.1682   0.6264     C
C       0.1556   0.2867  0.78036     C
H       0.1558   0.5641   0.4846     H
O       0.1586   0.5053   0.9118     O
O       0.1619   0.0859   0.5322     O
N       0.1629   0.2287  0.68398     N
H       0.1648   0.2894   0.2189     H
C       0.1662   0.3515  0.15965     C
C       0.1682   0.1551   0.3736     C
C       0.1685   0.2434  0.34094     C
C       0.1697   0.6095  0.11522     C
C       0.1709   0.3827   0.1234     C
H       0.1751    0.115   0.3733     H
C       0.1772   0.2387  0.72296     C
H       0.1772   0.2657   0.3182     H
C       0.1783   0.1339   0.5933     C
N       0.1795   0.6211  0.55426     N
H       0.1845   0.6255   0.5798     H
H       0.1854   0.5117   0.9278     H
C       0.1873   0.1912  0.65716     C
N       0.1898   0.2729   0.2032     N
C       0.1912   0.1873  0.34284     C
O       0.1918    0.761  0.78002     O
C       0.1936   0.7307  0.84576     C
C       0.1945   0.2983  0.16451     C
N       0.1984   0.2596  0.80164     N
C       0.2013   0.3589  0.09205     C
C       0.2017   0.6945  0.91451     C
H       0.2022   0.3786   0.0675     H
N       0.2066    0.218  0.25997     N
O       0.2086    0.737  0.68393     O
H       0.2106   0.6648   0.9689     H
C       0.2133   0.6556  0.53036     C
N        0.218   0.2066  0.74003     N
C       0.2189   0.2259  0.21992     C
C        0.221   0.7635  0.81096     C
N       0.2236  0.64059   0.4925     N
C       0.2259   0.2189  0.78008     C
C        0.226    0.728  0.88337     C
N       0.2271   0.6898   0.9532     N
C        0.228    0.274  0.13337     C
N       0.2287   0.1629  0.31602     N
C       0.2307   0.3064  0.09576     C
C       0.2317   0.6346  0.11989     C
C       0.2328   0.1175  0.59571     C
H       0.2343   0.6772   0.0682     H
C       0.2365    0.779  0.68904     C
O        0.237   0.2914  0.93393     O
C       0.2387   0.1772  0.27704     C
H       0.2387   0.2476   0.8634     H
O        0.239   0.8082  0.71998     O
N       0.2404   0.6984  0.55164     N
C       0.2434   0.1685  0.65906     C
H       0.2476   0.2387   0.1366     H
H       0.2491   0.0947   0.5753     H
H       0.2492   0.1341   0.3251     H
H       0.2508   0.6341   0.4249     H
H       0.2509   0.5947   0.1747     H
H       0.2524   0.7387   0.6134     H
C       0.2566   0.6685  0.09094     C
N       0.2596   0.1984  0.19836     N
O        0.261   0.3082  0.03002     O
C       0.2613   0.6772  0.47296     C
H       0.2613   0.7476   0.8866     H
O        0.263   0.7914  0.81607     O
C       0.2635    0.279  0.06096     C
H       0.2657   0.1772   0.6818     H
C       0.2672   0.6175  0.15429     C
C       0.2683   0.1346  0.63011     C
C       0.2693   0.8064  0.65424     C
N       0.2713   0.6629  0.43398     N
C        0.272    0.774  0.61663     C
N       0.2729   0.1898   0.7968     N
C        0.274    0.228  0.86663     C
C       0.2741   0.7189  0.96992     C
N       0.2764  0.14059   0.2575     N
C        0.279   0.2635  0.93904     C
C       0.2811   0.7259  0.53008     C
N        0.282   0.7066  0.00997     N
C       0.2867   0.1556  0.21964     C
H       0.2894   0.1648   0.7811     H
O       0.2914    0.237  0.06607     O
N       0.2934    0.718  0.49003     N
H       0.2978   0.8786   0.6825     H
C       0.2983   0.1945  0.83549     C
C       0.2987   0.8589  0.65795     C
N       0.3016   0.7596  0.94836     N
C       0.3055   0.7983  0.58549     C
C       0.3064   0.2307  0.90424     C
O       0.3082    0.261  0.96998     O
C       0.3088   0.6873  0.40716     C
N       0.3102   0.7729   0.5468     N
C       0.3127   0.6912  0.09284     C
H       0.3146   0.0117   0.8222     H
H       0.3155   0.1255   0.1702     H
N       0.3205   0.1211  0.19574     N
C       0.3217   0.6339   0.1567     C
C       0.3228   0.7387  0.02704     C
H       0.3228   0.7657   0.4318     H
H       0.3249    0.615   0.3767     H
C       0.3291   0.8827   0.6266     C
C       0.3303   0.1095  0.63478     C
C       0.3315   0.7434  0.40906     C
C       0.3318   0.6551   0.3764     C
C       0.3338   0.8515  0.59035     C
H       0.3352   0.7894   0.5311     H
N       0.3371   0.7287  0.06602     N
O       0.3381   0.5859   0.2178     O
O       0.3414   0.0053   0.8382     O
H       0.3442   0.0641   0.2654     H
C       0.3444   0.7867  0.96964     C
C       0.3449   0.6682   0.1236     C
C       0.3515   0.1662  0.84035     C
O      0.35262  0.10982  0.66847     O
O      0.35295  0.08879  0.60361     O
O      0.35395  0.96894  0.66427     O
H       0.3562   0.8667   0.5693     H
C       0.3589   0.2013  0.90795     C
N      0.35941   0.7764   0.0075     N
O       0.3614   0.5875  0.30594     O
C       0.3619  0.93992  0.63231     C
C       0.3636   0.0782   0.2072     C
C       0.3654   0.6155   0.1884     C
C       0.3654   0.7683  0.38011     C
H       0.3659   0.7492   0.0751     H
C       0.3661   0.6783   0.3433     C
H       0.3667   0.1438   0.8193     H
C       0.3691   0.0529  0.24456     C
H       0.3745   0.8155   0.9202     H
O      0.37801  0.99266    0.319     O
H       0.3786   0.2022   0.9325     H
N       0.3789   0.8205  0.94574     N
C       0.3825   0.7328  0.34571     C
C       0.3827   0.1709   0.8766     C
C       0.3845   0.6346   0.3116     C
H        0.385   0.6751   0.1233     H
O      0.38938  0.95904  0.60242     O
O      0.39018  0.85262  0.41847     O
C       0.3905   0.8303  0.38478     C
Na     0.39118  0.03961   0.7072    Na
O       0.3918  0.93392  0.50197     O
H       0.4016   0.0789   0.1508     H
C       0.4035   0.0609  0.17599     C
H       0.4053   0.7491   0.3253     H
O      0.41121  0.85295  0.35361     O
C      0.41145  0.01093  0.25124     C
O       0.4125   0.6386  0.19406     O
O       0.4141   0.6619   0.2822     O
C       0.4149  0.98526    0.294     C
O      0.41672   0.9617  0.75575     O
H       0.4211   0.9016   0.9008     H
C       0.4218   0.8636   0.9572     C
Zn     0.42361    0.041  0.60736    Zn
Na     0.43363  0.03084  0.80716    Na
O      0.43392   0.1082  0.75197     O
H       0.4359   0.8442   0.0154     H
C       0.4391   0.9035  0.92599     C
C      0.43992   0.1381  0.88231     C
C      0.44467  0.01774  0.18282     C
C       0.4471   0.8691  0.99456     C
C      0.44833  0.99352  0.22017     C
O      0.45387  0.03953  0.55013     O
Zn       0.459  0.92361  0.35736    Zn
O      0.45904  0.11062  0.85242     O
Na     0.46039  0.89118   0.4572    Na
O      0.46047  0.95387  0.30013     O
O       0.4617  0.08328  0.00575     O
H       0.4646   0.0239    0.475     H
O      0.46519  0.97558  0.40521     O
O      0.46894  0.14605  0.91427     O
Na     0.46916  0.93363  0.55716    Na
O      0.47362   0.9776   0.8658     O
O      0.47558  0.03481  0.65521     O
H       0.4761   0.9646    0.225     H
O       0.4776  0.02638   0.1158     O
C      0.48226  0.94467  0.93282     C
C      0.48425  0.00164  0.14858     C
C      0.48526   0.0851    0.544     C
H       0.4883   0.8146   0.5722     H
C      0.48907  0.91145  0.00124     C
O      0.49266  0.12199    0.569     O
C      0.49352  0.05167  0.47017     C
O       0.4947   0.8414   0.5882     O
C      0.49836  0.98425  0.89858     C
C      0.50164  0.01575  0.39858     C
O       0.5053   0.1586   0.0882     O
C      0.50648  0.94833  0.97017     C
O      0.50734  0.87801    0.069     O
C      0.51093  0.08855  0.50124     C
H       0.5117   0.1854   0.0722     H
C      0.51474   0.9149    0.044     C
C      0.51575  0.99836  0.64858     C
C      0.51774  0.05533  0.43282     C
O       0.5224  0.97362   0.6158     O
H       0.5239   0.0354    0.725     H
O      0.52442  0.96519  0.15521     O
O      0.52638   0.0224   0.3658     O
Na     0.53084  0.06637  0.05716    Na
O      0.53106  0.85395  0.41427     O
O      0.53481  0.02442  0.90521     O
H       0.5354   0.9761    0.975     H
O       0.5383  0.91672  0.50575     O
O      0.53953  0.04613  0.80013     O
Na     0.53961  0.10882   0.9572    Na
O      0.54096  0.88938  0.35242     O
Zn       0.541  0.07639  0.85736    Zn
O      0.54613  0.96047  0.05013     O
C      0.55167  0.00648  0.72017     C
C       0.5529   0.1309  0.49456     C
C      0.55533  0.98226  0.68282     C
C      0.56008   0.8619  0.38231     C
C       0.5609   0.0965  0.42599     C
H       0.5641   0.1558   0.5154     H
O      0.56608   0.8918  0.25197     O
Na     0.56637  0.96916  0.30716    Na
Zn     0.57639    0.959  0.10736    Zn
C       0.5782   0.1364   0.4572     C
H       0.5789   0.0984   0.4008     H
O      0.58328   0.0383  0.25575     O
C       0.5851  0.01474    0.794     C
O       0.5859   0.3381   0.7822     O
O       0.5875   0.3614  0.69406     O
C      0.58855  0.98907  0.75124     C
O      0.58879  0.14705  0.85361     O
H       0.5947   0.2509   0.8253     H
C       0.5965   0.9391  0.67599     C
H       0.5984   0.9211   0.6508     H
O       0.6082  0.06608  0.00197     O
Na     0.60882  0.96039   0.2072    Na
C       0.6095   0.1697  0.88478     C
O      0.60982  0.14738  0.91847     O
O      0.61062  0.04096  0.10242     O
H        0.615   0.3249   0.6233     H
C       0.6155   0.3654   0.8116     C
C       0.6173   0.8291   0.3766     C
C       0.6175   0.2672  0.84571     C
N       0.6211   0.1795  0.44574     N
H       0.6214   0.7978   0.4325     H
O      0.62199  0.00734    0.819     O
H       0.6255   0.1845   0.4202     H
C       0.6309   0.9471  0.74456     C
H       0.6333   0.8562   0.3193     H
C       0.6339   0.3217   0.8433     C
H       0.6341   0.2508   0.5751     H
C       0.6346   0.2317  0.88011     C
C       0.6346   0.3845   0.6884     C
C       0.6364   0.9218   0.7072     C
C       0.6381  0.06008  0.13231     C
O       0.6386   0.4125  0.80594     O
N      0.64059   0.2236   0.5075     N
C       0.6411   0.7987  0.40795     C
H       0.6438   0.1333   0.0693     H
O      0.64605  0.03106  0.16427     O
O      0.64705  0.91121  0.10361     O
O      0.64738  0.89018  0.16847     O
C       0.6485   0.8338  0.34035     C
C       0.6551   0.3318   0.6236     C
C       0.6556   0.2133  0.46964     C
H       0.6558   0.9359   0.7654     H
O       0.6586   0.9947   0.3382     O
O       0.6619   0.4141   0.7178     O
N       0.6629   0.2713  0.56602     N
H       0.6648   0.2106   0.0311     H
C       0.6662   0.1485  0.09035     C
C       0.6682   0.3449   0.8764     C
C       0.6685   0.2566  0.90906     C
C       0.6697   0.8905  0.13478     C
C       0.6709   0.1173   0.1266     C
H       0.6751    0.385   0.8767     H
H       0.6772   0.2343   0.9318     H
C       0.6772   0.2613  0.52704     C
C       0.6783   0.3661   0.6567     C
N       0.6795   0.8789  0.69574     N
H       0.6845   0.8745   0.6702     H
H       0.6854   0.9883   0.3222     H
C       0.6873   0.3088  0.59284     C
N       0.6898   0.2271   0.0468     N
C       0.6912   0.3127  0.90716     C
O       0.6918    0.739  0.46998     O
C       0.6936   0.7693  0.40424     C
C       0.6945   0.2017  0.08549     C
N       0.6984   0.2404  0.44836     N
C       0.7013   0.1411  0.15795     C
C       0.7017   0.8055  0.33549     C
H       0.7022   0.1214   0.1825     H
N       0.7066    0.282  0.99003     N
O       0.7086    0.763  0.56607     O
H       0.7106   0.8352   0.2811     H
C       0.7133   0.8444  0.71964     C
N        0.718   0.2934  0.50997     N
C       0.7189   0.2741  0.03008     C
C        0.721   0.7365  0.43904     C
N       0.7236  0.85941   0.7575     N
C       0.7259   0.2811  0.46992     C
C        0.726    0.772  0.36663     C
N       0.7271   0.8102   0.2968     N
C        0.728    0.226  0.11663     C
N       0.7287   0.3371  0.93398     N
C       0.7307   0.1936  0.15424     C
C       0.7317   0.8654  0.13011     C
C       0.7328   0.3825  0.65429     C
H       0.7343   0.8228   0.1818     H
C       0.7365    0.721  0.56096     C
O        0.737   0.2086  0.31607     O
H       0.7387   0.2524   0.3866     H
C       0.7387   0.3228  0.97296     C
O        0.739   0.6918  0.53002     O
N       0.7404   0.8016  0.69836     N
C       0.7434   0.3315  0.59094     C
H       0.7476   0.2613   0.1134     H
H       0.7491   0.4053   0.6747     H
H       0.7492   0.3659   0.9249     H
H       0.7508   0.8659   0.8251     H
H       0.7509   0.9053   0.0753     H
H       0.7524   0.7613   0.6366     H
C       0.7566   0.8315  0.15906     C
N       0.7596   0.3016  0.05164     N
O        0.761   0.1918  0.21998     O
H       0.7613   0.7524   0.3634     H
C       0.7613   0.8228  0.77704     C
O        0.763   0.7086  0.43393     O
C       0.7635    0.221  0.18904     C
H       0.7657   0.3228   0.5682     H
C       0.7672   0.8825  0.09571     C
C       0.7683   0.3654  0.61989     C
C       0.7693   0.6936  0.59576     C
N       0.7713   0.8371  0.81602     N
C        0.772    0.726  0.63337     C
N       0.7729   0.3102   0.4532     N
C        0.774    0.272  0.38337     C
C       0.7741   0.7811  0.28008     C
N       0.7764  0.35941   0.9925     N
C        0.779   0.2365  0.31096     C
C       0.7811   0.7741  0.71992     C
N        0.782   0.7934  0.24003     N
C       0.7867   0.3444  0.03036     C
H       0.7894   0.3352   0.4689     H
O       0.7914    0.263  0.18393     O
N       0.7934    0.782  0.75997     N
H       0.7978   0.6214   0.5675     H
C       0.7983   0.3055  0.41451     C
C       0.7987   0.6411  0.59205     C
N       0.8016   0.7404  0.30164     N
C       0.8055   0.7017  0.66451     C
C       0.8064   0.2693  0.34576     C
O       0.8082    0.239  0.28002     O
C       0.8088   0.8127  0.84284     C
N       0.8102   0.7271   0.7032     N
C       0.8127   0.8088  0.15716     C
H       0.8146   0.4883   0.4278     H
H       0.8155   0.3745   0.0798     H
N       0.8205   0.3789  0.05426     N
C       0.8217   0.8661   0.0933     C
H       0.8228   0.7343   0.8182     H
C       0.8228   0.7613  0.22296     C
H       0.8249    0.885   0.8733     H
C       0.8291   0.6173   0.6234     C
C       0.8303   0.3905  0.61522     C
C       0.8315   0.7566  0.84094     C
C       0.8318   0.8449   0.8736     C
C       0.8338   0.6485  0.65965     C
H       0.8352   0.7106   0.7189     H
N       0.8371   0.7713  0.18398     N
O       0.8381   0.9141   0.0322     O
O       0.8414   0.4947   0.4118     O
H       0.8442   0.4359   0.9846     H
C       0.8444   0.7133  0.28036     C
C       0.8449   0.8318   0.1264     C
C       0.8515   0.3338  0.40965     C
O      0.85262  0.39018  0.58153     O
O      0.85295  0.41121  0.64639     O
O      0.85395  0.53106  0.58573     O
H       0.8562   0.6333   0.6807     H
C       0.8589   0.2987  0.34205     C
N      0.85941   0.7236   0.2425     N
O       0.8614   0.9125  0.94406     O
C       0.8619  0.56008  0.61769     C
C       0.8636   0.4218   0.0428     C
C       0.8654   0.7317  0.86989     C
C       0.8654   0.8845   0.0616     C
H       0.8659   0.7508   0.1749     H
C       0.8661   0.8217   0.9067     C
H       0.8667   0.3562   0.4307     H
C       0.8691   0.4471  0.00544     C
H       0.8745   0.6845   0.3298     H
O      0.87801  0.50734    0.931     O
H       0.8786   0.2978   0.3175     H
N       0.8789   0.6795  0.30426     N
C       0.8825   0.7672  0.90429     C
C       0.8827   0.3291   0.3734     C
C       0.8845   0.8654   0.9384     C
H        0.885   0.8249   0.1267     H
O      0.88938  0.54096  0.64758     O
O      0.89018  0.64738  0.83153     O
C       0.8905   0.6697  0.86522     C
Na     0.89118  0.46039   0.5428    Na
O       0.8918  0.56608  0.74803     O
H       0.9016   0.4211   0.0992     H
C       0.9035   0.4391  0.07401     C
H       0.9053   0.7509   0.9247     H
O      0.91121  0.64705  0.89639     O
C      0.91145  0.48907  0.99876     C
O       0.9125   0.8614  0.05594     O
O       0.9141   0.8381   0.9678     O
C       0.9149  0.51474    0.956     C
O      0.91672   0.5383  0.49425     O
H       0.9211   0.5984   0.3492     H
C       0.9218   0.6364   0.2928     C
Zn     0.92361    0.459  0.64264    Zn
Na     0.93363  0.46916  0.44284    Na
O      0.93392   0.3918  0.49803     O
H       0.9359   0.6558   0.2346     H
C       0.9391   0.5965  0.32401     C
C      0.93992   0.3619  0.36769     C
C      0.94467  0.48226  0.06718     C
C       0.9471   0.6309  0.25544     C
C      0.94833  0.50648  0.02983     C
O      0.95387  0.46047  0.69987     O
Zn       0.959  0.57639  0.89264    Zn
O      0.95904  0.38938  0.39758     O
Na     0.96039  0.60882   0.7928    Na
O      0.96047  0.54613  0.94987     O
O       0.9617  0.41672  0.24425     O
H       0.9646   0.4761    0.775     H
O      0.96519  0.52442  0.84479     O
O      0.96894  0.35395  0.33573     O
Na     0.96916  0.56637  0.69284    Na
O      0.97362   0.5224   0.3842     O
O      0.97558  0.46519  0.59479     O
H       0.9761   0.5354    0.025     H
O       0.9776  0.47362   0.1342     O
C      0.98226  0.55533  0.31718     C
C      0.98425  0.49836  0.10142     C
C      0.98526   0.4149    0.706     C
H       0.9883   0.6854   0.6778     H
C      0.98907  0.58855  0.24876     C
O      0.99266  0.37801    0.681     O
C      0.99352  0.44833  0.77983     C
O       0.9947   0.6586   0.6618     O
C      0.99836  0.51575  0.35142     C
