data_I
_chemical_name_common  '/home/zhangsd/repos/MofS-CGCNN/ML/data/SSD/clean_cifs/ZIMTAS_clean'
_cell_length_a 18.51530
_cell_length_b 18.51530
_cell_length_c 25.05760
_cell_angle_alpha 90.00000
_cell_angle_beta  90.00000
_cell_angle_gamma 90.00000
_space_group_name_H-M_alt      'P 1'


loop_
_space_group_symop_operation_xyz
  'x, y, z' 

loop_
_atom_site_label
_atom_site_fract_x
_atom_site_fract_y
_atom_site_fract_z
_atom_site_type_symbol
Cl         0.0      0.0      0.0    Cl
Cu         0.0      0.0  0.10161    Cu
Cu         0.0      0.0  0.89839    Cu
Si         0.0      0.5     0.25    Si
Si         0.0      0.5     0.75    Si
C        5e-05  0.28936  0.14668     C
C        5e-05  0.28936  0.85332     C
C      0.00322  0.58257  0.20696     C
C      0.00322  0.58257  0.79304     C
N        0.004  0.11068   0.0972     N
N        0.004  0.11068   0.9028     N
C      0.00646  0.22117  0.11688     C
C      0.00646  0.22117  0.88312     C
N      0.01796  0.84305  0.13408     N
N      0.01796  0.84305  0.86592     N
C      0.03441  0.41304   0.1594     C
C      0.03441  0.41304   0.8406     C
C      0.03606  0.34954  0.12962     C
C      0.03606  0.34954  0.87038     C
C      0.03907  0.70716  0.19337     C
C      0.03907  0.70716  0.80663     C
N      0.04008  0.14582  0.05896     N
N      0.04008  0.14582  0.94104     N
C      0.04039  0.64374   0.2229     C
C      0.04039  0.64374   0.7771     C
N      0.04226  0.21575   0.0706     N
N      0.04226  0.21575   0.9294     N
H       0.0457   0.5597   0.3533     H
H       0.0457   0.5597   0.6467     H
H       0.0597   0.4543   0.1467     H
H       0.0597   0.4543   0.8533     H
H       0.0625    0.348   0.0971     H
H       0.0625    0.348   0.9029     H
H       0.0652   0.7482   0.2054     H
H       0.0652   0.7482   0.7946     H
H       0.0676   0.6423    0.255     H
H       0.0676   0.6423    0.745     H
C      0.08257  0.49678  0.29304     C
C      0.08257  0.49678  0.70696     C
C      0.08696  0.53441   0.3406     C
C      0.08696  0.53441   0.6594     C
Cu     0.09666  0.09666      0.0    Cu
N      0.11068    0.004   0.0972     N
N      0.11068    0.004   0.9028     N
H       0.1423   0.4324    0.245     H
H       0.1423   0.4324    0.755     H
C      0.14374  0.45961   0.2771     C
C      0.14374  0.45961   0.7229     C
N      0.14582  0.04008  0.05896     N
N      0.14582  0.04008  0.94104     N
C      0.15046  0.53606  0.37038     C
C      0.15046  0.53606  0.62962     C
H        0.152   0.5625   0.4029     H
H        0.152   0.5625   0.5971     H
N      0.15695  0.98204  0.13408     N
N      0.15695  0.98204  0.86592     N
C      0.20716  0.46093  0.30663     C
C      0.20716  0.46093  0.69337     C
C      0.21064  0.50005  0.35332     C
C      0.21064  0.50005  0.64668     C
N      0.21575  0.04226   0.0706     N
N      0.21575  0.04226   0.9294     N
C      0.22117  0.00646  0.11688     C
C      0.22117  0.00646  0.88312     C
H       0.2482   0.4348   0.2946     H
H       0.2482   0.4348   0.7054     H
H       0.2518   0.9348   0.2054     H
H       0.2518   0.9348   0.7946     H
C      0.27883  0.50646  0.38312     C
C      0.27883  0.50646  0.61688     C
N      0.28425  0.54226   0.4294     N
N      0.28425  0.54226   0.5706     N
C      0.28936    5e-05  0.14668     C
C      0.28936    5e-05  0.85332     C
C      0.29284  0.96093  0.19337     C
C      0.29284  0.96093  0.80663     C
N      0.34305  0.48204  0.36592     N
N      0.34305  0.48204  0.63408     N
H        0.348   0.0625   0.0971     H
H        0.348   0.0625   0.9029     H
C      0.34954  0.03606  0.12962     C
C      0.34954  0.03606  0.87038     C
N      0.35418  0.54008  0.44104     N
N      0.35418  0.54008  0.55896     N
C      0.35626  0.95961   0.2229     C
C      0.35626  0.95961   0.7771     C
H       0.3577   0.9324    0.255     H
H       0.3577   0.9324    0.745     H
N      0.38932    0.504   0.4028     N
N      0.38932    0.504   0.5972     N
Cu     0.40334  0.59666      0.5    Cu
C      0.41304  0.03441   0.1594     C
C      0.41304  0.03441   0.8406     C
C      0.41743  0.99678  0.20696     C
C      0.41743  0.99678  0.79304     C
H       0.4324   0.1423    0.245     H
H       0.4324   0.1423    0.755     H
H       0.4348   0.2482   0.2946     H
H       0.4348   0.2482   0.7054     H
H       0.4375    0.848   0.4029     H
H       0.4375    0.848   0.5971     H
H       0.4403   0.9543   0.3533     H
H       0.4403   0.9543   0.6467     H
H       0.4543   0.0597   0.1467     H
H       0.4543   0.0597   0.8533     H
N      0.45774  0.71575   0.4294     N
N      0.45774  0.71575   0.5706     N
C      0.45961  0.14374   0.2771     C
C      0.45961  0.14374   0.7229     C
N      0.45992  0.64582  0.44104     N
N      0.45992  0.64582  0.55896     N
C      0.46093  0.20716  0.30663     C
C      0.46093  0.20716  0.69337     C
C      0.46394  0.84954  0.37038     C
C      0.46394  0.84954  0.62962     C
C      0.46559  0.91304   0.3406     C
C      0.46559  0.91304   0.6594     C
N      0.48204  0.34305  0.36592     N
N      0.48204  0.34305  0.63408     N
C      0.49354  0.72117  0.38312     C
C      0.49354  0.72117  0.61688     C
N        0.496  0.61068   0.4028     N
N        0.496  0.61068   0.5972     N
C      0.49678  0.08257  0.29304     C
C      0.49678  0.08257  0.70696     C
C      0.49995  0.78936  0.35332     C
C      0.49995  0.78936  0.64668     C
Si         0.5      0.0     0.25    Si
Si         0.5      0.0     0.75    Si
Cu         0.5      0.5  0.39839    Cu
Cl         0.5      0.5      0.5    Cl
Cu         0.5      0.5  0.60161    Cu
C      0.50005  0.21064  0.35332     C
C      0.50005  0.21064  0.64668     C
C      0.50322  0.91743  0.29304     C
C      0.50322  0.91743  0.70696     C
N        0.504  0.38932   0.4028     N
N        0.504  0.38932   0.5972     N
C      0.50646  0.27883  0.38312     C
C      0.50646  0.27883  0.61688     C
N      0.51796  0.65695  0.36592     N
N      0.51796  0.65695  0.63408     N
C      0.53441  0.08696   0.3406     C
C      0.53441  0.08696   0.6594     C
C      0.53606  0.15046  0.37038     C
C      0.53606  0.15046  0.62962     C
C      0.53907  0.79284  0.30663     C
C      0.53907  0.79284  0.69337     C
N      0.54008  0.35418  0.44104     N
N      0.54008  0.35418  0.55896     N
C      0.54039  0.85626   0.2771     C
C      0.54039  0.85626   0.7229     C
N      0.54226  0.28425   0.4294     N
N      0.54226  0.28425   0.5706     N
H       0.5457   0.9403   0.1467     H
H       0.5457   0.9403   0.8533     H
H       0.5597   0.0457   0.3533     H
H       0.5597   0.0457   0.6467     H
H       0.5625    0.152   0.4029     H
H       0.5625    0.152   0.5971     H
H       0.5652   0.7518   0.2946     H
H       0.5652   0.7518   0.7054     H
H       0.5676   0.8577    0.245     H
H       0.5676   0.8577    0.755     H
C      0.58257  0.00322  0.20696     C
C      0.58257  0.00322  0.79304     C
C      0.58696  0.96559   0.1594     C
C      0.58696  0.96559   0.8406     C
Cu     0.59666  0.40334      0.5    Cu
N      0.61068    0.496   0.4028     N
N      0.61068    0.496   0.5972     N
H       0.6423   0.0676    0.255     H
H       0.6423   0.0676    0.745     H
C      0.64374  0.04039   0.2229     C
C      0.64374  0.04039   0.7771     C
N      0.64582  0.45992  0.44104     N
N      0.64582  0.45992  0.55896     N
C      0.65046  0.96394  0.12962     C
C      0.65046  0.96394  0.87038     C
H        0.652   0.9375   0.0971     H
H        0.652   0.9375   0.9029     H
N      0.65695  0.51796  0.36592     N
N      0.65695  0.51796  0.63408     N
C      0.70716  0.03907  0.19337     C
C      0.70716  0.03907  0.80663     C
C      0.71064  0.99995  0.14668     C
C      0.71064  0.99995  0.85332     C
N      0.71575  0.45774   0.4294     N
N      0.71575  0.45774   0.5706     N
C      0.72117  0.49354  0.38312     C
C      0.72117  0.49354  0.61688     C
H       0.7482   0.0652   0.2054     H
H       0.7482   0.0652   0.7946     H
H       0.7518   0.5652   0.2946     H
H       0.7518   0.5652   0.7054     H
C      0.77883  0.99354  0.11688     C
C      0.77883  0.99354  0.88312     C
N      0.78425  0.95774   0.0706     N
N      0.78425  0.95774   0.9294     N
C      0.78936  0.49995  0.35332     C
C      0.78936  0.49995  0.64668     C
C      0.79284  0.53907  0.30663     C
C      0.79284  0.53907  0.69337     C
N      0.84305  0.01796  0.13408     N
N      0.84305  0.01796  0.86592     N
H        0.848   0.4375   0.4029     H
H        0.848   0.4375   0.5971     H
C      0.84954  0.46394  0.37038     C
C      0.84954  0.46394  0.62962     C
N      0.85418  0.95992  0.05896     N
N      0.85418  0.95992  0.94104     N
C      0.85626  0.54039   0.2771     C
C      0.85626  0.54039   0.7229     C
H       0.8577   0.5676    0.245     H
H       0.8577   0.5676    0.755     H
N      0.88932    0.996   0.0972     N
N      0.88932    0.996   0.9028     N
Cu     0.90334  0.90334      0.0    Cu
C      0.91304  0.46559   0.3406     C
C      0.91304  0.46559   0.6594     C
C      0.91743  0.50322  0.29304     C
C      0.91743  0.50322  0.70696     C
H       0.9324   0.3577    0.255     H
H       0.9324   0.3577    0.745     H
H       0.9348   0.2518   0.2054     H
H       0.9348   0.2518   0.7946     H
H       0.9375    0.652   0.0971     H
H       0.9375    0.652   0.9029     H
H       0.9403   0.5457   0.1467     H
H       0.9403   0.5457   0.8533     H
H       0.9543   0.4403   0.3533     H
H       0.9543   0.4403   0.6467     H
N      0.95774  0.78425   0.0706     N
N      0.95774  0.78425   0.9294     N
C      0.95961  0.35626   0.2229     C
C      0.95961  0.35626   0.7771     C
N      0.95992  0.85418  0.05896     N
N      0.95992  0.85418  0.94104     N
C      0.96093  0.29284  0.19337     C
C      0.96093  0.29284  0.80663     C
C      0.96394  0.65046  0.12962     C
C      0.96394  0.65046  0.87038     C
C      0.96559  0.58696   0.1594     C
C      0.96559  0.58696   0.8406     C
N      0.98204  0.15695  0.13408     N
N      0.98204  0.15695  0.86592     N
C      0.99354  0.77883  0.11688     C
C      0.99354  0.77883  0.88312     C
N        0.996  0.88932   0.0972     N
N        0.996  0.88932   0.9028     N
C      0.99678  0.41743  0.20696     C
C      0.99678  0.41743  0.79304     C
C      0.99995  0.71064  0.14668     C
C      0.99995  0.71064  0.85332     C
