data_I
_chemical_name_common  '/home/zhangsd/repos/MofS-CGCNN/ML/data/SSD/clean_cifs/ZINDAD_clean'
_cell_length_a 26.85500
_cell_length_b 26.85500
_cell_length_c 26.90750
_cell_angle_alpha 60.06450
_cell_angle_beta  60.06450
_cell_angle_gamma 90.00000
_space_group_name_H-M_alt      'P 1'


loop_
_space_group_symop_operation_xyz
  'x, y, z' 

loop_
_atom_site_label
_atom_site_fract_x
_atom_site_fract_y
_atom_site_fract_z
_atom_site_type_symbol
C      0.00066  0.25268  0.25198     C
C      0.00459  0.72449  0.45924     C
H       0.0049   0.6272   0.8632     H
C      0.00599  0.56832  0.25924     C
H       0.0085   0.5747     0.18     H
C      0.01014  0.34942  0.16206     C
C      0.01249  0.24261   0.5115     C
H       0.0138   0.7954    0.466     H
H       0.0207   0.7886   0.7126     H
C      0.02102  0.71195  0.78694     C
H       0.0234   0.3548   0.5244     H
H       0.0244   0.5632    0.326     H
C      0.03123   0.5721   0.1978     C
C      0.03492  0.33214  0.50582     C
C      0.04097  0.56514  0.28518     C
O      0.04272  0.19217   0.3346     O
O      0.04671  0.18571  0.44184     O
N      0.05421  0.43267  0.70032     N
C      0.05477  0.28028  0.23692     C
H       0.0604   0.4227   0.6724     H
N      0.06241  0.74257  0.39974     N
C      0.06335   0.3767  0.14798     C
Zn     0.06344  0.13569  0.40182    Zn
O      0.06777  0.47517  0.07404     O
C      0.06958  0.26724  0.44808     C
H       0.0706   0.7146    0.393     H
N      0.07412  0.73514  0.77832     N
C      0.07828   0.2435  0.27902     C
H       0.0831   0.7084   0.8046     H
O      0.08516   0.5777   0.0755     O
C      0.08651   0.2329  0.41486     C
C      0.08709  0.34179  0.18456     C
C      0.08994  0.57197  0.16308     C
C      0.09191  0.35616  0.44308     C
H       0.0951   0.9396   0.3276     H
C      0.09623  0.44351  0.09452     C
N      0.09637  0.84598  0.34954     N
N      0.09889  0.45928  0.74186     N
C      0.09954  0.56485   0.2507     C
Zn     0.10009  0.56728      0.0    Zn
C      0.10321  0.44692  0.69904     C
N      0.10458  0.83806  0.69144     N
H       0.1076   0.9294    0.607     H
C      0.10763  0.79737  0.35096     C
C      0.10867   0.3236  0.41438     C
O      0.10901  0.11048  0.33566     O
O      0.11048  0.55533  0.33566     O
H       0.1108   0.0244    0.326     H
O      0.11222  0.44727  0.43318     O
H       0.1123    0.487   0.8046     H
C      0.11335  0.79323   0.7348     C
C      0.11651  0.57246   0.0988     C
O      0.11955  0.11222  0.43318     O
H       0.1208   0.0234   0.5244     H
H       0.1238   0.3595    0.174     H
C      0.12469  0.56822  0.18882     C
C      0.13112  0.41915  0.40544     C
O      0.13117  0.26768  0.25602     O
H       0.1319   0.5096   0.8632     H
N      0.13299  0.94579  0.29968     N
C      0.13523  0.55726  0.28114     C
Zn     0.13569  0.53474  0.40182    Zn
O      0.13978   0.2553  0.36092     O
O      0.14181  0.54921  0.92596     O
N      0.14231  0.93759  0.60026     N
C      0.14596  0.89679  0.30096     C
H       0.1464   0.3396   0.3722     H
N      0.14756  0.48654  0.77832     N
C      0.14833  0.89237  0.64904     C
O      0.14877  0.46346  0.07436     O
C      0.14968  0.04097  0.28518     C
C      0.15185  0.47197   0.7348     C
N      0.15402  0.44591  0.65046     N
N      0.15925  0.79886  0.74186     N
O      0.16066   0.6532   0.9245     O
C       0.1616  0.13523  0.28114     C
N      0.16194  0.79602  0.30856     N
C      0.16204  0.03492  0.50582     C
H       0.1643   0.5679   0.1652     H
O      0.16739  0.56529  0.07432     O
C       0.1722  0.51148  0.83794     C
C      0.17244  0.00599  0.25924     C
C      0.17541  0.13112  0.40544     C
O      0.18084   0.4402  0.34742     O
C      0.18373  0.99541  0.54076     C
Zn      0.1844  0.23626  0.28939    Zn
C      0.18445  0.09954   0.2507     C
O      0.18571  0.51145  0.44184     O
O      0.18644   0.5539  0.25004     O
H       0.1885   0.7547     0.82     H
C      0.19075  0.53803  0.90548     C
C      0.19204  0.50111  0.78694     C
O      0.19217  0.62268   0.3346     O
N      0.19552  0.90363  0.65046     N
O      0.19606  0.18644  0.25004     O
C      0.19775  0.85404  0.69904     C
C      0.20076  0.09191  0.44308     C
N      0.20114  0.90111  0.25814     N
C      0.20263  0.45859  0.64904     C
N      0.20398   0.4705  0.69144     N
H       0.2046   0.4798    0.534     H
C      0.20677  0.84815   0.2652     C
Zn      0.2096  0.54965      0.0    Zn
C      0.21133  0.52468  0.85202     C
H       0.2114   0.7333   0.2874     H
O      0.21238  0.18084  0.34742     O
C      0.21531  0.67126   0.9012     C
O      0.22313  0.53782  0.92564     O
C      0.22903   0.7699   0.8022     C
C       0.2301  0.03123   0.1978     C
C       0.2329  0.49863  0.41486     C
Zn     0.23626   0.5262  0.28939    Zn
O      0.24171  0.63961  0.92568     O
C      0.24261  0.47601   0.5115     C
C      0.24296  0.12469  0.18882     C
C       0.2435   0.6427  0.27902     C
H       0.2453   0.0085     0.18     H
N      0.24547  0.86701  0.70032     N
C      0.24589  0.01249   0.5115     C
C      0.25264  0.50466  0.74802     C
C      0.25268  0.74736  0.25198     C
C      0.25302  0.73505  0.83692     C
O       0.2553   0.4993  0.36092     O
N      0.25743  0.46215  0.60026     N
H       0.2614   0.9862    0.534     H
C      0.26202  0.10867  0.41438     C
N      0.26486  0.85244  0.22168     N
C      0.26495  0.08994  0.16308     C
C      0.26523  0.82756  0.74076     C
H       0.2667   0.4988   0.7126     H
H       0.2669   0.1643   0.1652     H
H       0.2672   0.9049   0.6724     H
C      0.26724  0.48234  0.44808     C
O      0.26768  0.61281  0.25602     O
C      0.27165  0.52635  0.81544     C
C      0.27551  0.46383  0.54076     C
C      0.28028  0.70831  0.23692     C
C      0.28468  0.06958  0.44808     C
H       0.2854   0.4636    0.607     H
C      0.28805  0.80796  0.21306     C
H       0.2882   0.1464   0.3722     H
H       0.2916   0.8877   0.1954     H
C      0.29169   0.5172  0.76308     C
H       0.2978   0.5335    0.826     H
C      0.31351  0.75704  0.81118     C
C       0.3236  0.47695  0.41438     C
C      0.32615  0.85032  0.71482     C
C      0.32874  0.11651   0.0988     C
H       0.3295   0.7331   0.8348     H
C      0.33214  0.45926  0.50582     C
H       0.3396   0.4814   0.3722     H
C      0.34179  0.72835  0.18456     C
O       0.3468  0.08516   0.0755     O
C      0.34942   0.8278  0.16206     C
C      0.35024  0.81555   0.7493     C
H       0.3504   0.8892    0.674     H
C      0.35224  0.08651  0.41486     C
H       0.3548   0.4522   0.5244     H
C      0.35616  0.46501  0.44308     C
C       0.3573  0.52252  0.72098     C
H       0.3595   0.7022    0.174     H
O      0.36039  0.16739  0.07432     O
O      0.37245  0.04671  0.44184     O
H       0.3728   0.8681   0.1368     H
C       0.3767  0.78867  0.14798     C
O      0.37732  0.52677   0.6654     O
O      0.38378  0.13978  0.36092     O
O      0.38719   0.5237  0.74398     O
C      0.41637   0.8384  0.71886     C
C      0.41915  0.46344  0.40544     C
O       0.4223  0.16066   0.9245     O
H       0.4227   0.2672   0.6724     H
H       0.4253   0.1885     0.82     H
C      0.42754  0.21531   0.9012     C
C       0.4279  0.22903   0.8022     C
C      0.42803  0.25302  0.83692     C
C      0.43168  0.26523  0.74076     C
C      0.43178  0.31351  0.81118     C
H       0.4321   0.3295   0.8348     H
N      0.43267  0.24547  0.70032     N
Zn     0.43272  0.10009     -0.0    Zn
O      0.43471  0.24171  0.92568     O
C      0.43486  0.32615  0.71482     C
C      0.43515  0.35024   0.7493     C
O      0.43648  0.80394  0.74996     O
H       0.4368   0.3504    0.674     H
O       0.4402  0.47174  0.34742     O
C      0.44274  0.41637  0.71886     C
C      0.44351  0.80925  0.09452     C
O      0.44467  0.44614  0.66434     O
N      0.44591  0.19552  0.65046     N
O       0.4461  0.43648  0.74996     O
O      0.44614  0.89099  0.66434     O
C      0.44692  0.19775  0.69904     C
O      0.44727   0.4546  0.43318     O
Zn     0.45035   0.2096      0.0    Zn
O      0.45079  0.06777  0.07404     O
H       0.4522   0.1208   0.5244     H
O       0.4546  0.11955  0.43318     O
C      0.45859  0.14833  0.64904     C
C      0.45926  0.16204  0.50582     C
N      0.45928  0.15925  0.74186     N
C      0.46197  0.09623  0.09452     C
N      0.46215  0.14231  0.60026     N
O      0.46218  0.14877  0.07436     O
Zn     0.46249  0.06344  0.40182    Zn
C      0.46344  0.17541  0.40544     C
O      0.46346  0.77687  0.07436     O
H       0.4636   0.1076    0.607     H
C      0.46383  0.18373  0.54076     C
C      0.46501  0.20076  0.44308     C
Zn     0.46526  0.53751  0.59818    Zn
H       0.4665   0.1238    0.174     H
N       0.4705  0.10458  0.69144     N
O      0.47174  0.21238  0.34742     O
C      0.47197  0.11335   0.7348     C
O      0.47323  0.04272   0.3346     O
C      0.47365  0.08709  0.18456     C
Zn     0.47379  0.52564  0.71062    Zn
Zn     0.47436  0.18441  0.28938    Zn
O      0.47517  0.85819  0.07404     O
C      0.47532  0.06335  0.14798     C
C      0.47601  0.24589   0.5115     C
O       0.4763  0.13117  0.25602     O
C      0.47695  0.26202  0.41438     C
C      0.47748  0.07828  0.27902     C
H       0.4798   0.2614    0.534     H
H       0.4814   0.2882   0.3722     H
C      0.48234  0.28468  0.44808     C
C       0.4828  0.05477  0.23692     C
N      0.48654  0.07412  0.77832     N
H        0.487   0.0831   0.8046     H
C      0.48852  0.01014  0.16206     C
O      0.48855  0.62755  0.55816     O
H       0.4904   0.9951   0.1368     H
C      0.49534  0.00066  0.25198     C
C      0.49863  0.35224  0.41486     C
H       0.4988   0.0207   0.7126     H
C      0.49889  0.97898  0.21306     C
O       0.4993  0.38378  0.36092     O
O       0.5007  0.61622  0.63908     O
C      0.50111  0.02102  0.78694     C
H       0.5012   0.9793   0.2874     H
C      0.50137  0.64776  0.58514     C
C      0.50466  0.99934  0.74802     C
H       0.5096   0.0049   0.8632     H
O      0.51145  0.37245  0.44184     O
C      0.51148  0.98986  0.83794     C
H        0.513   0.9169   0.1954     H
N      0.51346  0.92588  0.22168     N
C       0.5172  0.94523  0.76308     C
C      0.51766  0.71532  0.55192     C
H       0.5186   0.7118   0.6278     H
H       0.5202   0.7386    0.466     H
C      0.52252  0.92172  0.72098     C
C      0.52305  0.73798  0.58562     C
O       0.5237  0.86883  0.74398     O
C      0.52399  0.75411   0.4885     C
C      0.52468  0.93665  0.85202     C
O      0.52483  0.14181  0.92596     O
Zn     0.52564  0.81559  0.71062    Zn
Zn     0.52621  0.47436  0.28938    Zn
C      0.52635  0.91291  0.81544     C
O      0.52677  0.95728   0.6654     O
C      0.52803  0.88665   0.2652     C
O      0.52826  0.78762  0.65258     O
N       0.5295  0.89542  0.30856     N
H       0.5335   0.8762    0.826     H
Zn     0.53474  0.46249  0.40182    Zn
C      0.53499  0.79924  0.55692     C
C      0.53617  0.81627  0.45924     C
H       0.5364   0.8924    0.393     H
O      0.53654  0.22313  0.92564     O
C      0.53656  0.82459  0.59456     C
Zn     0.53751  0.93656  0.59818    Zn
O      0.53782  0.85123  0.92564     O
N      0.53785  0.85769  0.39974     N
C      0.53803  0.90377  0.90548     C
N      0.54072  0.84075  0.25814     N
C      0.54074  0.83796  0.49418     C
C      0.54141  0.85167  0.35096     C
O       0.5454  0.88045  0.56682     O
H       0.5478   0.8792   0.4756     H
O      0.54921  0.93223  0.92596     O
Zn     0.54965   0.7904      1.0    Zn
O      0.55273   0.5454  0.56682     O
C      0.55308  0.80225  0.30096     C
O      0.55386  0.10901  0.33566     O
O       0.5539  0.56352  0.25004     O
N      0.55409  0.80448  0.34954     N
O      0.55533  0.55386  0.33566     O
C      0.55649  0.19075  0.90548     C
C      0.55726  0.58363  0.28114     C
O       0.5598  0.52826  0.65258     O
H       0.5632   0.6496    0.326     H
O      0.56352  0.19606  0.25004     O
C      0.56485  0.64976   0.2507     C
C      0.56514  0.67385  0.28518     C
O      0.56529  0.75829  0.07432     O
Zn     0.56728  0.89991      0.0    Zn
N      0.56733  0.75453  0.29968     N
H       0.5679   0.6705   0.1652     H
C      0.56822  0.68649  0.18882     C
C      0.56832  0.73477  0.25924     C
C      0.57197  0.74698  0.16308     C
C       0.5721  0.77097   0.1978     C
C      0.57246  0.78469   0.0988     C
H       0.5747   0.8115     0.18     H
H       0.5773   0.7328   0.3276     H
O       0.5777  0.83934   0.0755     O
C      0.58085  0.53656  0.59456     C
C      0.58363   0.1616  0.28114     C
O      0.61281   0.4763  0.25602     O
O      0.61622  0.86022  0.63908     O
O      0.62268  0.47323   0.3346     O
C       0.6233  0.21133  0.85202     C
H       0.6272   0.1319   0.8632     H
O      0.62755  0.95329  0.55816     O
O      0.63961  0.83261  0.92568     O
H       0.6405   0.2978    0.826     H
C       0.6427  0.47748  0.27902     C
C      0.64384  0.53499  0.55692     C
H       0.6452   0.5478   0.4756     H
C      0.64776  0.91349  0.58514     C
H       0.6496   0.1108    0.326     H
C      0.64976  0.18445   0.2507     C
C      0.65058   0.1722  0.83794     C
O       0.6532  0.91484   0.9245     O
C      0.65821  0.27165  0.81544     C
H       0.6604   0.5186   0.6278     H
C      0.66786  0.54074  0.49418     C
H       0.6705   0.2669   0.1652     H
C      0.67126  0.88349   0.9012     C
C      0.67385  0.14968  0.28518     C
C       0.6764  0.52305  0.58562     C
C      0.68649  0.24296  0.18882     C
H       0.7022   0.4665    0.174     H
C      0.70831   0.4828  0.23692     C
H       0.7084   0.1123   0.8046     H
H       0.7118   0.8536   0.6278     H
C      0.71195  0.19204  0.78694     C
H       0.7146   0.5364    0.393     H
C      0.71532  0.93042  0.55192     C
C      0.71972  0.29169  0.76308     C
C      0.72449  0.53617  0.45924     C
C      0.72835  0.47365  0.18456     C
O      0.73232  0.38719  0.74398     O
C      0.73276  0.51766  0.55192     C
H       0.7328   0.0951   0.3276     H
H       0.7331   0.8357   0.8348     H
H       0.7333   0.5012   0.2874     H
C      0.73477  0.17244  0.25924     C
C      0.73505  0.91006  0.83692     C
N      0.73514  0.14756  0.77832     N
C      0.73798  0.89133  0.58562     C
H       0.7386   0.0138    0.466     H
N      0.74257  0.53785  0.39974     N
O       0.7447   0.5007  0.63908     O
C      0.74698  0.26495  0.16308     C
C      0.74732  0.25264  0.74802     C
C      0.74736  0.49534  0.25198     C
C      0.75411  0.98751   0.4885     C
N      0.75453  0.13299  0.29968     N
H       0.7547   0.9915     0.82     H
C       0.7565   0.3573  0.72098     C
C      0.75704  0.87531  0.81118     C
C      0.75739  0.52399   0.4885     C
O      0.75829  0.36039  0.07432     O
Zn     0.76373  0.47379  0.71062    Zn
C       0.7671  0.50137  0.58514     C
C       0.7699  0.96877   0.8022     C
C      0.77097   0.2301   0.1978     C
O      0.77687  0.46218  0.07436     O
C      0.78469  0.32874   0.0988     C
O      0.78762  0.81916  0.65258     O
H       0.7886   0.2667   0.7126     H
C      0.78867  0.47532  0.14798     C
Zn      0.7904  0.45035      0.0    Zn
C      0.79323  0.15185   0.7348     C
H       0.7954   0.5202    0.466     H
N      0.79602   0.5295  0.30856     N
C      0.79737  0.54141  0.35096     C
N      0.79886  0.09889  0.74186     N
C      0.79924  0.90809  0.55692     C
C      0.80225  0.14596  0.30096     C
O      0.80394  0.81356  0.74996     O
N      0.80448  0.09637  0.34954     N
O      0.80783  0.37732   0.6654     O
C      0.80796  0.49889  0.21306     C
C      0.80925  0.46197  0.09452     C
H       0.8115   0.2453     0.18     H
O      0.81356   0.4461  0.74996     O
O      0.81429  0.48855  0.55816     O
C      0.81555  0.90046   0.7493     C
Zn      0.8156  0.76374  0.71061    Zn
C      0.81627  0.00459  0.45924     C
O      0.81916   0.5598  0.65258     O
C      0.82459  0.86888  0.59456     C
C      0.82756  0.99401  0.74076     C
C       0.8278  0.48852  0.16206     C
O      0.83261  0.43471  0.92568     O
H       0.8357   0.4321   0.8348     H
C      0.83796  0.96508  0.49418     C
N      0.83806  0.20398  0.69144     N
C       0.8384  0.86477  0.71886     C
O      0.83934   0.3468   0.0755     O
N      0.84075  0.20114  0.25814     N
N      0.84598  0.55409  0.34954     N
C      0.84815  0.52803   0.2652     C
C      0.85032  0.95903  0.71482     C
O      0.85123  0.53654  0.92564     O
C      0.85167  0.10763  0.35096     C
N      0.85244  0.51346  0.22168     N
H       0.8536   0.6604   0.6278     H
C      0.85404  0.10321  0.69904     C
N      0.85769  0.06241  0.39974     N
O      0.85819  0.45079  0.07404     O
O      0.86022   0.7447  0.63908     O
Zn     0.86431  0.46526  0.59818    Zn
C      0.86477  0.44274  0.71886     C
N      0.86701  0.05421  0.70032     N
H       0.8681   0.4904   0.1368     H
O      0.86883  0.73232  0.74398     O
C      0.86888  0.58085  0.59456     C
C      0.87531  0.43178  0.81118     C
H       0.8762   0.6405    0.826     H
H       0.8792   0.9766   0.4756     H
O      0.88045  0.88778  0.56682     O
C      0.88349  0.42754   0.9012     C
C      0.88665  0.20677   0.2652     C
H       0.8877    0.513   0.1954     H
O      0.88778  0.55273  0.56682     O
H       0.8892   0.9756    0.674     H
O      0.88952  0.44467  0.66434     O
O      0.89099  0.88952  0.66434     O
C      0.89133   0.6764  0.58562     C
C      0.89237  0.20263  0.64904     C
H       0.8924   0.0706    0.393     H
N      0.89542  0.16194  0.30856     N
C      0.89679  0.55308  0.30096     C
Zn     0.89991  0.43272      1.0    Zn
C      0.90046  0.43515   0.7493     C
N      0.90111  0.54072  0.25814     N
N      0.90363  0.15402  0.65046     N
C      0.90377  0.55649  0.90548     C
H       0.9049   0.0604   0.6724     H
C      0.90809  0.64384  0.55692     C
C      0.91006  0.42803  0.83692     C
C      0.91291  0.65821  0.81544     C
C      0.91349   0.7671  0.58514     C
O      0.91484   0.4223   0.9245     O
H       0.9169   0.2916   0.1954     H
C      0.92172   0.7565  0.72098     C
N      0.92588  0.26486  0.22168     N
H       0.9294   0.2854    0.607     H
C      0.93042  0.73276  0.55192     C
O      0.93223  0.52483  0.92596     O
Zn     0.93656  0.86431  0.59818    Zn
C      0.93665   0.6233  0.85202     C
N      0.93759  0.25743  0.60026     N
H       0.9396   0.5773   0.3276     H
C      0.94523  0.71972  0.76308     C
N      0.94579  0.56733  0.29968     N
O      0.95329  0.81429  0.55816     O
O      0.95728  0.80783   0.6654     O
C      0.95903  0.43486  0.71482     C
C      0.96508  0.66786  0.49418     C
C      0.96877   0.4279   0.8022     C
H       0.9756   0.4368    0.674     H
H       0.9766   0.6452   0.4756     H
C      0.97898  0.28805  0.21306     C
H       0.9793   0.2114   0.2874     H
H       0.9862   0.2046    0.534     H
C      0.98751  0.75739   0.4885     C
C      0.98986  0.65058  0.83794     C
H       0.9915   0.4253     0.82     H
C      0.99401  0.43168  0.74076     C
H       0.9951   0.3728   0.1368     H
C      0.99541  0.27551  0.54076     C
C      0.99934  0.74732  0.74802     C
