data_I
_chemical_name_common  '/home/zhangsd/repos/MofS-CGCNN/ML/data/SSD/clean_cifs/ZITWIK_clean'
_cell_length_a 15.69200
_cell_length_b  8.83350
_cell_length_c  9.52900
_cell_angle_alpha 90.00000
_cell_angle_beta  125.56000
_cell_angle_gamma 90.00000
_space_group_name_H-M_alt      'P 1'


loop_
_space_group_symop_operation_xyz
  'x, y, z' 

loop_
_atom_site_label
_atom_site_fract_x
_atom_site_fract_y
_atom_site_fract_z
_atom_site_type_symbol
N          0.0     0.27     0.75     N
N          0.0     0.73     0.25     N
N      0.07724   0.2713   0.7572     N
N      0.07724   0.7287   0.2572     N
N      0.20422   0.0339   0.0846     N
N      0.20422   0.9661   0.5846     N
N      0.20717   0.3989   0.1548     N
N      0.20717   0.6011   0.6548     N
N       0.2487    0.032   0.7163     N
N       0.2487    0.968   0.2163     N
Cd        0.25     0.25      0.0    Cd
Cd        0.25     0.75      0.5    Cd
N       0.2513    0.468   0.2837     N
N       0.2513    0.532   0.7837     N
N      0.29283   0.1011   0.8452     N
N      0.29283   0.8989   0.3452     N
N      0.29578   0.4661   0.9154     N
N      0.29578   0.5339   0.4154     N
N      0.42276   0.2287   0.2428     N
N      0.42276   0.7713   0.7428     N
N          0.5     0.23     0.25     N
N          0.5     0.77     0.75     N
N      0.57724   0.2287   0.2572     N
N      0.57724   0.7713   0.7572     N
N      0.70422   0.4661   0.5846     N
N      0.70422   0.5339   0.0846     N
N      0.70717   0.1011   0.6548     N
N      0.70717   0.8989   0.1548     N
N       0.7487    0.468   0.2163     N
N       0.7487    0.532   0.7163     N
Cd        0.75     0.25      0.5    Cd
Cd        0.75     0.75      0.0    Cd
N       0.7513    0.032   0.7837     N
N       0.7513    0.968   0.2837     N
N      0.79283   0.3989   0.3452     N
N      0.79283   0.6011   0.8452     N
N      0.79578   0.0339   0.4154     N
N      0.79578   0.9661   0.9154     N
N      0.92276   0.2713   0.7428     N
N      0.92276   0.7287   0.2428     N
