data_I
_chemical_name_common  '/home/zhangsd/repos/MofS-CGCNN/ML/data/SSD/clean_cifs/ZOXTIR_clean'
_cell_length_a  9.17350
_cell_length_b 12.95640
_cell_length_c 18.50790
_cell_angle_alpha 72.20160
_cell_angle_beta  75.65100
_cell_angle_gamma 69.26690
_space_group_name_H-M_alt      'P 1'


loop_
_space_group_symop_operation_xyz
  'x, y, z' 

loop_
_atom_site_label
_atom_site_fract_x
_atom_site_fract_y
_atom_site_fract_z
_atom_site_type_symbol
C      0.00114  0.94202   0.8137     C
H       0.0073   0.6589   0.6489     H
O      0.01968  0.59843  0.49581     O
C       0.0198   0.1575   0.2007     C
C      0.02775    0.718   0.7339     C
O      0.02943  0.55324   0.1181     O
N      0.03354  0.03512   0.5954     N
O      0.03418  0.27294   0.9571     O
O      0.05566  0.03216  0.12112     O
C      0.06189  0.13922   0.5706     C
C        0.063   0.6405   0.0783     C
N      0.06346  0.81018   0.7331     N
C       0.0687   0.7788   0.4576     C
N      0.07588  0.30994   0.2039     N
O      0.07732  0.99794  0.76082     O
C        0.092   0.6543   0.6727     C
C       0.1069   0.2322   0.1616     C
C       0.1096   0.9478   0.4184     C
H       0.1139   0.1065   0.4083     H
O      0.11392  0.90157  0.00419     O
C       0.1185   0.6529   0.4795     C
H       0.1437   0.5763   0.6947     H
Er     0.15239  0.08879  0.99491    Er
O      0.16392  0.49794  0.26082     O
H       0.1663    0.687   0.6348     H
N       0.1741   0.8362   0.4502     N
C       0.1905   0.0355   0.4019     C
Zn      0.2014  0.91156  0.66404    Zn
O      0.20894  0.46784  0.37888     O
C       0.2182   0.1405   0.5783     C
Zn       0.223  0.41156  0.16404    Zn
C       0.2269   0.2376   0.0914     C
C      0.22829  0.63922   0.0706     C
Er     0.23609  0.41122  0.50508    Er
C      0.24314  0.44202   0.3137     C
H       0.2452   0.0446     0.35     H
C       0.2509   0.8471   0.0205     C
O      0.26255      0.6   0.4821     O
O      0.26422  0.22706   0.5429     O
H       0.2649    0.012   0.4366     H
H       0.2683   0.8055   0.4639     H
O      0.26866  0.16159  0.05409     O
O      0.28648   0.3173  0.07354     O
H       0.2865    0.512   0.9366     H
O      0.29923  0.05324   0.6181     O
C       0.3051   0.7212   0.0424     C
H       0.3151   0.8411   0.8511     H
O      0.32268   0.8173  0.57354     O
N      0.33594  0.53512   0.0954     N
O      0.34465      0.9   0.0179     O
H       0.3602   0.5446     0.85     H
H       0.3713   0.6065   0.9083     H
C       0.3721   0.5355   0.9019     C
C        0.378   0.3425   0.2993     C
N      0.39326  0.31018   0.2331     N
N      0.41028  0.80994   0.7039     N
H       0.4147   0.9237   0.8053     H
C        0.419   0.8457   0.8273     C
C       0.4441   0.7376   0.5914     C
N       0.4605   0.6638   0.0498     N
H       0.4623   0.3055   0.9639     H
C       0.4758   0.5522   0.0816     C
C      0.47965    0.782   0.7661     C
O      0.48434  0.33841  0.44591     O
H       0.4881    0.813   0.8652     H
C       0.4993   0.7322   0.6616     C
C       0.5007   0.2678   0.3384     C
H       0.5119    0.187   0.1348     H
O      0.51566  0.66159  0.55409     O
C      0.52035    0.218   0.2339     C
C       0.5242   0.4478   0.9184     C
H       0.5377   0.6945   0.0361     H
N       0.5395   0.3362   0.9502     N
C       0.5559   0.2624   0.4086     C
C        0.581   0.1543   0.1727     C
H       0.5853   0.0763   0.1947     H
N      0.58972  0.19006   0.2961     N
N      0.60674  0.68982   0.7669     N
C        0.622   0.6575   0.7007     C
C       0.6279   0.4645   0.0981     C
H       0.6287   0.3935   0.0917     H
H       0.6398   0.4554     0.15     H
O      0.65535      0.1   0.9821     O
N      0.66406  0.46488   0.9046     N
O      0.67732   0.1827  0.42646     O
H       0.6849   0.1589   0.1489     H
C       0.6949   0.2788   0.9576     C
O      0.70077  0.94676   0.3819     O
H       0.7135    0.488   0.0634     H
O      0.71352   0.6827  0.92646     O
O      0.73134  0.83841  0.94591     O
H       0.7317   0.1945   0.5361     H
H       0.7351    0.988   0.5634     H
O      0.73578  0.77294   0.4571     O
O      0.73745      0.4   0.5179     O
C       0.7491   0.1529   0.9795     C
H       0.7548   0.9554     0.65     H
C      0.75686  0.55798   0.6863     C
Er     0.76391  0.58879  0.49491    Er
C      0.77171  0.36078   0.9294     C
C       0.7731   0.7624   0.9086     C
Zn       0.777  0.58844  0.83596    Zn
C       0.7818   0.8595   0.4217     C
O      0.79106  0.53216  0.62112     O
Zn      0.7986  0.08844  0.33596    Zn
C       0.8095   0.9645   0.5981     C
N       0.8259   0.1638   0.5498     N
H       0.8337    0.313   0.3652     H
O      0.83608  0.50206  0.73918     O
Er     0.84761  0.91122  0.00508    Er
H       0.8563   0.4237   0.3053     H
C       0.8815   0.3471   0.5205     C
O      0.88608  0.09843  0.99581     O
H       0.8861   0.8935   0.5917     H
C       0.8904   0.0522   0.5816     C
C       0.8931   0.7678   0.8384     C
C        0.908   0.3457   0.3273     C
O      0.92268  0.00206  0.23918     O
N      0.92412  0.69006   0.7961     N
C       0.9313   0.2212   0.5424     C
N      0.93654  0.18982   0.2669     N
C        0.937   0.3595   0.9217     C
C      0.93811  0.86078   0.4294     C
O      0.94434  0.96784  0.87888     O
O      0.96582  0.72706   0.0429     O
N      0.96646  0.96488   0.4046     N
O      0.97057  0.44676   0.8819     O
C      0.97225    0.282   0.2661     C
C       0.9802   0.8425   0.7993     C
O      0.98032  0.40157  0.50419     O
H       0.9927   0.3411   0.3511     H
C      0.99886  0.05798   0.1863     C
