data_I
_chemical_name_common  '/home/zhangsd/repos/MofS-CGCNN/ML/data/SSD/clean_cifs/ZOXVEP_clean'
_cell_length_a  9.15230
_cell_length_b 12.99430
_cell_length_c 18.42710
_cell_angle_alpha 72.46160
_cell_angle_beta  75.62080
_cell_angle_gamma 69.38020
_space_group_name_H-M_alt      'P 1'


loop_
_space_group_symop_operation_xyz
  'x, y, z' 

loop_
_atom_site_label
_atom_site_fract_x
_atom_site_fract_y
_atom_site_fract_z
_atom_site_type_symbol
C       0.0025   0.9391   0.8123     C
H       0.0064   0.6826   0.6344     H
C       0.0194   0.1586   0.2032     C
O        0.021   0.5991   0.4951     O
C       0.0228   0.7204   0.7304     C
N       0.0263   0.0373   0.5961     N
O        0.031   0.2751   0.9559     O
O       0.0367   0.5503   0.1153     O
O       0.0544   0.0344   0.1224     O
C       0.0563   0.1397   0.5711     C
N        0.063   0.8094   0.7306     N
C       0.0678   0.6391   0.0775     C
C       0.0739   0.7773   0.4565     C
N       0.0781    0.309   0.2074     N
O       0.0795    0.995   0.7592     O
C       0.0847   0.6589   0.6673     C
C       0.1066   0.2331   0.1637     C
H       0.1081   0.5791   0.6891     H
O       0.1152   0.9009   0.0049     O
C       0.1165   0.9448    0.418     C
C       0.1215   0.6522   0.4794     C
H       0.1267   0.0968    0.418     H
Dy     0.15224  0.09032  0.99462    Dy
O       0.1663    0.495   0.2592     O
H       0.1791   0.6759   0.6377     H
N       0.1807   0.8343   0.4491     N
C       0.1983   0.0309   0.4013     C
Co     0.19945  0.91418  0.66312    Co
O       0.2112   0.4656   0.3776     O
C       0.2156   0.1391   0.5775     C
Co     0.22325  0.41418  0.16312    Co
C       0.2239    0.241   0.0928     C
C       0.2329   0.6397   0.0711     C
H       0.2343   0.0509   0.3469     H
Dy     0.23718  0.40968  0.50538    Dy
C       0.2461   0.4391   0.3123     C
C       0.2531   0.8478   0.0206     C
O        0.262   0.2249   0.5441     O
O       0.2653   0.5989   0.4815     O
O       0.2664   0.1667   0.0539     O
H       0.2754   0.8033   0.4625     H
O       0.2818   0.3213   0.0749     O
H       0.2837   0.5008   0.9282     H
H       0.2873   0.0008   0.4282     H
O       0.2977   0.0503   0.6153     O
C       0.3077   0.7227   0.0435     C
O        0.322   0.8213   0.5749     O
H       0.3234   0.8174   0.8656     H
N       0.3403   0.5373   0.0961     N
O       0.3457   0.9011   0.0185     O
H       0.3585   0.5968    0.918     H
H       0.3679   0.5509   0.8469     H
C       0.3695   0.5309   0.9013     C
H       0.3763   0.9209   0.8109     H
C       0.3812   0.3414   0.2968     C
N        0.397   0.3094   0.2306     N
N       0.4055    0.809   0.7074     N
C       0.4109   0.8411   0.8327     C
C       0.4423    0.741   0.5928     C
H       0.4588   0.3033   0.9625     H
N       0.4641   0.6657   0.0509     N
C       0.4736   0.7796   0.7696     C
C       0.4793   0.5552    0.082     C
O        0.487   0.3333   0.4461     O
H       0.4927   0.8241   0.8623     H
C       0.4966   0.7331   0.6637     C
C       0.5034   0.2669   0.3363     C
H       0.5073   0.1759   0.1377     H
O        0.513   0.6667   0.5539     O
C       0.5207   0.4448    0.918     C
C       0.5264   0.2204   0.2304     C
N       0.5359   0.3343   0.9491     N
H       0.5412   0.6967   0.0375     H
C       0.5577    0.259   0.4072     C
C       0.5891   0.1589   0.1673     C
N       0.5945    0.191   0.2926     N
N        0.603   0.6906   0.7694     N
C       0.6188   0.6586   0.7032     C
H       0.6237   0.0791   0.1891     H
C       0.6305   0.4691   0.0987     C
H       0.6321   0.4491   0.1531     H
H       0.6415   0.4032    0.082     H
O       0.6543   0.0989   0.9815     O
N       0.6597   0.4627   0.9039     N
H       0.6766   0.1826   0.1344     H
O        0.678   0.1787   0.4251     O
C       0.6923   0.2773   0.9565     C
O       0.7023   0.9497   0.3847     O
H       0.7127   0.9992   0.5718     H
H       0.7163   0.4992   0.0718     H
O       0.7182   0.6787   0.9251     O
H       0.7246   0.1967   0.5375     H
O       0.7336   0.8333   0.9461     O
O       0.7347   0.4011   0.5185     O
O        0.738   0.7751   0.4559     O
C       0.7469   0.1522   0.9794     C
C       0.7539   0.5609   0.6877     C
Dy     0.76282  0.59032  0.49462    Dy
H       0.7657   0.9491   0.6531     H
C       0.7671   0.3603   0.9289     C
C       0.7761    0.759   0.9072     C
Co     0.77675  0.58582  0.83688    Co
C       0.7844   0.8609   0.4225     C
O       0.7888   0.5344   0.6224     O
Co     0.80055  0.08582  0.33688    Co
C       0.8017   0.9691   0.5987     C
N       0.8193   0.1657   0.5509     N
H       0.8209   0.3241   0.3623     H
O       0.8337    0.505   0.7408     O
Dy     0.84776  0.90968  0.00538    Dy
H       0.8733   0.9032    0.582     H
C       0.8785   0.3478   0.5206     C
C       0.8835   0.0552    0.582     C
O       0.8848   0.0991   0.9951     O
H       0.8919   0.4209   0.3109     H
C       0.8934   0.7669   0.8363     C
C       0.9153   0.3411   0.3327     C
O       0.9205    0.005   0.2408     O
N       0.9219    0.691   0.7926     N
C       0.9261   0.2227   0.5435     C
C       0.9322   0.3609   0.9225     C
N        0.937   0.1906   0.2694     N
C       0.9437   0.8603   0.4289     C
O       0.9456   0.9656   0.8776     O
O       0.9633   0.4497   0.8847     O
O        0.969   0.7249   0.0441     O
N       0.9737   0.9627   0.4039     N
C       0.9772   0.2796   0.2696     C
O        0.979   0.4009   0.5049     O
C       0.9806   0.8414   0.7968     C
H       0.9936   0.3174   0.3656     H
C       0.9975   0.0609   0.1877     C
