data_I
_chemical_name_common  '/home/zhangsd/repos/MofS-CGCNN/ML/data/SSD/clean_cifs/ZOYKEF_clean'
_cell_length_a  9.73000
_cell_length_b 11.75500
_cell_length_c 12.50900
_cell_angle_alpha 62.69800
_cell_angle_beta  71.90600
_cell_angle_gamma 75.29900
_space_group_name_H-M_alt      'P 1'


loop_
_space_group_symop_operation_xyz
  'x, y, z' 

loop_
_atom_site_label
_atom_site_fract_x
_atom_site_fract_y
_atom_site_fract_z
_atom_site_type_symbol
Mn         0.0      0.0      0.0    Mn
Mn         0.0      0.5      0.0    Mn
O       0.0096   0.7803   0.7114     O
C       0.0432   0.6698   0.7125     C
O       0.0456   0.5641   0.8074     O
O       0.0549   0.8586   0.1703     O
H        0.056   0.8495   0.4798     H
O       0.0621   0.6868    0.972     O
C       0.0786   0.7675   0.4803     C
C       0.0845   0.6584   0.5908     C
Mn     0.08646  0.16805  0.13805    Mn
C       0.0885   0.8711   0.2533     C
O       0.1039   0.9748   0.2505     O
C       0.1066   0.7529   0.3708     C
C       0.1254   0.5371   0.5895     C
H        0.127   0.4642   0.6635     H
O       0.1417   0.8705   0.9137     O
C       0.1506    0.632   0.3689     C
C       0.1562   0.7496   0.9658     C
C        0.164   0.5232   0.4795     C
H        0.171   0.6231   0.2952     H
H       0.1811   0.5217   0.1504     H
O       0.2085   0.3803   0.9973     O
O       0.2099   0.4004   0.4858     O
H       0.2549   0.4039   0.4172     H
C       0.2695   0.5546   0.1197     C
C       0.2836   0.6749   0.0213     C
O        0.309    0.189   0.1084     O
C        0.318   0.3039   0.0317     C
O       0.3651   0.3688   0.2735     O
C       0.3885   0.4831   0.1723     C
H       0.3982     0.52   0.8438     H
C       0.4162   0.7239   0.9739     C
H       0.4247   0.8057     0.91     H
H        0.443   0.3219   0.2812     H
C       0.4637   0.3511   0.9767     C
C       0.4782    0.471   0.8771     C
C       0.5218    0.529   0.1229     C
C       0.5363   0.6489   0.0233     C
H        0.557   0.6781   0.7188     H
H       0.5753   0.1943     0.09     H
C       0.5838   0.2761   0.0261     C
H       0.6018     0.48   0.1562     H
C       0.6115   0.5169   0.8277     C
O       0.6349   0.6312   0.7265     O
C        0.682   0.6961   0.9683     C
O        0.691    0.811   0.8916     O
C       0.7164   0.3251   0.9787     C
C       0.7305   0.4454   0.8803     C
H       0.7451   0.5961   0.5828     H
O       0.7901   0.5996   0.5142     O
O       0.7915   0.6197   0.0027     O
H       0.8189   0.4783   0.8496     H
H        0.829   0.3769   0.7048     H
C        0.836   0.4768   0.5205     C
C       0.8438   0.2504   0.0342     C
C       0.8494    0.368   0.6311     C
O       0.8583   0.1295   0.0863     O
H        0.873   0.5358   0.3365     H
C       0.8746   0.4629   0.4105     C
C       0.8934   0.2471   0.6292     C
O       0.8961   0.0252   0.7495     O
C       0.9115   0.1289   0.7467     C
Mn     0.91354  0.83195  0.86195    Mn
C       0.9155   0.3416   0.4092     C
C       0.9214   0.2325   0.5197     C
O       0.9379   0.3132    0.028     O
H        0.944   0.1505   0.5202     H
O       0.9451   0.1414   0.8297     O
O       0.9544   0.4359   0.1926     O
C       0.9568   0.3302   0.2875     C
O       0.9904   0.2197   0.2886     O
