data_I
_chemical_name_common  '/home/zhangsd/repos/MofS-CGCNN/ML/data/SSD/clean_cifs/ZOZKEG_clean'
_cell_length_a 23.60400
_cell_length_b 41.95400
_cell_length_c 11.67500
_cell_angle_alpha 90.00000
_cell_angle_beta  116.90800
_cell_angle_gamma 90.00000
_space_group_name_H-M_alt      'P 1'


loop_
_space_group_symop_operation_xyz
  'x, y, z' 

loop_
_atom_site_label
_atom_site_fract_x
_atom_site_fract_y
_atom_site_fract_z
_atom_site_type_symbol
C       0.0025  0.07495   0.4058     C
C       0.0025  0.92505   0.9058     C
S        0.008  0.27882   0.3754     S
S        0.008  0.72118   0.8754     S
C       0.0083  0.06649   0.2993     C
C       0.0083  0.93351   0.7993     C
C       0.0102   0.3618   0.1248     C
C       0.0102   0.6382   0.6248     C
C        0.012  0.04378   0.8804     C
C        0.012  0.95622   0.3804     C
C       0.0134  0.21665   0.6444     C
C       0.0134  0.78335   0.1444     C
H       0.0168    0.056   0.9507     H
H       0.0168    0.944   0.4507     H
C        0.017  0.34995   0.0236     C
C        0.017  0.65005   0.5236     C
C       0.0173   0.2473   0.1818     C
C       0.0173   0.7527   0.6818     C
H       0.0233   0.2248   0.0361     H
H       0.0233   0.7752   0.5361     H
O       0.0234  0.45674   0.0788     O
O       0.0234  0.54326   0.5788     O
C       0.0272  0.16132   0.3669     C
C       0.0272  0.83868   0.8669     C
C       0.0287  0.24049   0.5822     C
C       0.0287  0.75951   0.0822     C
C        0.029  0.15669   0.2503     C
C        0.029  0.84331   0.7503     C
H       0.0324   0.0684    0.487     H
H       0.0324   0.9316    0.987     H
C       0.0367  0.00177   0.2982     C
C       0.0367  0.99823   0.7982     C
H       0.0407   0.2117   0.7295     H
H       0.0407   0.7883   0.2295     H
C       0.0436  0.01612   0.8998     C
C       0.0436  0.98388   0.3998     C
C       0.0467   0.2336   0.1172     C
C       0.0467   0.7664   0.6172     C
C       0.0513   0.2603   0.3016     C
C       0.0513   0.7397   0.8016     C
O       0.0528  0.29984   0.4753     O
O       0.0528  0.70016   0.9753     O
O       0.0576    0.452   0.3133     O
O       0.0576    0.548   0.8133     O
H       0.0595    0.367   0.3195     H
H       0.0595    0.633   0.8195     H
C       0.0628  0.35895   0.2485     C
C       0.0628  0.64105   0.7485     C
H       0.0656   0.2523   0.6272     H
H       0.0656   0.7477   0.1272     H
H       0.0701   0.0093   0.9829     H
H       0.0701   0.9907   0.4829     H
S       0.0726  0.04053   0.3201     S
S       0.0726  0.95947   0.8201     S
S       0.0727  0.45854  0.21001     S
S       0.0727  0.54146  0.71001     S
H       0.0731   0.4913   0.5474     H
H       0.0731   0.5087   0.0474     H
C       0.0753   0.3356   0.0423     C
C       0.0753   0.6644   0.5423     C
H         0.08   0.1603   0.5583     H
H         0.08   0.8397   0.0583     H
H        0.081    0.328   0.9734     H
H        0.081    0.672   0.4734     H
C       0.0813  0.15746   0.4805     C
C       0.0813  0.84254   0.9805     C
C       0.0862   0.1476   0.2532     C
C       0.0862   0.8524   0.7532     C
H       0.0883   0.1436   0.1769     H
H       0.0883   0.8564   0.6769     H
O       0.0886  0.04584   0.2153     O
O       0.0886  0.95416   0.7153     O
C       0.1001  0.48483   0.6307     C
C       0.1001  0.51517   0.1307     C
C       0.1082  0.49607   0.2355     C
C       0.1082  0.50393   0.7355     C
H       0.1109   0.4289   0.0366     H
H       0.1109   0.5711   0.5366     H
C        0.112   0.2332   0.1748     C
C        0.112   0.7668   0.6748     C
C       0.1151   0.2601   0.3645     C
C       0.1151   0.7399   0.8645     C
C        0.117  0.34491    0.265     C
C        0.117  0.65509    0.765     C
O       0.1194   0.2099   0.9965     O
O       0.1194   0.7901   0.4965     O
O       0.1211  0.04259   0.4493     O
O       0.1211  0.95741   0.9493     O
C        0.122   0.3333    0.165     C
C        0.122   0.6667    0.665     C
H       0.1278   0.4427    0.584     H
H       0.1278   0.5573    0.084     H
C       0.1334   0.4558   0.6526     C
C       0.1334   0.5442   0.1526     C
C       0.1352  0.43341   0.2261     C
C       0.1352  0.56659   0.7261     C
C       0.1365  0.14955   0.4789     C
C       0.1365  0.85045   0.9789     C
H       0.1375   0.2686   0.4466     H
H       0.1375   0.7314   0.9466     H
C       0.1394   0.1446    0.368     C
C       0.1394   0.8554    0.868     C
C       0.1412  0.42323   0.1186     C
C       0.1412  0.57677   0.6186     C
C       0.1446    0.215   0.1074     C
C       0.1446    0.785   0.6074     C
C       0.1457   0.2464   0.2984     C
C       0.1457   0.7536   0.7984     C
C       0.1473  0.49422   0.8598     C
C       0.1473  0.50578   0.3598     C
H       0.1519   0.4931   0.4289     H
H       0.1519   0.5069   0.9289     H
H       0.1595    0.323   0.1791     H
H       0.1595    0.677   0.6791     H
O        0.166   0.3542   0.4923     O
O        0.166   0.6458   0.9923     O
C       0.1724  0.34282      0.4     C
C       0.1724  0.65718      0.9     C
C       0.1745   0.4469   0.7774     C
C       0.1745   0.5531   0.2774     C
H       0.1747   0.4312   0.4175     H
H       0.1747   0.5688   0.9175     H
H       0.1755   0.2002   0.7372     H
H       0.1755   0.7998   0.2372     H
H       0.1779    0.139   0.3694     H
H       0.1779    0.861   0.8694     H
C       0.1798  0.42482   0.3464     C
C       0.1798  0.57518   0.8464     C
C       0.1801  0.46518   0.8815     C
C       0.1801  0.53482   0.3815     C
O       0.1871  0.13786   0.7256     O
O       0.1871  0.86214   0.2256     O
H       0.1898    0.246   0.3375     H
H       0.1898    0.754   0.8375     H
C       0.1923  0.40461   0.1348     C
C       0.1923  0.59539   0.6348     C
H       0.1956   0.3973   0.0629     H
H       0.1956   0.6027   0.5629     H
H        0.201   0.2545   0.7556     H
H        0.201   0.7455   0.2556     H
O       0.2021   0.3997   0.7075     O
O       0.2021   0.6003   0.2075     O
O       0.2031   0.2131   0.1747     O
O       0.2031   0.7869   0.6747     O
C       0.2034  0.20791   0.7076     C
C       0.2034  0.79209   0.2076     C
H       0.2053   0.4582    0.965     H
H       0.2053   0.5418    0.465     H
S      0.20589  0.14746   0.6299     S
S      0.20589  0.85254   0.1299     S
C       0.2135  0.41727   0.8039     C
C       0.2135  0.58273   0.3039     C
C       0.2183  0.24063   0.7178     C
C       0.2183  0.75937   0.2178     C
H       0.2191    0.204    0.134     H
H       0.2191    0.796    0.634     H
O       0.2231  0.33054   0.4065     O
O       0.2231  0.66946   0.9065     O
C         0.23  0.18757   0.6546     C
C         0.23  0.81243   0.1546     C
Mn     0.23149  0.35394  0.68611    Mn
Mn     0.23149  0.64606  0.18611    Mn
C       0.2324  0.40673   0.3646     C
C       0.2324  0.59327   0.8646     C
O       0.2361  0.30488   0.7004     O
O       0.2361  0.69512   0.2004     O
C       0.2385  0.39663   0.2552     C
C       0.2385  0.60337   0.7552     C
O       0.2543  0.41264   0.9169     O
O       0.2543  0.58736   0.4169     O
O       0.2558  0.12917   0.6101     O
O       0.2558  0.87083   0.1101     O
C       0.2582  0.25175   0.6718     C
C       0.2582  0.74825   0.1718     C
H        0.263   0.4014   0.4468     H
H        0.263   0.5986   0.9468     H
C       0.2703  0.28747    0.674     C
C       0.2703  0.71253    0.174     C
C       0.2732  0.19878   0.6161     C
C       0.2732  0.80122   0.1161     C
C       0.2887  0.23003   0.6266     C
C       0.2887  0.76997   0.1266     C
H       0.2921   0.1847   0.5822     H
H       0.2921   0.8153   0.0822     H
C       0.2955  0.37707   0.2758     C
C       0.2955  0.62293   0.7758     C
O       0.3054  0.37176   0.1801     O
O       0.3054  0.62824   0.6801     O
O       0.3113   0.3682   0.6382     O
O       0.3113   0.6318   0.1382     O
O       0.3131  0.29605   0.6473     O
O       0.3131  0.70395   0.1473     O
H       0.3196   0.2371   0.6039     H
H       0.3196   0.7629   0.1039     H
H       0.3199   0.2286   0.4107     H
H       0.3199   0.7714   0.9107     H
Mn     0.32158  0.32838  0.51443    Mn
Mn     0.32158  0.67162  0.01443    Mn
Mn     0.32281  0.37712   0.0132    Mn
Mn     0.32281  0.62288   0.5132    Mn
O       0.3263  0.28765   0.4117     O
O       0.3263  0.71235   0.9117     O
O      0.33195  0.36651   0.3851     O
O      0.33195  0.63349   0.8851     O
O       0.3386  0.37286   0.8433     O
O       0.3386  0.62714   0.3433     O
C       0.3501  0.37815   0.7515     C
C       0.3501  0.62185   0.2515     C
C       0.3508  0.22461    0.384     C
C       0.3508  0.77539    0.884     C
H       0.3554   0.1764   0.4084     H
H       0.3554   0.8236   0.9084     H
C       0.3584  0.28297   0.3535     C
C       0.3584  0.71703   0.8535     C
O       0.3722  0.30364   0.2963     O
O       0.3722  0.69636   0.7963     O
C       0.3729  0.19347   0.3845     C
C       0.3729  0.80653   0.8845     C
C       0.3759  0.24909    0.343     C
C       0.3759  0.75091    0.843     C
H       0.3826   0.3048   0.9044     H
H       0.3826   0.6952   0.4044     H
O       0.3843  0.33685   0.0838     O
O       0.3843  0.66315   0.5838     O
H       0.3857   0.3998   0.5816     H
H       0.3857   0.6002   0.0816     H
O       0.3968  0.40918   0.1144     O
O       0.3968  0.59082   0.6144     O
C       0.4058  0.39712   0.7664     C
C       0.4058  0.60288   0.2664     C
O       0.4072  0.12713   0.3691     O
O       0.4072  0.87287   0.8691     O
H       0.4105   0.2668   0.7998     H
H       0.4105   0.7332   0.2998     H
Mn     0.41077  0.35071  0.33268    Mn
Mn     0.41077  0.64929  0.83268    Mn
C        0.415  0.40624   0.6634     C
C        0.415  0.59376   0.1634     C
C       0.4198  0.29322   0.9496     C
C       0.4198  0.70678   0.4496     C
C         0.42   0.1885   0.3498     C
C         0.42   0.8115   0.8498     C
O       0.4211  0.33111   0.6309     O
O       0.4211  0.66889   0.1309     O
C       0.4233  0.24251   0.3059     C
C       0.4233  0.75749   0.8059     C
C       0.4333  0.41508   0.2321     C
C       0.4333  0.58492   0.7321     C
C       0.4349  0.32436   0.1362     C
C       0.4349  0.67564   0.6362     C
C       0.4359   0.2704   0.8869     C
C       0.4359   0.7296   0.3869     C
O       0.4397  0.39848   0.3246     O
O       0.4397  0.60152   0.8246     O
H       0.4404   0.2593   0.2795     H
H       0.4404   0.7407   0.7795     H
H       0.4413   0.4579   0.0727     H
H       0.4413   0.5421   0.5727     H
C       0.4448  0.21296   0.3069     C
C       0.4448  0.78704   0.8069     C
H        0.446   0.4002   0.9624     H
H        0.446   0.5998   0.4624     H
O       0.4489  0.20871   0.7774     O
O       0.4489  0.79129   0.2774     O
C       0.4509  0.40648   0.8909     C
C       0.4509  0.59352   0.3909     C
S      0.45295  0.14949   0.3683     S
S      0.45295  0.85051   0.8683     S
C       0.4574  0.29986   0.0797     C
C       0.4574  0.70014   0.5797     C
C       0.4658  0.42454   0.6767     C
C       0.4658  0.57546   0.1767     C
C       0.4671  0.46452   0.1564     C
C       0.4671  0.53548   0.6564     C
C         0.47  0.33999   0.6248     C
C         0.47  0.66001   0.1248     C
H       0.4713   0.4306   0.6058     H
H       0.4713   0.5694   0.1058     H
C       0.4715  0.44537   0.2554     C
C       0.4715  0.55463   0.7554     C
H       0.4725   0.1287   0.6136     H
H       0.4725   0.8713   0.1136     H
O       0.4728   0.3317   0.2589     O
O       0.4728   0.6683   0.7589     O
H       0.4731   0.2522   0.6439     H
H       0.4731   0.7478   0.1439     H
H       0.4756    0.209   0.2796     H
H       0.4756    0.791   0.7796     H
O       0.4758  0.34593   0.5255     O
O       0.4758  0.65407   0.0255     O
O       0.4771    0.147    0.273     O
O       0.4771    0.853    0.773     O
H       0.4893    0.333   0.8677     H
H       0.4893    0.667   0.3677     H
C         0.49  0.25271   0.9533     C
C         0.49  0.74729   0.4533     C
H       0.4935   0.4953   0.6044     H
H       0.4935   0.5047   0.1044     H
C        0.498  0.49221    0.174     C
C        0.498  0.50779    0.674     C
C       0.5025  0.42505   0.9058     C
C       0.5025  0.57495   0.4058     C
S        0.508  0.22118   0.8754     S
S        0.508  0.77882   0.3754     S
C       0.5083  0.43351   0.7993     C
C       0.5083  0.56649   0.2993     C
C       0.5102   0.1382   0.6248     C
C       0.5102   0.8618   0.1248     C
C        0.512  0.45622   0.3804     C
C        0.512  0.54378   0.8804     C
C       0.5134  0.28335   0.1444     C
C       0.5134  0.71665   0.6444     C
H       0.5168    0.444   0.4507     H
H       0.5168    0.556   0.9507     H
C        0.517  0.15005   0.5236     C
C        0.517  0.84995   0.0236     C
C       0.5173   0.2527   0.6818     C
C       0.5173   0.7473   0.1818     C
H       0.5233   0.2752   0.5361     H
H       0.5233   0.7248   0.0361     H
O       0.5234  0.04326   0.5788     O
O       0.5234  0.95674   0.0788     O
C       0.5272  0.33868   0.8669     C
C       0.5272  0.66132   0.3669     C
C       0.5287  0.25951   0.0822     C
C       0.5287  0.74049   0.5822     C
C        0.529  0.34331   0.7503     C
C        0.529  0.65669   0.2503     C
H       0.5324   0.4316    0.987     H
H       0.5324   0.5684    0.487     H
C       0.5367  0.49823   0.7982     C
C       0.5367  0.50177   0.2982     C
H       0.5407   0.2883   0.2295     H
H       0.5407   0.7117   0.7295     H
C       0.5436  0.48388   0.3998     C
C       0.5436  0.51612   0.8998     C
C       0.5467   0.2664   0.6172     C
C       0.5467   0.7336   0.1172     C
C       0.5513   0.2397   0.8016     C
C       0.5513   0.7603   0.3016     C
O       0.5528  0.20016   0.9753     O
O       0.5528  0.79984   0.4753     O
O       0.5576    0.048   0.8133     O
O       0.5576    0.952   0.3133     O
H       0.5595    0.133   0.8195     H
H       0.5595    0.867   0.3195     H
C       0.5628  0.14105   0.7485     C
C       0.5628  0.85895   0.2485     C
H       0.5656   0.2477   0.1272     H
H       0.5656   0.7523   0.6272     H
H       0.5701   0.4907   0.4829     H
H       0.5701   0.5093   0.9829     H
S       0.5726  0.45947   0.8201     S
S       0.5726  0.54053   0.3201     S
S       0.5727  0.04146  0.71001     S
S       0.5727  0.95854  0.21001     S
H       0.5731   0.0087   0.0474     H
H       0.5731   0.9913   0.5474     H
C       0.5753   0.1644   0.5423     C
C       0.5753   0.8356   0.0423     C
H         0.58   0.3397   0.0583     H
H         0.58   0.6603   0.5583     H
H        0.581    0.172   0.4734     H
H        0.581    0.828   0.9734     H
C       0.5813  0.34254   0.9805     C
C       0.5813  0.65746   0.4805     C
C       0.5862   0.3524   0.7532     C
C       0.5862   0.6476   0.2532     C
H       0.5883   0.3564   0.6769     H
H       0.5883   0.6436   0.1769     H
O       0.5886  0.45416   0.7153     O
O       0.5886  0.54584   0.2153     O
C       0.6001  0.01517   0.1307     C
C       0.6001  0.98483   0.6307     C
C       0.6082  0.00393   0.7355     C
C       0.6082  0.99607   0.2355     C
H       0.6109   0.0711   0.5366     H
H       0.6109   0.9289   0.0366     H
C        0.612   0.2668   0.6748     C
C        0.612   0.7332   0.1748     C
C       0.6151   0.2399   0.8645     C
C       0.6151   0.7601   0.3645     C
C        0.617  0.15509    0.765     C
C        0.617  0.84491    0.265     C
O       0.6194   0.2901   0.4965     O
O       0.6194   0.7099   0.9965     O
O       0.6211  0.45741   0.9493     O
O       0.6211  0.54259   0.4493     O
C        0.622   0.1667    0.665     C
C        0.622   0.8333    0.165     C
H       0.6278   0.0573    0.084     H
H       0.6278   0.9427    0.584     H
C       0.6334   0.0442   0.1526     C
C       0.6334   0.9558   0.6526     C
C       0.6352  0.06659   0.7261     C
C       0.6352  0.93341   0.2261     C
C       0.6365  0.35045   0.9789     C
C       0.6365  0.64955   0.4789     C
H       0.6375   0.2314   0.9466     H
H       0.6375   0.7686   0.4466     H
C       0.6394   0.3554    0.868     C
C       0.6394   0.6446    0.368     C
C       0.6412  0.07677   0.6186     C
C       0.6412  0.92323   0.1186     C
C       0.6446    0.285   0.6074     C
C       0.6446    0.715   0.1074     C
C       0.6457   0.2536   0.7984     C
C       0.6457   0.7464   0.2984     C
C       0.6473  0.00578   0.3598     C
C       0.6473  0.99422   0.8598     C
H       0.6519   0.0069   0.9289     H
H       0.6519   0.9931   0.4289     H
H       0.6595    0.177   0.6791     H
H       0.6595    0.823   0.1791     H
O        0.666   0.1458   0.9923     O
O        0.666   0.8542   0.4923     O
C       0.6724  0.15718      0.9     C
C       0.6724  0.84282      0.4     C
C       0.6745   0.0531   0.2774     C
C       0.6745   0.9469   0.7774     C
H       0.6747   0.0688   0.9175     H
H       0.6747   0.9312   0.4175     H
H       0.6755   0.2998   0.2372     H
H       0.6755   0.7002   0.7372     H
H       0.6779    0.361   0.8694     H
H       0.6779    0.639   0.3694     H
C       0.6798  0.07518   0.8464     C
C       0.6798  0.92482   0.3464     C
C       0.6801  0.03482   0.3815     C
C       0.6801  0.96518   0.8815     C
O       0.6871  0.36214   0.2256     O
O       0.6871  0.63786   0.7256     O
H       0.6898    0.254   0.8375     H
H       0.6898    0.746   0.3375     H
C       0.6923  0.09539   0.6348     C
C       0.6923  0.90461   0.1348     C
H       0.6956   0.1027   0.5629     H
H       0.6956   0.8973   0.0629     H
H        0.701   0.2455   0.2556     H
H        0.701   0.7545   0.7556     H
O       0.7021   0.1003   0.2075     O
O       0.7021   0.8997   0.7075     O
O       0.7031   0.2869   0.6747     O
O       0.7031   0.7131   0.1747     O
C       0.7034  0.29209   0.2076     C
C       0.7034  0.70791   0.7076     C
H       0.7053   0.0418    0.465     H
H       0.7053   0.9582    0.965     H
S      0.70589  0.35254   0.1299     S
S      0.70589  0.64746   0.6299     S
C       0.7135  0.08273   0.3039     C
C       0.7135  0.91727   0.8039     C
C       0.7183  0.25937   0.2178     C
C       0.7183  0.74063   0.7178     C
H       0.7191    0.296    0.634     H
H       0.7191    0.704    0.134     H
O       0.7231  0.16946   0.9065     O
O       0.7231  0.83054   0.4065     O
C         0.73  0.31243   0.1546     C
C         0.73  0.68757   0.6546     C
Mn     0.73149  0.14606  0.18611    Mn
Mn     0.73149  0.85394  0.68611    Mn
C       0.7324  0.09327   0.8646     C
C       0.7324  0.90673   0.3646     C
O       0.7361  0.19512   0.2004     O
O       0.7361  0.80488   0.7004     O
C       0.7385  0.10337   0.7552     C
C       0.7385  0.89663   0.2552     C
O       0.7543  0.08736   0.4169     O
O       0.7543  0.91264   0.9169     O
O       0.7558  0.37083   0.1101     O
O       0.7558  0.62917   0.6101     O
C       0.7582  0.24825   0.1718     C
C       0.7582  0.75175   0.6718     C
H        0.763   0.0986   0.9468     H
H        0.763   0.9014   0.4468     H
C       0.7703  0.21253    0.174     C
C       0.7703  0.78747    0.674     C
C       0.7732  0.30122   0.1161     C
C       0.7732  0.69878   0.6161     C
C       0.7887  0.26997   0.1266     C
C       0.7887  0.73003   0.6266     C
H       0.7921   0.3153   0.0822     H
H       0.7921   0.6847   0.5822     H
C       0.7955  0.12293   0.7758     C
C       0.7955  0.87707   0.2758     C
O       0.8054  0.12824   0.6801     O
O       0.8054  0.87176   0.1801     O
O       0.8113   0.1318   0.1382     O
O       0.8113   0.8682   0.6382     O
O       0.8131  0.20395   0.1473     O
O       0.8131  0.79605   0.6473     O
H       0.8196   0.2629   0.1039     H
H       0.8196   0.7371   0.6039     H
H       0.8199   0.2714   0.9107     H
H       0.8199   0.7286   0.4107     H
Mn     0.82158  0.17162  0.01443    Mn
Mn     0.82158  0.82838  0.51443    Mn
Mn     0.82281  0.12288   0.5132    Mn
Mn     0.82281  0.87712   0.0132    Mn
O       0.8263  0.21235   0.9117     O
O       0.8263  0.78765   0.4117     O
O      0.83195  0.13349   0.8851     O
O      0.83195  0.86651   0.3851     O
O       0.8386  0.12714   0.3433     O
O       0.8386  0.87286   0.8433     O
C       0.8501  0.12185   0.2515     C
C       0.8501  0.87815   0.7515     C
C       0.8508  0.27539    0.884     C
C       0.8508  0.72461    0.384     C
H       0.8554   0.3236   0.9084     H
H       0.8554   0.6764   0.4084     H
C       0.8584  0.21703   0.8535     C
C       0.8584  0.78297   0.3535     C
O       0.8722  0.19636   0.7963     O
O       0.8722  0.80364   0.2963     O
C       0.8729  0.30653   0.8845     C
C       0.8729  0.69347   0.3845     C
C       0.8759  0.25091    0.843     C
C       0.8759  0.74909    0.343     C
H       0.8826   0.1952   0.4044     H
H       0.8826   0.8048   0.9044     H
O       0.8843  0.16315   0.5838     O
O       0.8843  0.83685   0.0838     O
H       0.8857   0.1002   0.0816     H
H       0.8857   0.8998   0.5816     H
O       0.8968  0.09082   0.6144     O
O       0.8968  0.90918   0.1144     O
C       0.9058  0.10288   0.2664     C
C       0.9058  0.89712   0.7664     C
O       0.9072  0.37287   0.8691     O
O       0.9072  0.62713   0.3691     O
H       0.9105   0.2332   0.2998     H
H       0.9105   0.7668   0.7998     H
Mn     0.91077  0.14929  0.83268    Mn
Mn     0.91077  0.85071  0.33268    Mn
C        0.915  0.09376   0.1634     C
C        0.915  0.90624   0.6634     C
C       0.9198  0.20678   0.4496     C
C       0.9198  0.79322   0.9496     C
C         0.92   0.3115   0.8498     C
C         0.92   0.6885   0.3498     C
O       0.9211  0.16889   0.1309     O
O       0.9211  0.83111   0.6309     O
C       0.9233  0.25749   0.8059     C
C       0.9233  0.74251   0.3059     C
C       0.9333  0.08492   0.7321     C
C       0.9333  0.91508   0.2321     C
C       0.9349  0.17564   0.6362     C
C       0.9349  0.82436   0.1362     C
C       0.9359   0.2296   0.3869     C
C       0.9359   0.7704   0.8869     C
O       0.9397  0.10152   0.8246     O
O       0.9397  0.89848   0.3246     O
H       0.9404   0.2407   0.7795     H
H       0.9404   0.7593   0.2795     H
H       0.9413   0.0421   0.5727     H
H       0.9413   0.9579   0.0727     H
C       0.9448  0.28704   0.8069     C
C       0.9448  0.71296   0.3069     C
H        0.946   0.0998   0.4624     H
H        0.946   0.9002   0.9624     H
O       0.9489  0.29129   0.2774     O
O       0.9489  0.70871   0.7774     O
C       0.9509  0.09352   0.3909     C
C       0.9509  0.90648   0.8909     C
S      0.95295  0.35051   0.8683     S
S      0.95295  0.64949   0.3683     S
C       0.9574  0.20014   0.5797     C
C       0.9574  0.79986   0.0797     C
C       0.9658  0.07546   0.1767     C
C       0.9658  0.92454   0.6767     C
C       0.9671  0.03548   0.6564     C
C       0.9671  0.96452   0.1564     C
C         0.97  0.16001   0.1248     C
C         0.97  0.83999   0.6248     C
H       0.9713   0.0694   0.1058     H
H       0.9713   0.9306   0.6058     H
C       0.9715  0.05463   0.7554     C
C       0.9715  0.94537   0.2554     C
H       0.9725   0.3713   0.1136     H
H       0.9725   0.6287   0.6136     H
O       0.9728   0.1683   0.7589     O
O       0.9728   0.8317   0.2589     O
H       0.9731   0.2478   0.1439     H
H       0.9731   0.7522   0.6439     H
H       0.9756    0.291   0.7796     H
H       0.9756    0.709   0.2796     H
O       0.9758  0.15407   0.0255     O
O       0.9758  0.84593   0.5255     O
O       0.9771    0.353    0.773     O
O       0.9771    0.647    0.273     O
H       0.9893    0.167   0.3677     H
H       0.9893    0.833   0.8677     H
C         0.99  0.24729   0.4533     C
C         0.99  0.75271   0.9533     C
H       0.9935   0.0047   0.1044     H
H       0.9935   0.9953   0.6044     H
C        0.998  0.00779    0.674     C
C        0.998  0.99221    0.174     C
