data_I
_chemical_name_common  'val_37'
_cell_length_a 26.56501
_cell_length_b 21.09491
_cell_length_c 26.94121
_cell_angle_alpha 90.00000
_cell_angle_beta  100.63450
_cell_angle_gamma 90.00000
_space_group_name_H-M_alt      'P 1'


loop_
_space_group_symop_operation_xyz
  'x, y, z' 

loop_
_atom_site_label
_atom_site_fract_x
_atom_site_fract_y
_atom_site_fract_z
_atom_site_type_symbol
H       0.0163   0.2426    0.072     H
H       0.0163   0.2574    0.572     H
C      0.01984  0.15144  0.09624     C
C      0.01984  0.34864  0.59624     C
C      0.03584  0.63834  0.41314     C
C      0.03584  0.86174  0.91314     C
C      0.03874  0.21044  0.08524     C
C      0.03874  0.28964  0.58524     C
H        0.041    0.066   0.1236     H
H        0.041    0.434   0.6236     H
O      0.05352  0.58604  0.40102     O
O      0.05352  0.91404  0.90102     O
C      0.05364  0.10514  0.11554     C
C      0.05364  0.39494  0.61554     C
O      0.06732  0.68004  0.43522     O
O      0.06732  0.82004  0.93522     O
C      0.09034  0.22054  0.09394     C
C      0.09034  0.27954  0.59394     C
H        0.103   0.2399   0.5872     H
H        0.103   0.2601   0.0872     H
C      0.10434  0.11424  0.12334     C
C      0.10434  0.38584  0.62334     C
H       0.1166    0.548   0.7722     H
H       0.1166    0.952   0.2722     H
O      0.11832  0.56494  0.50532     O
O      0.11832  0.93514  0.00532     O
H       0.1189    0.001   0.3164     H
H       0.1189    0.499   0.8164     H
C      0.12372  0.17294  0.11244     C
C      0.12372  0.32714  0.61244     C
H       0.1247    0.524   0.5968     H
H       0.1247    0.976   0.0968     H
H       0.1265   0.0815   0.1358     H
H       0.1265   0.4185   0.6358     H
H       0.1307   0.2163   0.2139     H
H       0.1307   0.2837   0.7139     H
In    0.132732 0.610073 0.431852    In
In    0.132732 0.889933 0.931852    In
H       0.1368   0.7149   0.2879     H
H       0.1368   0.7851   0.7879     H
C      0.13694  0.53244  0.80304     C
C      0.13694  0.96764  0.30304     C
H       0.1419   0.7045   0.7307     H
H       0.1419   0.7955   0.2307     H
C      0.14264  0.55804  0.61364     C
C      0.14264  0.94204  0.11364     C
H       0.1435   0.5663   0.8271     H
H       0.1435   0.9337   0.3271     H
C      0.14394  0.60744  0.52934     C
C      0.14394  0.89264  0.02934     C
O      0.14402  0.51402  0.39682     O
O      0.14402  0.98602  0.89682     O
H       0.1462   0.5219    0.683     H
H       0.1462   0.9781    0.183     H
O      0.14692  0.65914  0.36864     O
O      0.14692  0.84094  0.86864     O
C      0.15544  0.60824  0.58624     C
C      0.15544  0.89184  0.08624     C
C      0.15554  0.55654  0.66534     C
C      0.15554  0.94354  0.16534     C
C      0.15914  0.74864  0.29744     C
C      0.15914  0.75144  0.79744     C
H       0.1621   0.0943   0.0512     H
H       0.1621   0.4057   0.5512     H
C      0.16244  0.70374  0.76274     C
C      0.16244  0.79634  0.26274     C
O      0.16452  0.65112  0.50682     O
O      0.16452  0.84892  0.00682     O
C      0.16744  0.21594  0.22344     C
C      0.16744  0.28414  0.72344     C
H       0.1741   0.5341   0.2772     H
H       0.1741   0.9659   0.7772     H
H       0.1744   0.0827   0.8539     H
H       0.1744   0.4173   0.3539     H
H        0.177   0.2297   0.2578     H
H        0.177   0.2703   0.7578     H
N      0.17702  0.18274  0.12054     N
N      0.17702  0.31734  0.62054     N
H       0.1799   0.1737   0.2201     H
H       0.1799   0.3263   0.7201     H
C      0.18214  0.60584  0.69114     C
C      0.18214  0.89424  0.19114     C
C      0.18224  0.70274  0.38485     C
C      0.18224  0.79734  0.88485     C
C      0.18274  0.65884  0.61224     C
C      0.18274  0.84124  0.11224     C
H       0.1869   0.0749   0.3307     H
H       0.1869   0.4251   0.8307     H
C      0.18734  0.50724  0.79234     C
C      0.18734  0.99284  0.29234     C
C      0.18804  0.74974  0.34584     C
C      0.18804  0.75034  0.84584     C
C      0.19004  0.24024  0.68964     C
C      0.19004  0.25984  0.18964     C
C      0.19044  0.51494  0.41774     C
C      0.19044  0.98514  0.91774     C
H       0.1916   0.0576    0.735     H
H       0.1916   0.4424    0.235     H
H       0.1918   0.6934   0.5943     H
H       0.1918   0.8066   0.0943     H
H       0.1944   0.2462   0.0407     H
H       0.1944   0.2538   0.5407     H
C      0.19454  0.09094  0.07114     C
C      0.19454  0.40914  0.57114     C
C      0.19574  0.65764  0.66334     C
C      0.19574  0.84244  0.16334     C
C      0.19652  0.24354  0.14064     C
C      0.19652  0.25654  0.64064     C
C      0.19774  0.65374  0.77714     C
C      0.19774  0.84634  0.27714     C
N      0.19824  0.60224  0.74382     N
N      0.19824  0.89784  0.24382     N
H       0.2004   0.5968   0.2641     H
H       0.2004   0.9032   0.7641     H
H       0.2033   0.1682   0.7398     H
H       0.2033   0.3318   0.2398     H
C      0.20544  0.05164  0.31094     C
C      0.20544  0.44844  0.81094     C
O      0.20604  0.70224  0.42792     O
O      0.20604  0.79784  0.92792     O
C      0.20644  0.55504  0.27794     C
C      0.20644  0.94504  0.77794     C
C      0.20774  0.18054  0.70774     C
C      0.20774  0.31954  0.20774     C
C      0.20784  0.08504  0.87194     C
C      0.20784  0.41504  0.37194     C
O      0.20812  0.56022  0.44632     O
O      0.20812  0.93982  0.94632     O
C      0.21084  0.13544  0.11074     C
C      0.21084  0.36464  0.61074     C
H       0.2137   0.6914   0.6802     H
H       0.2137   0.8086   0.1802     H
H       0.2151   0.0143   0.0376     H
H       0.2151   0.4857   0.5376     H
C      0.21564  0.54044  0.76334     C
C      0.21564  0.95964  0.26334     C
C      0.21974  0.21704  0.60994     C
C      0.21974  0.28304  0.10994     C
C      0.22214  0.04104  0.72824     C
C      0.22214  0.45904  0.22824     C
H       0.2233   0.6945   0.4578     H
H       0.2233   0.8055   0.9578     H
C      0.22364  0.70194  0.85864     C
C      0.22364  0.79814  0.35864     C
H       0.2245   0.5578   0.3121     H
H       0.2245   0.9422   0.8121     H
C      0.22474  0.03924  0.90944     C
C      0.22474  0.46084  0.40944     C
C      0.22514  0.23364  0.55774     C
C      0.22514  0.26644  0.05774     C
C      0.22644  0.04404  0.06274     C
C      0.22644  0.45604  0.56274     C
H       0.2279   0.1633   0.8361     H
H       0.2279   0.3367   0.3361     H
C      0.22834  0.65464  0.82464     C
C      0.22834  0.84544  0.32464     C
H       0.2309   0.1957   0.5398     H
H       0.2309   0.3043   0.0398     H
C      0.23174  0.13924  0.67934     C
C      0.23174  0.36084  0.17934     C
C      0.23724  0.15814  0.63114     C
C      0.23724  0.34194  0.13114     C
C      0.23764  0.51794  0.24714     C
C      0.23764  0.98214  0.74714     C
C      0.23934  0.13344  0.86114     C
C      0.23934  0.36664  0.36114     C
H       0.2443   0.7014   0.8904     H
H       0.2443   0.7986   0.3904     H
H       0.2464   0.2381   0.9413     H
H       0.2464   0.2619   0.4413     H
H       0.2468   0.1305   0.3881     H
H       0.2468   0.3695   0.8881     H
H       0.2475   0.6228   0.1664     H
H       0.2475   0.8772   0.6664     H
C      0.24934  0.07624  0.69984     C
C      0.24934  0.42384  0.19984     C
C      0.25074  0.07624  0.30024     C
C      0.25074  0.42384  0.80024     C
H       0.2525   0.6228   0.8336     H
H       0.2525   0.8772   0.3336     H
H       0.2532   0.1305   0.6119     H
H       0.2532   0.3695   0.1119     H
H       0.2536   0.2381   0.0587     H
H       0.2536   0.2619   0.5587     H
H       0.2557   0.7014   0.1096     H
H       0.2557   0.7986   0.6096     H
C      0.26074  0.13344  0.13894     C
C      0.26074  0.36664  0.63894     C
C      0.26244  0.51794  0.75294     C
C      0.26244  0.98214  0.25294     C
C      0.26284  0.15814  0.36894     C
C      0.26284  0.34194  0.86894     C
C      0.26834  0.13924  0.32074     C
C      0.26834  0.36084  0.82074     C
H       0.2691   0.1957   0.4602     H
H       0.2691   0.3043   0.9602     H
C      0.27174  0.65464  0.17544     C
C      0.27174  0.84544  0.67544     C
H       0.2721   0.1633   0.1639     H
H       0.2721   0.3367   0.6639     H
C      0.27364  0.04404  0.93734     C
C      0.27364  0.45604  0.43734     C
C      0.27494  0.23364  0.44234     C
C      0.27494  0.26644  0.94234     C
C      0.27534  0.03924  0.09064     C
C      0.27534  0.46084  0.59064     C
H       0.2755   0.5578   0.6879     H
H       0.2755   0.9422   0.1879     H
C      0.27644  0.70194  0.14144     C
C      0.27644  0.79814  0.64144     C
H       0.2767   0.6945   0.5422     H
H       0.2767   0.8055   0.0422     H
C      0.27794  0.04104  0.27184     C
C      0.27794  0.45904  0.77184     C
C      0.28034  0.21704  0.39014     C
C      0.28034  0.28304  0.89014     C
C      0.28444  0.54044  0.23674     C
C      0.28444  0.95964  0.73674     C
H       0.2849   0.0143   0.9624     H
H       0.2849   0.4857   0.4624     H
H       0.2863   0.6914   0.3198     H
H       0.2863   0.8086   0.8198     H
C      0.28924  0.13544  0.88934     C
C      0.28924  0.36464  0.38934     C
O      0.29192  0.56022  0.55372     O
O      0.29192  0.93982  0.05372     O
C      0.29224  0.08504  0.12814     C
C      0.29224  0.41504  0.62814     C
C      0.29234  0.18054  0.29234     C
C      0.29234  0.31954  0.79234     C
C      0.29364  0.55504  0.72214     C
C      0.29364  0.94504  0.22214     C
O      0.29404  0.70224  0.57212     O
O      0.29404  0.79784  0.07212     O
C      0.29464  0.05164  0.68914     C
C      0.29464  0.44844  0.18914     C
H       0.2967   0.1682   0.2602     H
H       0.2967   0.3318   0.7602     H
H       0.2996   0.5968   0.7359     H
H       0.2996   0.9032   0.2359     H
N      0.30184  0.60224  0.25622     N
N      0.30184  0.89784  0.75622     N
C      0.30234  0.65374  0.22294     C
C      0.30234  0.84634  0.72294     C
C      0.30352  0.24354  0.85944     C
C      0.30352  0.25654  0.35944     C
C      0.30434  0.65764  0.33674     C
C      0.30434  0.84244  0.83674     C
C      0.30554  0.09094  0.92894     C
C      0.30554  0.40914  0.42894     C
H       0.3056   0.2462   0.9593     H
H       0.3056   0.2538   0.4593     H
H       0.3082   0.6934   0.4057     H
H       0.3082   0.8066   0.9057     H
H       0.3084   0.0576    0.265     H
H       0.3084   0.4424    0.765     H
C      0.30964  0.51494  0.58234     C
C      0.30964  0.98514  0.08234     C
C      0.31004  0.24024  0.31044     C
C      0.31004  0.25984  0.81044     C
C      0.31204  0.74974  0.65424     C
C      0.31204  0.75034  0.15424     C
C      0.31274  0.50724  0.20774     C
C      0.31274  0.99284  0.70774     C
H       0.3131   0.0749   0.6693     H
H       0.3131   0.4251   0.1693     H
C      0.31734  0.65884  0.38784     C
C      0.31734  0.84124  0.88784     C
C      0.31784  0.70274  0.61525     C
C      0.31784  0.79734  0.11525     C
C      0.31794  0.60584  0.30894     C
C      0.31794  0.89424  0.80894     C
H       0.3201   0.1737   0.7799     H
H       0.3201   0.3263   0.2799     H
H        0.323   0.2297   0.7422     H
H        0.323   0.2703   0.2422     H
N      0.32302  0.18274  0.87954     N
N      0.32302  0.31734  0.37954     N
H       0.3256   0.0827   0.1461     H
H       0.3256   0.4173   0.6461     H
H       0.3259   0.5341   0.7228     H
H       0.3259   0.9659   0.2228     H
C      0.33264  0.21594  0.77664     C
C      0.33264  0.28414  0.27664     C
O      0.33552  0.65112  0.49322     O
O      0.33552  0.84892  0.99322     O
C      0.33764  0.70374  0.23734     C
C      0.33764  0.79634  0.73734     C
H       0.3379   0.0943   0.9488     H
H       0.3379   0.4057   0.4488     H
C      0.34094  0.74864  0.70264     C
C      0.34094  0.75144  0.20264     C
C      0.34454  0.55654  0.33474     C
C      0.34454  0.94354  0.83474     C
C      0.34464  0.60824  0.41384     C
C      0.34464  0.89184  0.91384     C
O      0.35312  0.65914  0.63144     O
O      0.35312  0.84094  0.13144     O
H       0.3538   0.5219    0.317     H
H       0.3538   0.9781    0.817     H
O      0.35602  0.51402  0.60322     O
O      0.35602  0.98602  0.10322     O
C      0.35614  0.60744  0.47074     C
C      0.35614  0.89264  0.97074     C
H       0.3565   0.5663   0.1729     H
H       0.3565   0.9337   0.6729     H
C      0.35744  0.55804  0.38644     C
C      0.35744  0.94204  0.88644     C
H       0.3581   0.7045   0.2693     H
H       0.3581   0.7955   0.7693     H
C      0.36314  0.53244  0.19704     C
C      0.36314  0.96764  0.69704     C
H       0.3632   0.7149   0.7121     H
H       0.3632   0.7851   0.2121     H
In    0.367272 0.610073 0.568152    In
In    0.367272 0.889933 0.068152    In
H       0.3693   0.2163   0.7861     H
H       0.3693   0.2837   0.2861     H
H       0.3735   0.0815   0.8642     H
H       0.3735   0.4185   0.3642     H
H       0.3753    0.524   0.4032     H
H       0.3753    0.976   0.9032     H
C      0.37632  0.17294  0.88764     C
C      0.37632  0.32714  0.38764     C
H       0.3811    0.001   0.6836     H
H       0.3811    0.499   0.1836     H
O      0.38172  0.56494  0.49472     O
O      0.38172  0.93514  0.99472     O
H       0.3834    0.548   0.2278     H
H       0.3834    0.952   0.7278     H
C      0.39574  0.11424  0.87674     C
C      0.39574  0.38584  0.37674     C
H        0.397   0.2399   0.4128     H
H        0.397   0.2601   0.9128     H
C      0.40974  0.22054  0.90614     C
C      0.40974  0.27954  0.40614     C
O      0.43272  0.68004  0.56482     O
O      0.43272  0.82004  0.06482     O
C      0.44644  0.10514  0.88454     C
C      0.44644  0.39494  0.38454     C
O      0.44652  0.58604  0.59902     O
O      0.44652  0.91404  0.09902     O
H        0.459    0.066   0.8764     H
H        0.459    0.434   0.3764     H
C      0.46134  0.21044  0.91484     C
C      0.46134  0.28964  0.41484     C
C      0.46424  0.63834  0.58694     C
C      0.46424  0.86174  0.08694     C
C      0.48024  0.15144  0.90384     C
C      0.48024  0.34864  0.40384     C
H       0.4837   0.2426    0.928     H
H       0.4837   0.2574    0.428     H
H       0.5163   0.7426    0.572     H
H       0.5163   0.7574    0.072     H
C      0.51984  0.65144  0.59624     C
C      0.51984  0.84864  0.09624     C
C      0.53584  0.13834  0.91314     C
C      0.53584  0.36174  0.41314     C
C      0.53874  0.71044  0.58524     C
C      0.53874  0.78964  0.08524     C
H        0.541    0.566   0.6236     H
H        0.541    0.934   0.1236     H
O      0.55352  0.08604  0.90102     O
O      0.55352  0.41404  0.40102     O
C      0.55364  0.60514  0.61554     C
C      0.55364  0.89494  0.11554     C
O      0.56732  0.18004  0.93522     O
O      0.56732  0.32004  0.43522     O
C      0.59034  0.72054  0.59394     C
C      0.59034  0.77954  0.09394     C
H        0.603   0.7399   0.0872     H
H        0.603   0.7601   0.5872     H
C      0.60434  0.61424  0.62334     C
C      0.60434  0.88584  0.12334     C
H       0.6166    0.048   0.2722     H
H       0.6166    0.452   0.7722     H
O      0.61832  0.06494  0.00532     O
O      0.61832  0.43514  0.50532     O
H       0.6189    0.501   0.8164     H
H       0.6189    0.999   0.3164     H
C      0.62372  0.67294  0.61244     C
C      0.62372  0.82714  0.11244     C
H       0.6247    0.024   0.0968     H
H       0.6247    0.476   0.5968     H
H       0.6265   0.5815   0.6358     H
H       0.6265   0.9185   0.1358     H
H       0.6307   0.7163   0.7139     H
H       0.6307   0.7837   0.2139     H
In    0.632732 0.110073 0.931852    In
In    0.632732 0.389933 0.431852    In
H       0.6368   0.2149   0.7879     H
H       0.6368   0.2851   0.2879     H
C      0.63694  0.03244  0.30304     C
C      0.63694  0.46764  0.80304     C
H       0.6419   0.2045   0.2307     H
H       0.6419   0.2955   0.7307     H
C      0.64264  0.05804  0.11364     C
C      0.64264  0.44204  0.61364     C
H       0.6435   0.0663   0.3271     H
H       0.6435   0.4337   0.8271     H
C      0.64394  0.10744  0.02934     C
C      0.64394  0.39264  0.52934     C
O      0.64402  0.01402  0.89682     O
O      0.64402  0.48602  0.39682     O
H       0.6462   0.0219    0.183     H
H       0.6462   0.4781    0.683     H
O      0.64692  0.15914  0.86864     O
O      0.64692  0.34094  0.36864     O
C      0.65544  0.10824  0.08624     C
C      0.65544  0.39184  0.58624     C
C      0.65554  0.05654  0.16534     C
C      0.65554  0.44354  0.66534     C
C      0.65914  0.24864  0.79744     C
C      0.65914  0.25144  0.29744     C
H       0.6621   0.5943   0.5512     H
H       0.6621   0.9057   0.0512     H
C      0.66244  0.20374  0.26274     C
C      0.66244  0.29634  0.76274     C
O      0.66452  0.15112  0.00682     O
O      0.66452  0.34892  0.50682     O
C      0.66744  0.71594  0.72344     C
C      0.66744  0.78414  0.22344     C
H       0.6741   0.0341   0.7772     H
H       0.6741   0.4659   0.2772     H
H       0.6744   0.5827   0.3539     H
H       0.6744   0.9173   0.8539     H
H        0.677   0.7297   0.7578     H
H        0.677   0.7703   0.2578     H
N      0.67702  0.68274  0.62054     N
N      0.67702  0.81734  0.12054     N
H       0.6799   0.6737   0.7201     H
H       0.6799   0.8263   0.2201     H
C      0.68214  0.10584  0.19114     C
C      0.68214  0.39424  0.69114     C
C      0.68224  0.20274  0.88485     C
C      0.68224  0.29734  0.38485     C
C      0.68274  0.15884  0.11224     C
C      0.68274  0.34124  0.61224     C
H       0.6869   0.5749   0.8307     H
H       0.6869   0.9251   0.3307     H
C      0.68734  0.00724  0.29234     C
C      0.68734  0.49284  0.79234     C
C      0.68804  0.24974  0.84584     C
C      0.68804  0.25034  0.34584     C
C      0.69004  0.74024  0.18964     C
C      0.69004  0.75984  0.68964     C
C      0.69044  0.01494  0.91774     C
C      0.69044  0.48514  0.41774     C
H       0.6916   0.5576    0.235     H
H       0.6916   0.9424    0.735     H
H       0.6918   0.1934   0.0943     H
H       0.6918   0.3066   0.5943     H
H       0.6944   0.7462   0.5407     H
H       0.6944   0.7538   0.0407     H
C      0.69454  0.59094  0.57114     C
C      0.69454  0.90914  0.07114     C
C      0.69574  0.15764  0.16334     C
C      0.69574  0.34244  0.66334     C
C      0.69652  0.74354  0.64064     C
C      0.69652  0.75654  0.14064     C
C      0.69774  0.15374  0.27714     C
C      0.69774  0.34634  0.77714     C
N      0.69824  0.10224  0.24382     N
N      0.69824  0.39784  0.74382     N
H       0.7004   0.0968   0.7641     H
H       0.7004   0.4032   0.2641     H
H       0.7033   0.6682   0.2398     H
H       0.7033   0.8318   0.7398     H
C      0.70544  0.55164  0.81094     C
C      0.70544  0.94844  0.31094     C
O      0.70604  0.20224  0.92792     O
O      0.70604  0.29784  0.42792     O
C      0.70644  0.05504  0.77794     C
C      0.70644  0.44504  0.27794     C
C      0.70774  0.68054  0.20774     C
C      0.70774  0.81954  0.70774     C
C      0.70784  0.58504  0.37194     C
C      0.70784  0.91504  0.87194     C
O      0.70812  0.06022  0.94632     O
O      0.70812  0.43982  0.44632     O
C      0.71084  0.63544  0.61074     C
C      0.71084  0.86464  0.11074     C
H       0.7137   0.1914   0.1802     H
H       0.7137   0.3086   0.6802     H
H       0.7151   0.5143   0.5376     H
H       0.7151   0.9857   0.0376     H
C      0.71564  0.04044  0.26334     C
C      0.71564  0.45964  0.76334     C
C      0.71974  0.71704  0.10994     C
C      0.71974  0.78304  0.60994     C
C      0.72214  0.54104  0.22824     C
C      0.72214  0.95904  0.72824     C
H       0.7233   0.1945   0.9578     H
H       0.7233   0.3055   0.4578     H
C      0.72364  0.20194  0.35864     C
C      0.72364  0.29814  0.85864     C
H       0.7245   0.0578   0.8121     H
H       0.7245   0.4422   0.3121     H
C      0.72474  0.53924  0.40944     C
C      0.72474  0.96084  0.90944     C
C      0.72514  0.73364  0.05774     C
C      0.72514  0.76644  0.55774     C
C      0.72644  0.54404  0.56274     C
C      0.72644  0.95604  0.06274     C
H       0.7279   0.6633   0.3361     H
H       0.7279   0.8367   0.8361     H
C      0.72834  0.15464  0.32464     C
C      0.72834  0.34544  0.82464     C
H       0.7309   0.6957   0.0398     H
H       0.7309   0.8043   0.5398     H
C      0.73174  0.63924  0.17934     C
C      0.73174  0.86084  0.67934     C
C      0.73724  0.65814  0.13114     C
C      0.73724  0.84194  0.63114     C
C      0.73764  0.01794  0.74714     C
C      0.73764  0.48214  0.24714     C
C      0.73934  0.63344  0.36114     C
C      0.73934  0.86664  0.86114     C
H       0.7443   0.2014   0.3904     H
H       0.7443   0.2986   0.8904     H
H       0.7464   0.7381   0.4413     H
H       0.7464   0.7619   0.9413     H
H       0.7468   0.6305   0.8881     H
H       0.7468   0.8695   0.3881     H
H       0.7475   0.1228   0.6664     H
H       0.7475   0.3772   0.1664     H
C      0.74934  0.57624  0.19984     C
C      0.74934  0.92384  0.69984     C
C      0.75074  0.57624  0.80024     C
C      0.75074  0.92384  0.30024     C
H       0.7525   0.1228   0.3336     H
H       0.7525   0.3772   0.8336     H
H       0.7532   0.6305   0.1119     H
H       0.7532   0.8695   0.6119     H
H       0.7536   0.7381   0.5587     H
H       0.7536   0.7619   0.0587     H
H       0.7557   0.2014   0.6096     H
H       0.7557   0.2986   0.1096     H
C      0.76074  0.63344  0.63894     C
C      0.76074  0.86664  0.13894     C
C      0.76244  0.01794  0.25294     C
C      0.76244  0.48214  0.75294     C
C      0.76284  0.65814  0.86894     C
C      0.76284  0.84194  0.36894     C
C      0.76834  0.63924  0.82074     C
C      0.76834  0.86084  0.32074     C
H       0.7691   0.6957   0.9602     H
H       0.7691   0.8043   0.4602     H
C      0.77174  0.15464  0.67544     C
C      0.77174  0.34544  0.17544     C
H       0.7721   0.6633   0.6639     H
H       0.7721   0.8367   0.1639     H
C      0.77364  0.54404  0.43734     C
C      0.77364  0.95604  0.93734     C
C      0.77494  0.73364  0.94234     C
C      0.77494  0.76644  0.44234     C
C      0.77534  0.53924  0.59064     C
C      0.77534  0.96084  0.09064     C
H       0.7755   0.0578   0.1879     H
H       0.7755   0.4422   0.6879     H
C      0.77644  0.20194  0.64144     C
C      0.77644  0.29814  0.14144     C
H       0.7767   0.1945   0.0422     H
H       0.7767   0.3055   0.5422     H
C      0.77794  0.54104  0.77184     C
C      0.77794  0.95904  0.27184     C
C      0.78034  0.71704  0.89014     C
C      0.78034  0.78304  0.39014     C
C      0.78444  0.04044  0.73674     C
C      0.78444  0.45964  0.23674     C
H       0.7849   0.5143   0.4624     H
H       0.7849   0.9857   0.9624     H
H       0.7863   0.1914   0.8198     H
H       0.7863   0.3086   0.3198     H
C      0.78924  0.63544  0.38934     C
C      0.78924  0.86464  0.88934     C
O      0.79192  0.06022  0.05372     O
O      0.79192  0.43982  0.55372     O
C      0.79224  0.58504  0.62814     C
C      0.79224  0.91504  0.12814     C
C      0.79234  0.68054  0.79234     C
C      0.79234  0.81954  0.29234     C
C      0.79364  0.05504  0.22214     C
C      0.79364  0.44504  0.72214     C
O      0.79404  0.20224  0.07212     O
O      0.79404  0.29784  0.57212     O
C      0.79464  0.55164  0.18914     C
C      0.79464  0.94844  0.68914     C
H       0.7967   0.6682   0.7602     H
H       0.7967   0.8318   0.2602     H
H       0.7996   0.0968   0.2359     H
H       0.7996   0.4032   0.7359     H
N      0.80184  0.10224  0.75622     N
N      0.80184  0.39784  0.25622     N
C      0.80234  0.15374  0.72294     C
C      0.80234  0.34634  0.22294     C
C      0.80352  0.74354  0.35944     C
C      0.80352  0.75654  0.85944     C
C      0.80434  0.15764  0.83674     C
C      0.80434  0.34244  0.33674     C
C      0.80554  0.59094  0.42894     C
C      0.80554  0.90914  0.92894     C
H       0.8056   0.7462   0.4593     H
H       0.8056   0.7538   0.9593     H
H       0.8082   0.1934   0.9057     H
H       0.8082   0.3066   0.4057     H
H       0.8084   0.5576    0.765     H
H       0.8084   0.9424    0.265     H
C      0.80964  0.01494  0.08234     C
C      0.80964  0.48514  0.58234     C
C      0.81004  0.74024  0.81044     C
C      0.81004  0.75984  0.31044     C
C      0.81204  0.24974  0.15424     C
C      0.81204  0.25034  0.65424     C
C      0.81274  0.00724  0.70774     C
C      0.81274  0.49284  0.20774     C
H       0.8131   0.5749   0.1693     H
H       0.8131   0.9251   0.6693     H
C      0.81734  0.15884  0.88784     C
C      0.81734  0.34124  0.38784     C
C      0.81784  0.20274  0.11525     C
C      0.81784  0.29734  0.61525     C
C      0.81794  0.10584  0.80894     C
C      0.81794  0.39424  0.30894     C
H       0.8201   0.6737   0.2799     H
H       0.8201   0.8263   0.7799     H
H        0.823   0.7297   0.2422     H
H        0.823   0.7703   0.7422     H
N      0.82302  0.68274  0.37954     N
N      0.82302  0.81734  0.87954     N
H       0.8256   0.5827   0.6461     H
H       0.8256   0.9173   0.1461     H
H       0.8259   0.0341   0.2228     H
H       0.8259   0.4659   0.7228     H
C      0.83264  0.71594  0.27664     C
C      0.83264  0.78414  0.77664     C
O      0.83552  0.15112  0.99322     O
O      0.83552  0.34892  0.49322     O
C      0.83764  0.20374  0.73734     C
C      0.83764  0.29634  0.23734     C
H       0.8379   0.5943   0.4488     H
H       0.8379   0.9057   0.9488     H
C      0.84094  0.24864  0.20264     C
C      0.84094  0.25144  0.70264     C
C      0.84454  0.05654  0.83474     C
C      0.84454  0.44354  0.33474     C
C      0.84464  0.10824  0.91384     C
C      0.84464  0.39184  0.41384     C
O      0.85312  0.15914  0.13144     O
O      0.85312  0.34094  0.63144     O
H       0.8538   0.0219    0.817     H
H       0.8538   0.4781    0.317     H
O      0.85602  0.01402  0.10322     O
O      0.85602  0.48602  0.60322     O
C      0.85614  0.10744  0.97074     C
C      0.85614  0.39264  0.47074     C
H       0.8565   0.0663   0.6729     H
H       0.8565   0.4337   0.1729     H
C      0.85744  0.05804  0.88644     C
C      0.85744  0.44204  0.38644     C
H       0.8581   0.2045   0.7693     H
H       0.8581   0.2955   0.2693     H
C      0.86314  0.03244  0.69704     C
C      0.86314  0.46764  0.19704     C
H       0.8632   0.2149   0.2121     H
H       0.8632   0.2851   0.7121     H
In    0.867272 0.110073 0.068152    In
In    0.867272 0.389933 0.568152    In
H       0.8693   0.7163   0.2861     H
H       0.8693   0.7837   0.7861     H
H       0.8735   0.5815   0.3642     H
H       0.8735   0.9185   0.8642     H
H       0.8753    0.024   0.9032     H
H       0.8753    0.476   0.4032     H
C      0.87632  0.67294  0.38764     C
C      0.87632  0.82714  0.88764     C
H       0.8811    0.501   0.1836     H
H       0.8811    0.999   0.6836     H
O      0.88172  0.06494  0.99472     O
O      0.88172  0.43514  0.49472     O
H       0.8834    0.048   0.7278     H
H       0.8834    0.452   0.2278     H
C      0.89574  0.61424  0.37674     C
C      0.89574  0.88584  0.87674     C
H        0.897   0.7399   0.9128     H
H        0.897   0.7601   0.4128     H
C      0.90974  0.72054  0.40614     C
C      0.90974  0.77954  0.90614     C
O      0.93272  0.18004  0.06482     O
O      0.93272  0.32004  0.56482     O
C      0.94644  0.60514  0.38454     C
C      0.94644  0.89494  0.88454     C
O      0.94652  0.08604  0.09902     O
O      0.94652  0.41404  0.59902     O
H        0.959    0.566   0.3764     H
H        0.959    0.934   0.8764     H
C      0.96134  0.71044  0.41484     C
C      0.96134  0.78964  0.91484     C
C      0.96424  0.13834  0.08694     C
C      0.96424  0.36174  0.58694     C
C      0.98024  0.65144  0.40384     C
C      0.98024  0.84864  0.90384     C
H       0.9837   0.7426    0.428     H
H       0.9837   0.7574    0.928     H
