data_I
_chemical_name_common  'val_24'
_cell_length_a 12.53620
_cell_length_b 12.53620
_cell_length_c 12.90140
_cell_angle_alpha 90.00000
_cell_angle_beta  90.00000
_cell_angle_gamma 90.00000
_space_group_name_H-M_alt      'P 1'


loop_
_space_group_symop_operation_xyz
  'x, y, z' 

loop_
_atom_site_label
_atom_site_fract_x
_atom_site_fract_y
_atom_site_fract_z
_atom_site_type_symbol
Cu    -0.339462 0.660542 0.245692    Cu
O     -0.2189411 0.5924211 0.1637112     O
H     -0.164555 0.431104 0.255978     H
Cu    -0.160542 0.660542 -0.254312    Cu
Cu    -0.160542 0.839462 0.245692    Cu
S     -0.149416 0.684947 -0.083027     S
C     -0.1306414 0.6306414  0.13822     C
H     -0.108291 0.866835 -0.085393     H
H     -0.101234 0.328253 0.215799     H
C     -0.10065  0.38727  0.26577     C
H     -0.099793  0.35851 0.336302     H
O     -0.0924211 0.7189411 0.1637112     O
C     -0.06674  0.80334 -0.06754     C
C     -0.06187  0.58337 -0.03962     C
C     -0.0617014 0.5617014  0.06792     C
H     -0.042712 0.808459 0.004659     H
S     -0.018814 0.530614 -0.244846     S
H     -0.00455   0.7982 -0.113294     H
C     -0.00367  0.51957 -0.10812     C
C      0.00367  0.48057  0.10812     C
H      0.00455   0.2018 0.113294     H
S     0.018814 0.469414 0.244846     S
H     0.042712 0.191541 -0.004659     H
C     0.0617014 0.4383014 -0.06792     C
C      0.06187  0.41677  0.03962     C
C      0.06674  0.19674  0.06754     C
O     0.0924211 0.2189411 0.3362912     O
O     0.0924211 0.2810611 -0.1637112     O
H     0.099793  0.64149 -0.336302     H
C      0.10065  0.61287 -0.26577     C
H     0.101234 0.671747 -0.215799     H
H     0.108291 0.133165 0.085393     H
C     0.1306414 0.3693614 -0.13822     C
H     0.133165 0.391709 0.585393     H
S     0.149416 0.315067 0.083027     S
Cu    0.160542 0.160542 -0.245692    Cu
Cu    0.160542 0.339462 0.254312    Cu
H     0.164555 0.568896 -0.255978     H
H     0.191541 0.457288 0.495341     H
C      0.19674  0.43334  0.56754     C
H       0.2018  0.49545 0.613294     H
O     0.2189411 0.0924211 0.3362912     O
O     0.2189411 0.4075811 -0.1637112     O
O     0.2810611 0.0924211 -0.1637112     O
O     0.2810611 0.4075811 0.3362912     O
S     0.315067 0.350596 0.583027     S
H     0.328253 0.601234 0.715799     H
H     0.335445 -0.068896 -0.255978     H
H     0.335445 0.568896 0.244022     H
Cu    0.339462 0.160542 0.254312    Cu
Cu    0.339462 0.339462 -0.245692    Cu
Cu    0.339462 0.339462 0.754312    Cu
S     0.350596 0.184947 0.083027     S
H      0.35851 0.599793 0.836302     H
C     0.3693614 0.1306414 -0.13822     C
C     0.3693614 0.3693614  0.36182     C
C      0.38727  0.60065  0.76577     C
H     0.391709 0.366835 0.085393     H
H     0.398766 -0.171747 -0.215799     H
H     0.398766 0.671747 0.284201     H
C      0.39945 -0.11287 -0.26577     C
C      0.39945  0.61287  0.23437     C
H     0.400207 -0.14149 -0.336302     H
H     0.400207  0.64149 0.163698     H
O     0.4075811 0.2189411 -0.1637112     O
O     0.4075811 0.2810611 0.3362912     O
C      0.41677  0.43827  0.53962     C
H     0.431104 0.664555 0.755978     H
C      0.43334  0.30334  0.06754     C
C      0.43827  0.08337  0.03962     C
C     0.4383014 0.0617014 -0.06792     C
C     0.4383014 0.4383014  0.43212     C
H     0.457288 0.308459 -0.004659     H
S     0.469414 0.481214 0.744846     S
C      0.48057  0.49647  0.60812     C
S     0.481214 0.030614 0.244846     S
H      0.49545   0.2982 0.113294     H
C      0.49647  0.01957  0.10812     C
C      0.50367 -0.01957 -0.10812     C
C      0.50367  0.51957  0.39192     C
H      0.50455  -0.2982 -0.113294     H
H      0.50455   0.7982 0.386706     H
S     0.518814 -0.030614 -0.244846     S
S     0.518814 0.530614 0.255166     S
H     0.542712 -0.308459 0.004659     H
H     0.542712 0.808459 0.504659     H
C     0.5617014 -0.0617014  0.06792     C
C     0.5617014 0.5617014  0.56792     C
C      0.56187 -0.08337 -0.03962     C
C      0.56187  0.58337  0.46042     C
C      0.56674 -0.30334 -0.06754     C
C      0.56674  0.80334  0.43254     C
O     0.5924211 -0.2189411 0.1637112     O
O     0.5924211 0.7189411 0.6637112     O
H     0.599793  0.14149 0.336302     H
C      0.60065  0.11287  0.26577     C
H     0.601234 0.171747 0.215799     H
H     0.608291 -0.366835 -0.085393     H
H     0.608291 0.866835 0.414607     H
C     0.6306414 -0.1306414  0.13822     C
C     0.6306414 0.6306414  0.63822     C
H     0.633165 0.891709 0.414607     H
S     0.649416 -0.184947 -0.083027     S
S     0.649416 0.684947 0.416987     S
Cu    0.660542 -0.339462 0.245692    Cu
Cu    0.660542 -0.160542 -0.254312    Cu
Cu    0.660542 0.660542 0.245692    Cu
Cu    0.660542 0.839462 0.745692    Cu
H     0.664555 0.068896 0.255978     H
H     0.691541 0.957288 0.504659     H
C      0.69674  0.93334  0.43254     C
H       0.7018  0.99545 0.386706     H
O     0.7189411 -0.0924211 0.1637112     O
O     0.7189411 0.5924211 0.6637112     O
O     0.7810611 0.9075811 0.6637112     O
S     0.815067 0.850596 0.416987     S
H     0.828253 1.101234 0.284201     H
H     0.835445 1.068896 0.755978     H
Cu    0.839462 -0.160542 0.245692    Cu
Cu    0.839462 0.660542 0.745692    Cu
Cu    0.839462 0.839462 0.245692    Cu
H      0.85851 1.099793 0.163698     H
C     0.8693614 0.8693614  0.63822     C
C      0.88727  1.10065  0.23437     C
H     0.898766 1.171747 0.715799     H
C      0.89945  1.11287  0.76577     C
H     0.900207  1.14149 0.836302     H
O     0.9075811 0.7810611 0.6637112     O
C      0.91677  0.93827  0.46042     C
H     0.931104 1.164555 0.244022     H
C     0.9383014 0.9383014  0.56792     C
S     0.969414 0.981214 0.255166     S
C      0.98057  0.99647  0.39192     C
C      1.00367  1.01957  0.60812     C
H      1.00455   1.2982 0.613294     H
S     1.018814 1.030614 0.744846     S
H     1.042712 1.308459 0.495341     H
C     1.0617014 1.0617014  0.43212     C
C      1.06187  1.08337  0.53962     C
C      1.06674  1.30334  0.56754     C
H     1.108291 1.366835 0.585393     H
C     1.1306414 1.1306414  0.36182     C
S     1.149416 1.184947 0.583027     S
Cu    1.160542 1.160542 0.754312    Cu
Cu    1.160542 1.339462 0.254312    Cu
Cu    1.339462 1.160542 0.254312    Cu
