data_I
_chemical_name_common  'val_41'
_cell_length_a 16.16204
_cell_length_b  8.61606
_cell_length_c 18.35914
_cell_angle_alpha 90.00000
_cell_angle_beta  109.33330
_cell_angle_gamma 90.00000
_space_group_name_H-M_alt      'P 1'


loop_
_space_group_symop_operation_xyz
  'x, y, z' 

loop_
_atom_site_label
_atom_site_fract_x
_atom_site_fract_y
_atom_site_fract_z
_atom_site_type_symbol
H       0.0057   0.4255   0.4927     H
C     0.006413   0.7362  0.37188     C
C     0.007413   0.7482  0.00479     C
C     0.014211   0.8872  0.40388     C
C     0.016113   0.3572  0.22098     C
C     0.017611   0.7542  0.87908     C
O      0.02489 0.753015  0.75137     O
H       0.0339    0.758   0.0578     H
C     0.035211   0.2092  0.47038     C
C     0.043013 0.342718  0.51329     C
N     0.049614   0.0952  0.71811     N
C       0.0542   0.3253 0.789616     C
O      0.05428 0.599314  0.60847     O
C     0.057313   0.7712  0.95781     C
C     0.069813   0.7732 0.823811     C
H       0.0733   0.5341   0.3816     H
C     0.078113   0.6352  0.40099     C
C       0.0822   0.3303 0.003314     C
C     0.082313   0.1352  0.09661     C
H       0.0826   0.3861   0.8324     H
N     0.083311 0.942918  0.18939     N
C     0.088111   0.9332  0.46458     C
C       0.0922   0.1663 0.780517     C
C     0.094313 0.085218  0.50539     C
H       0.0956    0.166   0.3408     H
H       0.0999   0.7868   0.2709     H
C     0.103813 0.357118  0.58518     C
C     0.109811   0.3402  0.26908     C
H        0.111   0.4005    0.982     H
C     0.114714   0.5002 0.631813     C
Pb    0.115926 0.831727 0.682985    Pb
H       0.1162   0.7976   0.9785     H
C     0.129916   0.2352 0.063411     C
C     0.130216   0.8503 0.247313     C
C     0.130314   0.0412  0.15631     C
C     0.136311   0.2322  0.33108     C
H       0.1412   0.1246   0.8173     H
O      0.14779   0.7972  0.84677     O
N      0.15221 0.094217  0.57457     N
C     0.153413   0.6782  0.45578     C
H       0.1567   0.5008   0.2157     H
C     0.159311   0.2252  0.61289     C
C     0.161511 0.828117  0.48748     C
C     0.173711   0.4302  0.25618     C
O      0.18069 0.516613  0.69027     O
H       0.1998   0.6082   0.4725     H
H       0.2028   0.2324   0.6608     H
C     0.220018   0.8443 0.273413     C
C     0.221415   0.0402 0.185813     C
C       0.2222   0.2433 0.091017     C
C     0.222611   0.2272  0.37588     C
H       0.2404   0.1606   0.4182     H
H       0.2477   0.7715   0.3114     H
C     0.248611   0.8672  0.54499     C
H       0.2517   0.3133   0.0698     H
H        0.258    0.946   0.9434     H
N      0.25989 0.422015  0.29857     N
C     0.266318   0.1493   0.1482     C
C     0.269217   0.9373 0.246413     C
O      0.27748 0.790913  0.60387     O
H       0.2835   0.6785   0.0089     H
C     0.283913   0.3182  0.35871     C
O      0.29289 0.971715  0.52617     O
C       0.3102   0.9793 0.980617     C
H       0.3178   0.1855   0.9336     H
C       0.3252   0.7294 0.049918     C
H       0.3273   0.1507   0.1652     H
H       0.3278   0.5743   0.1241     H
O      0.32839 0.454016  0.51477     O
H       0.3302   0.9351   0.2655     H
Pb    0.340803 0.507417 0.660083    Pb
C     0.345116   0.1214 0.975316     C
C       0.3522   0.8864 0.041518     C
C       0.3582   0.6604 0.115318     C
C     0.375711   0.3392  0.53268     C
C     0.380511 0.299018  0.39728     C
O     0.382113   0.2142  0.76388     O
H       0.3892   0.7719   0.4953     H
O      0.39018 0.267213  0.59597     O
H       0.4026   0.2817    0.297     H
Pb    0.409364 0.001767 0.650403    Pb
O     0.411913   0.4572  0.80169     O
C     0.419013   0.1683 0.030011     C
C     0.419411   0.2902  0.47588     C
C     0.427613   0.3163  0.80631     C
C     0.429811   0.2762  0.35029     C
C     0.430314   0.9463 0.099213     C
C       0.4362   0.6993 0.175016     C
H       0.4416   0.2649   0.0247     H
C     0.450116   0.7723  0.51211     C
N     0.461011   0.0832  0.09088     N
O      0.46268 0.742015  0.72887     O
H        0.463   0.5274   0.2451     H
H        0.463   0.6174   0.4326     H
H       0.4687   0.0424   0.8839     H
C     0.472416   0.8553 0.164814     C
C       0.4832   0.6253 0.237215     C
H       0.4938   0.7999   0.9213     H
C       0.4942   0.6763 0.475513     C
N     0.494613 0.867018  0.57188     N
O      0.49569 0.527317  0.67667     O
H       0.5057   0.5745   0.9927     H
C     0.506413   0.2642  0.87188     C
C     0.507413   0.2522  0.50479     C
C     0.514211   0.1132  0.90388     C
C     0.516113   0.6432  0.72098     C
C     0.517611   0.2462  0.37908     C
O      0.52489 0.247015  0.25137     O
H       0.5339    0.242   0.5578     H
C     0.535211   0.7912  0.97038     C
C     0.543013 0.657318  0.01329     C
N     0.549614   0.9052  0.21811     N
C       0.5542   0.6753 0.289616     C
O      0.55428 0.400714  0.10847     O
C     0.557313   0.2292  0.45781     C
C     0.569813   0.2272 0.323811     C
H       0.5733   0.4659   0.8816     H
C     0.578113   0.3652  0.90099     C
C       0.5822   0.6703 0.503314     C
C     0.582313   0.8652  0.59661     C
H       0.5826   0.6139   0.3324     H
N     0.583311 0.057118  0.68939     N
C     0.588111   0.0672  0.96458     C
C       0.5922   0.8343 0.280517     C
C     0.594313 0.914818  0.00539     C
H       0.5956    0.834   0.8408     H
H       0.5999   0.2132   0.7709     H
C     0.603813 0.642918  0.08518     C
C     0.609811   0.6602  0.76908     C
H        0.611   0.5995    0.482     H
C     0.614714   0.5002 0.131813     C
Pb    0.615926 0.168287 0.182985    Pb
H       0.6162   0.2024   0.4785     H
C     0.629916   0.7652 0.563411     C
C     0.630216   0.1503 0.747313     C
C     0.630314   0.9592  0.65631     C
C     0.636311   0.7682  0.83108     C
H       0.6412   0.8754   0.3173     H
O      0.64779   0.2032  0.34677     O
N      0.65221 0.905817  0.07457     N
C     0.653413   0.3222  0.95578     C
H       0.6567   0.4992   0.7157     H
C     0.659311   0.7752  0.11289     C
C     0.661511 0.171917  0.98748     C
C     0.673711   0.5702  0.75618     C
O      0.68069 0.483413  0.19027     O
H       0.6998   0.3918   0.9725     H
H       0.7028   0.7676   0.1608     H
C     0.720018   0.1563 0.773413     C
C     0.721415   0.9602 0.685813     C
C       0.7222   0.7573 0.591017     C
C     0.722611   0.7732  0.87588     C
H       0.7404   0.8394   0.9182     H
H       0.7477   0.2285   0.8114     H
C     0.748611   0.1332  0.04499     C
H       0.7517   0.6867   0.5698     H
H        0.758    0.054   0.4434     H
N      0.75989 0.578015  0.79857     N
C     0.766318   0.8513   0.6482     C
C     0.769217   0.0633 0.746413     C
O      0.77748 0.209113  0.10387     O
H       0.7835   0.3215   0.5089     H
C     0.783913   0.6822  0.85871     C
O      0.79289 0.028315  0.02617     O
C       0.8102   0.0213 0.480617     C
H       0.8178   0.8145   0.4336     H
C       0.8252   0.2714 0.549918     C
H       0.8273   0.8493   0.6652     H
H       0.8278   0.4257   0.6241     H
O      0.82839 0.546016  0.01477     O
H       0.8302   0.0649   0.7655     H
Pb    0.840803 0.492597 0.160083    Pb
C     0.845116   0.8794 0.475316     C
C       0.8522   0.1144 0.541518     C
C       0.8582   0.3404 0.615318     C
C     0.875711   0.6612  0.03268     C
C     0.880511 0.701018  0.89728     C
O     0.882113   0.7862  0.26388     O
H       0.8892   0.2281   0.9953     H
O      0.89018 0.732813  0.09597     O
H       0.9026   0.7183    0.797     H
Pb    0.909364 0.998247 0.150403    Pb
O     0.911913   0.5432  0.30169     O
C     0.919013   0.8323 0.530011     C
C     0.919411   0.7102  0.97588     C
C     0.927613   0.6843  0.30631     C
C     0.929811   0.7242  0.85029     C
C     0.930314   0.0543 0.599213     C
C       0.9362   0.3013 0.675016     C
H       0.9416   0.7351   0.5247     H
C     0.950116   0.2283  0.01211     C
N     0.961011   0.9172  0.59088     N
O      0.96268 0.258015  0.22887     O
H        0.963   0.3826   0.9326     H
H        0.963   0.4726   0.7451     H
H       0.9687   0.9576   0.3839     H
C     0.972416   0.1453 0.664814     C
C       0.9832   0.3753 0.737215     C
H       0.9938   0.2001   0.4213     H
C       0.9942   0.3243 0.975513     C
N     0.994613 0.133018  0.07188     N
O      0.99569 0.472717  0.17667     O
