data_I
_chemical_name_common  'val_15'
_cell_length_a  8.05427
_cell_length_b 25.59331
_cell_length_c  9.62147
_cell_angle_alpha 90.00000
_cell_angle_beta  113.79480
_cell_angle_gamma 90.00000
_space_group_name_H-M_alt      'P 1'


loop_
_space_group_symop_operation_xyz
  'x, y, z' 

loop_
_atom_site_label
_atom_site_fract_x
_atom_site_fract_y
_atom_site_fract_z
_atom_site_type_symbol
H     0.375339     0.25 0.915545     H
H     0.379561 0.215258 0.756936     H
H     0.379561 0.284742 0.756936     H
C      0.42749     0.25  0.82728     C
C      0.62369     0.25  0.89657     C
H      0.66754 0.149698 0.586224     H
H      0.66754 0.350302 0.586224     H
O      0.70317     0.25  0.80865     O
O      0.70327     0.25  1.03975     O
H     0.737564 0.116562 0.390922     H
H     0.737564 0.383438 0.390922     H
H     0.757235 0.119813 0.768579     H
H     0.757235 0.380187 0.768579     H
C      0.78505 0.1299416  0.67014     C
C      0.78505 0.3700616  0.67014     C
N      0.81604 0.0813712  0.60234     N
N      0.81604 0.4186312  0.60234     N
C      0.84955 0.0928716  0.46734     C
C      0.84955 0.4071316  0.46734     C
H     0.853779 0.0560465 0.412128     H
H     0.853779 0.443954 0.412128     H
H     0.897916 0.194973 0.468538     H
H     0.897916 0.305027 0.468538     H
H     0.949069 0.0462837 0.812606     H
H     0.949069 0.453716 0.812606     H
C      0.97065 0.0524314  0.70914     C
C      0.97065 0.4475714  0.70914     C
Cu    0.971799     0.25 0.855977    Cu
H     0.976359 0.0148029 0.658381     H
H     0.976359 0.485197 0.658381     H
P     0.9777716 0.175044 0.7312111     P
P     0.9777716 0.324964 0.7312111     P
C      1.01055 0.1742214  0.55484     C
C      1.01055 0.3257814  0.55484     C
H      1.01713 0.215258  1.24692     H
H      1.01713 0.284742  1.24692     H
N      1.01914 0.1210011  0.49794     N
N      1.01914 0.3790011  0.49794     N
H      1.02257 -0.10941 0.823129     H
H      1.02257  0.60941 0.823129     H
C      1.09947     0.25  1.25747     C
H      1.13688 -0.133768  1.01106     H
H      1.13688 0.633768  1.01106     H
H      1.13708 0.194283  0.57383     H
H      1.13708 0.305717  0.57383     H
H      1.13771 0.117966 0.939212     H
H      1.13771 0.382034 0.939212     H
N      1.14744 0.0787211  0.75034     N
N      1.14744 0.4212811  0.75034     N
C      1.15295 0.1280514  0.83504     C
C      1.15295 0.3719514  0.83504     C
C      1.15325 -0.1217716  0.90874     C
C      1.15325 0.6217716  0.90874     C
C      1.16935 0.0909314  0.60804     C
C      1.16935 0.4090714  0.60804     C
P      1.17722     0.25 1.1007516     P
H      1.18048 0.0542693 0.554966     H
H      1.18048 0.445731 0.554966     H
H      1.20446 -0.154487 0.865226     H
H      1.20446 0.654487 0.865226     H
H      1.22034 0.0359211  1.31392     H
H      1.22034 0.464079  1.31392     H
O      1.22604 -0.034911  0.87634     O
O      1.22604 0.534911  0.87634     O
N      1.25097     0.25  1.41035     N
H      1.27162 0.159147  1.16192     H
H      1.27162 0.340853  1.16192     H
H      1.27618 0.169519  1.40523     H
H      1.27618 0.330481  1.40523     H
H      1.28444 0.146437 0.863094     H
H      1.28444 0.353563 0.863094     H
C      1.28485 -0.0772714  0.94544     C
C      1.28485 0.5772714  0.94544     C
H      1.29368 0.113381 0.637026     H
H      1.29368 0.386619 0.637026     H
O      1.32294 0.046631  1.08344     O
O      1.32294 0.453371  1.08344     O
H      1.32714     0.75 0.519916     H
C      1.34565 0.1957216  1.17534     C
C      1.34565 0.3042816  1.17534     C
H      1.35497     0.75 0.712911     H
C      1.36115 0.0462614  1.34074     C
C      1.36115 0.4537414  1.34074     C
C      1.36405 0.2037114  1.43114     C
C      1.36405 0.2962914  1.43114     C
Cu    1.372626 0.028782 0.904015    Cu
Cu    1.372626 0.471222 0.904015    Cu
H      1.37715 0.0884778  1.35306     H
H      1.37715 0.411522  1.35306     H
C      1.41245 0.0282414  1.21464     C
C      1.41245 0.4717614  1.21464     C
C      1.42587     0.75  0.63757     C
H      1.42722 0.194301  1.10859     H
H      1.42722 0.305699  1.10859     H
O      1.44374 -0.084389  1.04264     O
O      1.44374 0.584389  1.04264     O
H      1.44864 0.0274348  1.44647     H
H      1.44864 0.472565  1.44647     H
O      1.45574 0.002961  0.75074     O
O      1.45574 0.497041  0.75074     O
H      1.45972 0.202327  1.54958     H
H      1.45972 0.297673  1.54958     H
N      1.46814 0.2016011  1.33614     N
N      1.46814 0.2984011  1.33614     N
N      1.53194 0.7016011  0.66394     N
N      1.53194 0.7984011  0.66394     N
H      1.54028 0.702327 0.450421     H
H      1.54028 0.797673 0.450421     H
O      1.54434 -0.002961  1.24934     O
O      1.54434 0.502961  1.24934     O
H      1.55136 -0.0274348 0.553529     H
H      1.55136 0.527435 0.553529     H
O      1.55634 0.084389  0.95744     O
O      1.55634 0.415629  0.95744     O
H      1.57278 0.694301 0.891411     H
H      1.57278 0.805699 0.891411     H
C      1.57427     0.25  1.36257     C
C      1.58765 -0.0282414  0.78544     C
C      1.58765 0.5282414  0.78544     C
H      1.62285 -0.0884778  0.64694     H
H      1.62285 0.588478  0.64694     H
Cu    1.627386 -0.028782 1.095995    Cu
Cu    1.627386 0.528782 1.095995    Cu
Cu    1.627386 0.971222 1.095995    Cu
C      1.63605 0.7037114  0.56894     C
C      1.63605 0.7962914  0.56894     C
C      1.63895 -0.0462614  0.65934     C
C      1.63895 0.5462614  0.65934     C
H      1.64503     0.25  1.28709     H
C      1.65445 0.6957216  0.82474     C
C      1.65445 0.8042816  0.82474     C
H      1.67286     0.25  1.48008     H
O      1.67714 -0.046631  0.91664     O
O      1.67714 0.546631  0.91664     O
H      1.70632 0.613381  1.36297     H
H      1.70632 0.886619  1.36297     H
C      1.71525 0.0772714  1.05464     C
C      1.71525 0.4227314  1.05464     C
H      1.71556 0.646437  1.13691     H
H      1.71556 0.853563  1.13691     H
H      1.72382 0.669519 0.594766     H
H      1.72382 0.830481 0.594766     H
H      1.72838 0.659147 0.838076     H
H      1.72838 0.840853 0.838076     H
N      1.74917     0.75  0.58975     N
O      1.77404 0.034911  1.12374     O
O      1.77404 0.465091  1.12374     O
H      1.77966 -0.0359211 0.686083     H
H      1.77966 0.535921 0.686083     H
H      1.79554 0.154487  1.13477     H
H      1.79554 0.345513  1.13477     H
H      1.81952 0.554269  1.44503     H
H      1.81952 0.945731  1.44503     H
P      1.82282     0.75 0.8992516     P
C      1.83075 0.5909314  1.39204     C
C      1.83075 0.9090714  1.39204     C
C      1.84685 0.1217716  1.09134     C
C      1.84685 0.3782316  1.09134     C
C      1.84715 0.6280514  1.16504     C
C      1.84715 0.8719514  1.16504     C
N      1.85264 -0.0787211  1.24974     N
N      1.85264 0.5787211  1.24974     N
H      1.86229 0.617966  1.06079     H
H      1.86229 0.882034  1.06079     H
H      1.86292 0.694283  1.42617     H
H      1.86292 0.805717  1.42617     H
H      1.86312 0.133768  0.98894     H
H      1.86312 0.366232  0.98894     H
C      1.90067     0.75  0.74267     C
H      1.97743  0.10941  1.17687     H
H      1.97743  0.39059  1.17687     H
N      1.98094 0.6210011  1.50214     N
N      1.98094 0.8790011  1.50214     N
H      1.98287 0.715258 0.753078     H
H      1.98287 0.784742 0.753078     H
C      1.98955 0.6742214  1.44524     C
C      1.98955 0.8257814  1.44524     C
P     2.0222316 0.675044 1.2687911     P
P     2.0222316 0.824964 1.2687911     P
H      2.02364 0.514803  1.34162     H
H      2.02364 0.985197  1.34162     H
Cu    2.028219     0.75 1.144037    Cu
C      2.02945 0.5524314  1.29094     C
C      2.02945 0.9475714  1.29094     C
H      2.05093 0.546284  1.18739     H
H      2.05093 0.953716  1.18739     H
H      2.10208 0.694973  1.53146     H
H      2.10208 0.805027  1.53146     H
H      2.14622 0.556046  1.58787     H
H      2.14622 0.943954  1.58787     H
C      2.15055 0.5928716  1.53274     C
C      2.15055 0.9071316  1.53274     C
N      2.18404 0.5813712  1.39774     N
N      2.18404 0.9186312  1.39774     N
C      2.21505 0.6299416  1.32994     C
C      2.21505 0.8700616  1.32994     C
H      2.24277 0.619813  1.23142     H
H      2.24277 0.880187  1.23142     H
H      2.26244 0.616562  1.60908     H
H      2.26244 0.883438  1.60908     H
O      2.29687     0.75  0.96035     O
O      2.29697     0.75  1.19145     O
H      2.33246 0.649698  1.41378     H
H      2.33246 0.850302  1.41378     H
C      2.37649     0.75  1.10357     C
C      2.57269     0.75  1.17288     C
H      2.62044 0.715258  1.24306     H
H      2.62044 0.784742  1.24306     H
H      2.62466     0.75  1.08445     H
