data_I
_chemical_name_common  'val_2'
_cell_length_a 16.89128
_cell_length_b 16.89128
_cell_length_c  6.67020
_cell_angle_alpha 90.00000
_cell_angle_beta  90.00000
_cell_angle_gamma 120.00000
_space_group_name_H-M_alt      'P 1'


loop_
_space_group_symop_operation_xyz
  'x, y, z' 

loop_
_atom_site_label
_atom_site_fract_x
_atom_site_fract_y
_atom_site_fract_z
_atom_site_type_symbol
O     -0.10147  0.51346  0.58427     O
O     -0.09637  0.52417 -0.06157     O
O     -0.06957  0.37924  0.59338     O
O     -0.06876  0.37584 -0.09307     O
O     -0.05169  0.46136  0.24867     O
Al         0.0      0.5      0.0    Al
Al         0.0      0.5      0.5    Al
Al         0.0      0.5      1.0    Al
O      0.05169  0.53876 -0.24867     O
O      0.06876  0.62424  0.09307     O
O      0.06957  0.62084  0.40678     O
O      0.09637  0.47597  0.06157     O
H     0.101457 0.809426 0.122505     H
O      0.10147  0.48666  0.41587     O
H     0.106743 0.317381 0.213408     H
C      0.10716  0.66018  0.25116     C
C      0.11869  0.47677  0.23895     C
H     0.124301 0.819567 0.384351     H
C     0.153413 0.824414 0.236117     C
C     0.175614  0.32906 0.236117     C
H     0.180479 0.304738 0.384321     H
C      0.18566  0.75808   0.2202     C
H     0.190593 0.292068 0.122449     H
H     0.210666 0.893235 0.213331     H
C     0.214011  0.48737   0.2333     C
C      0.24208  0.42775   0.2202     C
H     0.269336 0.557975 0.241172     H
C      0.27338 0.786011   0.2333     C
H     0.288625 0.730654 0.241152     H
H     0.292022 0.101464 0.877501     H
H     0.304722 0.124303 0.615652     H
H     0.317459 0.210684 0.786672     H
C      0.32906 0.153413 0.763917     C
C      0.33998  0.44696  0.25116     C
C      0.35816  0.88149  0.23895     C
O      0.37584  0.44455  0.09307     O
O      0.37924  0.44876  0.40678     O
O      0.37964 -0.09637  0.06157     O
O      0.38524 -0.10147  0.41587     O
C      0.42775  0.18566   0.7802     C
H     0.442015  0.71133 0.241167     H
O      0.44455  0.06876 -0.09307     O
C      0.44696  0.10716  0.74896     C
O      0.44876  0.06957  0.59338     O
O      0.46136  0.51297 -0.24867     O
O      0.47597  0.37964 -0.06157     O
C      0.47677  0.35816  0.76115     C
O      0.48666  0.38524  0.58427     O
O      0.48717 -0.05169 -0.24867     O
C      0.48737  0.27338   0.7673     C
Al         0.5      0.0     -0.5    Al
Al         0.5      0.0      0.0    Al
Al         0.5      0.0      0.5    Al
Al         0.5      0.0      1.0    Al
Al         0.5      0.5      0.0    Al
Al         0.5      0.5      0.5    Al
Al         0.5      0.5      1.0    Al
Al         0.5      1.0      0.0    Al
Al         0.5      1.0      0.5    Al
C      0.51277  0.72678   0.2333     C
O      0.51297  0.05169  0.24867     O
O      0.51346  0.61484  0.41587     O
C      0.52337  0.64196  0.23895     C
O      0.52417  0.62044  0.06157     O
O      0.53876  0.48717  0.24867     O
O      0.55136 -0.06957  0.40678     O
C      0.55316  0.89296  0.25116     C
O      0.55555 -0.06876  0.09307     O
H     0.557985  0.28867 0.758833     H
C      0.57235  0.81446   0.2202     C
O      0.61484  0.10147  0.58427     O
O      0.62044  0.09637 -0.06157     O
O      0.62084  0.55136  0.59338     O
O      0.62424  0.55555 -0.09307     O
C      0.64196  0.11869  0.76115     C
C      0.66018  0.55316  0.74896     C
C      0.67106 0.846613 0.236117     C
H     0.682541 0.789316 0.213328     H
H     0.695278 0.875697 0.384348     H
H     0.707978 0.898536 0.122499     H
H     0.711375 0.269346 0.758848     H
C      0.72678 0.214011   0.7673     C
H     0.730664 0.442025 0.758828     H
C      0.75808  0.57235   0.7802     C
C     0.786011  0.51277   0.7673     C
H     0.789334 0.106765 0.786669     H
H     0.809407 0.707932 0.877551     H
C      0.81446  0.24208   0.7802     C
H     0.819521 0.695262 0.615679     H
C     0.824414  0.67106 0.763917     C
C     0.846613 0.175614 0.763917     C
H     0.875699 0.180433 0.615649     H
C      0.88149  0.52337  0.76115     C
C      0.89296  0.33998  0.74896     C
H     0.893257 0.682619 0.786592     H
H     0.898543 0.190574 0.877495     H
Al         1.0      0.5      0.5    Al
Al         1.0      0.5      1.0    Al
