data_I
_chemical_name_common  'val_22'
_cell_length_a 13.02712
_cell_length_b 13.91320
_cell_length_c 20.16630
_cell_angle_alpha 90.00000
_cell_angle_beta  90.00000
_cell_angle_gamma 90.00000
_space_group_name_H-M_alt      'P 1'


loop_
_space_group_symop_operation_xyz
  'x, y, z' 

loop_
_atom_site_label
_atom_site_fract_x
_atom_site_fract_y
_atom_site_fract_z
_atom_site_type_symbol
Cu    -0.062312 -0.144402 1.197522    Cu
Cu    -0.062312 0.144402 0.697522    Cu
Cu    -0.062312 0.855602 0.197522    Cu
Cu    -0.062312 1.144402 0.697522    Cu
O     -0.0373812 0.2400312 0.835537     O
O     -0.0373812 0.7599712 0.335537     O
O     -0.0290812 0.0451512 0.837617     O
O     -0.0290812 0.9548512 0.337617     O
O     0.0290812 -0.0451512 1.162397     O
O     0.0290812 1.0451512 0.662397     O
O     0.0373812 0.2400312 0.664477     O
O     0.0373812 0.7599712 0.164477     O
Cu    0.062312 -0.144402 1.302482    Cu
Cu    0.062312 0.144402 0.802482    Cu
Cu    0.062312 0.855602 0.302482    Cu
Cu    0.062312 1.144402 0.802482    Cu
H     0.071636 0.126756 0.966962     H
H     0.071636 0.873244 0.466962     H
C     0.1077416 -0.0179716 1.192919     C
C     0.1077416 1.0179716 0.692919     C
C     0.1149016 0.2668916 0.695579     C
C     0.1149016 0.7331116 0.195579     C
H     0.119648 0.025895 1.065678     H
H     0.119648 0.974105 0.565678     H
O     0.1348112 -0.0451812 1.249247     O
O     0.1348112 0.0451812 0.749247     O
O     0.1378612 0.2444711 0.753997     O
O     0.1378612 0.7555311 0.253997     O
C      0.13788  0.13265  0.95017     C
C      0.13788  0.86745  0.45017     C
H     0.150963 0.281377 0.567859     H
H     0.150963 0.718623 0.067859     H
N      0.16068  0.85855  0.38747     N
N      0.16297  0.14814  0.88567     N
C     0.1672417 0.0621118 1.089291     C
C     0.1672417 0.9378918 0.589291     C
C     0.1757716 0.0526316 1.157721     C
C     0.1757716 0.9473716 0.657721     C
C     0.1893117 0.3300816 0.659171     C
C     0.1893117 0.6699216 0.159171     C
N      0.19347  0.35725  0.44674     N
C     0.1956918 0.3216118 0.590701     C
C     0.1956918 0.6783918 0.090701     C
H     0.196681 0.345665 0.349072     H
N      0.20785  0.69185 -0.04784     N
H     0.212151 0.721967 -0.143648     H
N      0.21958  0.14284  0.98694     N
N      0.22279  0.86684  0.48634     N
C     0.2309618 0.1265018 1.057031     C
C     0.2309618 0.8735018 0.557031     C
C      0.23527  0.35255  0.38764     C
C      0.24567  0.69295 -0.10824     C
C     0.2465016 0.1079816 1.192759     C
C     0.2465016 0.8920216 0.692759     C
H     0.249611 0.396838 0.738677     H
H     0.249611 0.603162 0.238677     H
H     0.250389 0.103162 1.238677     H
H     0.250389 0.896838 0.738677     H
C     0.2535016 0.3920216 0.692759     C
C     0.2535016 0.6079816 0.192759     C
C      0.26487  0.14755  0.88764     C
C      0.26487  0.85255  0.38764     C
C     0.2690418 0.3735018 0.557031     C
C     0.2690418 0.6265018 0.057031     C
N      0.27739  0.36684  0.48634     N
N      0.27739  0.63324 -0.01374     N
H     0.303319 0.154335 0.849072     H
H     0.303319 0.845665 0.349072     H
C     0.3043118 0.1783918 1.090701     C
C     0.3043118 0.8216118 0.590701     C
N      0.30667  0.14285  0.94674     N
N      0.30667  0.85725  0.44674     N
C     0.3106917 0.1699216 1.159171     C
C     0.3106917 0.8300816 0.659171     C
C     0.3242316 0.4473716 0.657721     C
C     0.3242316 0.5526316 0.157721     C
C     0.3327617 0.4378918 0.589291     C
C     0.3327617 0.5621118 0.089291     C
N      0.33717  0.64814 -0.11447     N
N      0.33948  0.35855  0.38747     N
H     0.349037 0.218623 1.067859     H
H     0.349037 0.781377 0.567859     H
C      0.35667  0.61784 -0.05415     C
O     0.3621412 0.2555311 0.253997     O
O     0.3621412 0.7444711 0.753997     O
C      0.36228  0.36745  0.45017     C
O     0.3651912 0.4548212 0.249247     O
O     0.3651912 0.5451812 0.749247     O
H     0.380352 0.474105 0.565678     H
H     0.380352 0.525895 0.065678     H
C     0.3851016 0.2331116 1.195579     C
C     0.3851016 0.7668916 0.695579     C
C     0.3922616 0.4820316 0.192919     C
C     0.3922616 0.5179716 0.692919     C
H     0.414884 0.583753 -0.041695     H
H     0.428364 0.373244 0.466962     H
Cu    0.437692 0.355602 0.302482    Cu
Cu    0.437692 0.355602 1.302482    Cu
Cu    0.437692 0.644402 -0.197522    Cu
Cu    0.437692 0.644402 0.802482    Cu
O     0.4626212 0.2599712 0.164477     O
O     0.4626212 0.7400312 0.664477     O
O     0.4709212 0.4548512 0.162397     O
O     0.4709212 0.5451512 0.662397     O
O     0.5290812 0.4548512 0.337617     O
O     0.5290812 0.5451512 0.837617     O
O     0.5373812 0.2599712 0.335537     O
O     0.5373812 0.7400312 -0.164477     O
Cu    0.562312 0.355602 0.197522    Cu
Cu    0.562312 0.355602 1.197522    Cu
Cu    0.562312 0.644402 -0.302482    Cu
Cu    0.562312 0.644402 0.697522    Cu
H     0.585116 0.416247 1.041695     H
H     0.585116 0.583753 0.541695     H
C     0.6077416 0.4820316 0.307099     C
C     0.6077416 0.5179716 0.807099     C
C     0.6149016 0.2331116 0.304439     C
C     0.6149016 0.7668916 -0.195579     C
H     0.619648 0.474105 0.934322     H
H     0.619648 0.525895 0.434322     H
O     0.6348112 0.4548212 0.250767     O
O     0.6348112 0.5451812 0.750767     O
O     0.6378612 0.2555311 0.246017     O
O     0.6378612 0.7444711 -0.253997     O
C      0.64347  0.38224  1.05415     C
C      0.64347  0.61784  0.55415     C
H     0.650963 0.218623 0.432141     H
H     0.650963 0.781377 -0.067859     H
N      0.66068  0.35855  0.11267     N
N      0.66297  0.64814  0.61447     N
C     0.6672417 0.4378918 0.910711     C
C     0.6672417 0.5621118 0.410711     C
C     0.6757716 0.4473716 0.842281     C
C     0.6757716 0.5526316 0.342281     C
C     0.6893117 0.1699216 0.340831     C
C     0.6893117 0.8300816 -0.159171     C
C     0.6956918 0.1783918 0.409301     C
C     0.6956918 0.8216118 -0.090701     C
N      0.70785  0.19185  0.54784     N
N      0.70785  0.80825  0.04784     N
H     0.712151 0.221967 0.643648     H
H     0.712151 0.778033 0.143648     H
N      0.71958  0.35724  1.01314     N
N      0.72279  0.63324  0.51374     N
C     0.7309618 0.3735018 0.942971     C
C     0.7309618 0.6265018 0.442971     C
C      0.74567  0.19295  0.60824     C
C      0.74567  0.80715  0.10824     C
C     0.7465016 0.3920216 0.807259     C
C     0.7465016 0.6079816 0.307259     C
H     0.749611 0.103162 0.261323     H
H     0.749611 0.896838 -0.238677     H
H     0.750389 0.396838 0.761323     H
H     0.750389 0.603162 0.261323     H
C     0.7535016 0.1079816 0.307259     C
C     0.7535016 0.8920216 -0.192759     C
C      0.75447  0.30715  1.10824     C
C      0.75447  0.69295  0.60824     C
C     0.7690418 0.1265018 0.442971     C
C     0.7690418 0.8735018 -0.057031     C
N      0.78058  0.14284  0.51314     N
N      0.78058  0.85724  0.01314     N
H     0.787849 0.278033 1.143648     H
H     0.787849 0.721967 0.643648     H
N      0.79225  0.30825  1.04784     N
N      0.79225  0.69185  0.54784     N
C     0.8043118 0.3216118 0.909301     C
C     0.8043118 0.6783918 0.409301     C
C     0.8106917 0.3300816 0.840831     C
C     0.8106917 0.6699216 0.340831     C
C     0.8242316 0.0526316 0.342281     C
C     0.8242316 0.9473716 -0.157721     C
C     0.8327617 0.0621118 0.410711     C
C     0.8327617 0.9378918 -0.089291     C
N      0.83717  0.14814  0.61447     N
N      0.83717  0.85194  0.11447     N
H     0.849037 0.281377 0.932141     H
H     0.849037 0.718623 0.432141     H
C      0.85667  0.11784  0.55415     C
C      0.85667  0.88224  0.05415     C
O     0.8621412 0.2444711 0.746017     O
O     0.8621412 0.7555311 0.246017     O
O     0.8651912 -0.0451812 0.250767     O
O     0.8651912 0.0451812 0.750767     O
H     0.880352 0.025895 0.434322     H
H     0.880352 0.974105 -0.065678     H
C     0.8851016 0.2668916 0.804439     C
C     0.8851016 0.7331116 0.304439     C
C     0.8922616 -0.0179716 0.307099     C
C     0.8922616 1.0179716 -0.192919     C
H     0.914884 0.083753 0.541695     H
H     0.914884 0.916247 0.041695     H
Cu    0.937692 -0.144402 0.197522    Cu
Cu    0.937692 0.144402 0.697522    Cu
Cu    0.937692 0.855602 0.197522    Cu
Cu    0.937692 1.144402 -0.302482    Cu
Cu    1.062312 -0.144402 0.302482    Cu
Cu    1.062312 0.144402 0.802482    Cu
Cu    1.062312 0.855602 0.302482    Cu
Cu    1.062312 1.144402 -0.197522    Cu
