data_I
_chemical_name_common  'val_30'
_cell_length_a 11.69214
_cell_length_b 13.49725
_cell_length_c 14.46564
_cell_angle_alpha 90.00000
_cell_angle_beta  90.00000
_cell_angle_gamma 90.00000
_space_group_name_H-M_alt      'P 1'


loop_
_space_group_symop_operation_xyz
  'x, y, z' 

loop_
_atom_site_label
_atom_site_fract_x
_atom_site_fract_y
_atom_site_fract_z
_atom_site_type_symbol
N     -0.11177 -0.04787  0.69355     N
N     -0.11177  1.04787  0.30655     N
N     -0.07047  0.12495  0.85534     N
N     -0.07047  0.87515  0.14474     N
Cu    -0.0549714      0.0      0.5    Cu
Cu    -0.0549714      1.0      0.5    Cu
N     -0.05407 -0.09937  0.05625     N
N     -0.05407  0.09937 -0.05625     N
Cu         0.0 -0.0514711     0.25    Cu
Cu         0.0 0.0514711     0.75    Cu
Cu         0.0 0.9485311     0.25    Cu
Cu         0.0 1.0514711     0.75    Cu
N      0.05407  0.09937  0.55625     N
N      0.05407  0.90077  0.44385     N
Cu    0.0549714      0.0      0.0    Cu
Cu    0.0549714      1.0      1.0    Cu
N      0.07047  0.12495  0.64474     N
N      0.07047  0.87515  0.35534     N
N      0.11177 -0.04787  0.80655     N
N      0.11177  0.04787  0.19355     N
N      0.11637  0.15677  0.50085     N
N      0.11637  0.84337  0.49925     N
N      0.13447 -0.06767 -0.10445     N
N      0.13447  0.06767  0.10445     N
Cu     0.13682 0.1275617 0.3754814    Cu
Cu     0.13682 0.8724417 0.6245214    Cu
C      0.14238  0.20167  0.64585     C
C      0.14238  0.79847  0.35425     C
N      0.16927  0.10885  0.25005     N
N      0.16927  0.89125  0.75005     N
C      0.17638  0.22267  0.55475     C
C      0.17638  0.77747  0.44535     C
H     0.178317 0.235687 0.784949     H
H     0.178317 0.764313 0.215051     H
C      0.19327  0.25217  0.72225     C
C      0.19327  0.74797  0.27785     C
C      0.20638  0.14547  0.10235     C
C      0.20638  0.85467  0.89775     C
C      0.23258  0.17147  0.19495     C
C      0.23258  0.82867  0.80515     C
H     0.234484 0.184325 -0.034121     H
H     0.234484 0.815675 1.034121     H
C      0.24878  0.30087  0.52867     C
C      0.24878  0.69927  0.47147     C
C      0.25138  0.19927  0.02867     C
C      0.25138  0.80087  0.97147     C
H     0.265516 0.315675 0.465879     H
H     0.265516 0.684325 0.534121     H
C      0.26758  0.32867  0.69495     C
C      0.26758  0.67147  0.30515     C
C      0.29378  0.35467  0.60235     C
C      0.29378  0.64547  0.39775     C
C      0.30687  0.24797  0.22225     C
C      0.30687  0.75217  0.77785     C
H     0.321683 0.264313 0.284949     H
H     0.321683 0.735687 0.715051     H
C      0.32378  0.27747  0.05475     C
C      0.32378  0.72267  0.94535     C
N      0.33087  0.39125  0.75005     N
N      0.33087  0.60885  0.25005     N
C      0.35778  0.29847  0.14585     C
C      0.35778  0.70167  0.85425     C
Cu     0.36322 0.3724417 -0.1245214    Cu
Cu     0.36322 0.3724417 0.8754814    Cu
Cu     0.36322 0.6275617 0.1245214    Cu
Cu     0.36322 0.6275617 1.1245214    Cu
N      0.36567  0.43247  0.60445     N
N      0.36567  0.56767  0.39565     N
N      0.38377  0.34337  0.00085     N
N      0.38377  0.65677 -0.00085     N
N      0.38837  0.45227  0.69355     N
N      0.38837  0.54787  0.30655     N
N      0.42967  0.37515  0.14474     N
N      0.42967  0.62495  0.85534     N
Cu    0.4450314      0.5      0.5    Cu
N      0.44607  0.40077  0.05625     N
N      0.44607  0.59937 -0.05625     N
Cu         0.5 0.4485311     0.25    Cu
Cu         0.5 0.5514711     0.75    Cu
N      0.55407  0.40077  0.44385     N
N      0.55407  0.59937  0.55625     N
Cu    0.5549714      0.5      0.0    Cu
Cu    0.5549714      0.5      1.0    Cu
N      0.57047  0.37515  0.35534     N
N      0.57047  0.62495  0.64474     N
N      0.61177  0.45227  0.80655     N
N      0.61177  0.54787  0.19355     N
N      0.61637  0.34337  0.49925     N
N      0.61637  0.65677  0.50085     N
N      0.63447  0.43247 -0.10445     N
N      0.63447  0.56767  0.10445     N
Cu     0.63682 0.3724417 0.6245214    Cu
Cu     0.63682 0.6275617 0.3754814    Cu
C      0.64238  0.29847  0.35425     C
C      0.64238  0.70167  0.64585     C
N      0.66927  0.39125  0.75005     N
N      0.66927  0.60885  0.25005     N
C      0.67638  0.27747  0.44535     C
C      0.67638  0.72267  0.55475     C
H     0.678317 0.264313 0.215051     H
H     0.678317 0.735687 0.784949     H
C      0.69327  0.24797  0.27785     C
C      0.69327  0.75217  0.72225     C
C      0.70638  0.35467  0.89775     C
C      0.70638  0.64547  0.10235     C
C      0.73258  0.32867  0.80515     C
C      0.73258  0.67147  0.19495     C
H     0.734484 0.315675 1.034121     H
H     0.734484 0.684325 -0.034121     H
C      0.74878  0.19927  0.47147     C
C      0.74878  0.80087  0.52867     C
C      0.75138  0.30087  0.97147     C
C      0.75138  0.69927  0.02867     C
H     0.765516 0.184325 0.534121     H
H     0.765516 0.815675 0.465879     H
C      0.76758  0.17147  0.30515     C
C      0.76758  0.82867  0.69495     C
C      0.79378  0.14547  0.39775     C
C      0.79378  0.85467  0.60235     C
C      0.80687  0.25217  0.77785     C
C      0.80687  0.74797  0.22225     C
H     0.821683 0.235687 0.715051     H
H     0.821683 0.764313 0.284949     H
C      0.82378  0.22267  0.94535     C
C      0.82378  0.77747  0.05475     C
N      0.83087  0.10885  0.25005     N
N      0.83087  0.89125  0.75005     N
C      0.85778  0.20167  0.85425     C
C      0.85778  0.79847  0.14585     C
Cu     0.86322 0.1275617 0.1245214    Cu
Cu     0.86322 0.1275617 1.1245214    Cu
Cu     0.86322 0.8724417 -0.1245214    Cu
Cu     0.86322 0.8724417 0.8754814    Cu
N      0.86567 -0.06767  0.60445     N
N      0.86567  0.06767  0.39565     N
N      0.88377  0.15677 -0.00085     N
N      0.88377  0.84337  0.00085     N
Cu    0.9450314      0.0      0.5    Cu
Cu    0.9450314      1.0      0.5    Cu
Cu         1.0 -0.0514711     0.25    Cu
Cu         1.0 0.0514711     0.75    Cu
Cu         1.0 0.9485311     0.25    Cu
Cu         1.0 1.0514711     0.75    Cu
Cu    1.0549714      0.0      1.0    Cu
Cu    1.0549714      1.0      0.0    Cu
