data_I
_chemical_name_common  'val_28'
_cell_length_a 12.75301
_cell_length_b 16.42342
_cell_length_c 27.48130
_cell_angle_alpha 90.00000
_cell_angle_beta  91.27440
_cell_angle_gamma 90.00000
_space_group_name_H-M_alt      'P 1'


loop_
_space_group_symop_operation_xyz
  'x, y, z' 

loop_
_atom_site_label
_atom_site_fract_x
_atom_site_fract_y
_atom_site_fract_z
_atom_site_type_symbol
H       0.0017   0.3557   0.5288     H
C      0.00714  0.36804 0.4951217     C
H       0.0078   0.1369    0.475     H
C      0.00894  0.13022 0.5093817     C
C      0.01044  0.11184 0.6085417     C
H       0.0124   0.1069    0.643     H
S     0.015778 0.977937 0.746544     S
S     0.017098 0.524487 0.238924     S
H       0.0171   0.1584   0.0235     H
C      0.02044  0.94014 0.0771517     C
C      0.02194  0.40334 0.3988118     C
H       0.0259   0.3509    0.978     H
C      0.02774  0.57234 0.9179017     C
H       0.0292   0.4143   0.3651     H
C      0.03014  0.14054 0.9913516     C
C      0.03074  0.86524 0.6723516     C
H       0.0316   0.3476   0.6946     H
H       0.0322   0.1584   0.3163     H
C      0.03314  0.62974 0.3165616     C
C      0.03334  0.62434 0.1583917     C
C      0.03384  0.36234 0.0117717     C
C      0.03544  0.88734 0.8300616     C
H        0.038    0.122   0.1727     H
H       0.0396   0.3654   0.8387     H
C      0.04094  0.58944 0.9663717     C
C      0.04134  0.91204 0.0308917     C
O      0.04142  0.06342 0.7462512     O
O      0.04452 0.4392818 0.2363612     O
H       0.0516   0.7863   0.6164     H
H       0.0536   0.6944   0.0984     H
H       0.0547   0.7046   0.3749     H
C      0.05634  0.56014 0.5759117     C
C      0.05814  0.39724 0.1078318     C
H       0.0608   0.8206   0.8921     H
C      0.06464  0.92854 0.4184917     C
C      0.06534  0.57784 0.5261317     C
C      0.06594  0.91954 0.4698217     C
H       0.0665   0.9776   0.0929     H
C      0.06814  0.08714 0.8999018     C
H       0.0683   0.4089   0.1415     H
C      0.07314  0.93494 0.6950416     C
C      0.07714  0.56414 0.2927016     C
H       0.0776   0.5394   0.9019     H
C      0.08154  0.83154 0.6332416     C
H       0.0829   0.0694   0.8679     H
N      0.08294  0.16932 0.5361414     N
C      0.08384  0.16024 0.5851917     C
N      0.08394  0.33262 0.4698913     N
C      0.08494  0.57424 0.1915816     C
C      0.08524  0.66144 0.3570718     C
C      0.08634  0.93444 0.7959016     C
C      0.08844  0.65934 0.1210517     C
C      0.09114  0.34974 0.4224117     C
O      0.09142  0.45302 0.7635811     O
O      0.09192  0.04622 0.2513211     O
C      0.09414  0.85384 0.8686717     C
H       0.1036   0.5235   0.5917     H
H       0.1149    0.962   0.4031     H
N      0.11664  0.33102 0.0361014     N
N      0.11724  0.16742 0.9694014     N
H       0.1211   0.5593   0.0315     H
C      0.12594  0.55604 0.9970917     C
C      0.12874  0.34924 0.0831717     C
C      0.13034  0.93894 0.0024017     C
H        0.132   0.9606   0.5357     H
H       0.1322   0.9255   0.9688     H
C      0.13494  0.14024 0.9240717     C
H       0.1359   0.1876   0.6042     H
O      0.13742  0.34782 0.5846912     O
H         0.14   0.5495   0.4612     H
C      0.14344  0.95864 0.5016717     C
H       0.1448   0.3247   0.4043     H
C      0.14564  0.54332 0.4954817     C
O      0.14734  0.16242 0.4252913     O
O      0.15702  0.15812 0.0863612     O
O      0.16492  0.33612 0.9214012     O
C      0.16574  0.96904 0.6787616     C
C      0.17134  0.52894 0.3086116     C
C      0.17694  0.86394 0.6185216     C
H       0.1776   0.4274   0.6582     H
C      0.18234  0.63004 0.3715816     C
H       0.1833   0.0808   0.3535     H
Zn    0.183714 0.250443 0.503802    Zn
H       0.1882   0.3284   0.1005     H
O      0.18862  0.78342 0.5470811     O
C      0.19114  0.55794 0.1876917     C
H       0.1925   0.0173   0.6935     H
C      0.19334  0.94984 0.8004816     C
C      0.19524  0.64314 0.1165916     C
H       0.1959   0.1584   0.9081     H
O      0.19592  0.71072 0.4425711     O
H       0.1984   0.4823   0.2927     H
C      0.20184  0.86914 0.8729016     C
N      0.20614  0.98042 0.0217514     N
N      0.20684  0.52232 0.9786714     N
O      0.20884  0.72112 0.0448212     O
H       0.2109   0.0404   0.1418     H
Zn    0.214274 0.249243 0.003402    Zn
H       0.2175   0.4559   0.8683     H
C      0.21784  0.93354 0.6418417     C
O      0.22062  0.78672 0.9433412     O
N      0.22394  0.50472 0.5142214     N
C      0.22394  0.56274 0.3474916     C
H       0.2263   0.5237   0.2106     H
H       0.2273   0.9828   0.7772     H
N      0.22794  0.99092 0.4845714     N
C      0.23194  0.33224 0.5864517     C
C      0.24004  0.82584 0.5789616     C
C      0.24194  0.17684 0.4236417     C
C      0.24434  0.59234 0.1498118     C
C      0.24694  0.66754 0.4122016     C
C      0.24934  0.91694 0.8387717     C
C      0.25074  0.41694 0.6612317     C
C      0.25314  0.16754 0.0878016     C
C      0.25574  0.09234 0.3501918     C
C      0.25814  0.67684 0.0763617     C
C      0.26004  0.32584 0.9210416     C
C      0.26814  0.83224 0.9135517     C
N      0.27214  0.49092 0.0154314     N
H       0.2727   0.4828   0.7228     H
H       0.2737   0.0237   0.2894     H
N      0.27614  0.00472 0.9857814     N
C      0.27614  0.06274 0.1525116     C
O      0.27942  0.28672 0.5566612     O
C      0.28224  0.43354 0.8581617     C
H       0.2825   0.9559   0.6317     H
Zn    0.285734 0.749243 0.496602    Zn
H       0.2891   0.5404   0.3582     H
O      0.29124  0.22112 0.4551812     O
N      0.29324  0.02232 0.5213314     N
N      0.29394  0.48042 0.4782514     N
C      0.29824  0.36914 0.6271016     C
H       0.3016   0.9823   0.2073     H
H       0.3041   0.6584   0.5919     H
O      0.30412  0.21072 0.0574311     O
C      0.30484  0.14314 0.3834116     C
C      0.30674  0.44984 0.6995216     C
H       0.3075   0.5173   0.8065     H
C      0.30894  0.05794 0.3123117     C
O      0.31142  0.28342 0.9529211     O
H       0.3118   0.8284   0.3995     H
Zn    0.316294 0.750443 0.996202    Zn
H       0.3167   0.5808   0.1465     H
C      0.31774  0.13004 0.1284216     C
H       0.3224   0.9274   0.8418     H
C      0.32314  0.36394 0.8814816     C
C      0.32874  0.02894 0.1913916     C
C      0.33434  0.46904 0.8212416     C
O      0.33512  0.83612 0.5786012     O
O      0.34302  0.65812 0.4136412     O
O      0.35274  0.66242 0.0747113     O
C      0.35444  0.04332 0.0045217     C
H       0.3552   0.8247   0.0957     H
C      0.35664  0.45864 0.9983317     C
H         0.36   0.0495   0.0388     H
O      0.36262  0.84782 0.9153112     O
H       0.3641   0.6876   0.8958     H
C      0.36514  0.64024 0.5759317     C
H       0.3678   0.4255   0.5312     H
H        0.368   0.4606   0.9643     H
C      0.36974  0.43894 0.4976017     C
C      0.37134  0.84924 0.4168317     C
C      0.37414  0.05604 0.5029117     C
H       0.3789   0.0593   0.4685     H
N      0.38284  0.66742 0.5306014     N
N      0.38344  0.83102 0.4639014     N
H       0.3851    0.462   0.0969     H
H       0.3964   0.0235   0.9083     H
C      0.40594  0.35384 0.6313317     C
O      0.40812  0.54622 0.2486811     O
O      0.40862  0.95302 0.7364211     O
C      0.40894  0.84974 0.0775917     C
C      0.41164  0.15934 0.3789517     C
C      0.41374  0.43444 0.7041016     C
C      0.41484  0.16144 0.1429318     C
C      0.41514  0.07424 0.3084216     C
N      0.41614  0.83262 0.0301113     N
C      0.41624  0.66024 0.9148117     C
H       0.4171   0.5694   0.6321     H
N      0.41714  0.66932 0.9638614     N
C      0.41854  0.33154 0.8667616     C
H       0.4224   0.0394   0.5981     H
C      0.42294  0.06414 0.2073016     C
C      0.42694  0.43494 0.8049616     C
H       0.4317   0.9089   0.3585     H
C      0.43194  0.58714 0.6001018     C
H       0.4335   0.4776   0.4071     H
C      0.43414  0.41954 0.0301817     C
C      0.43474  0.07784 0.9738717     C
C      0.43544  0.42854 0.0815117     C
H       0.4392   0.3206   0.6079     H
C      0.44194  0.89724 0.3921718     C
C      0.44374  0.06014 0.9240917     C
H       0.4453   0.2046   0.1251     H
H       0.4464   0.1944   0.4016     H
H       0.4484   0.2863   0.8836     H
O      0.45552 0.9392818 0.2636412     O
O      0.45862  0.56342 0.7537512     O
C      0.45874  0.41204 0.4691117     C
C      0.45914  0.08944 0.5336317     C
H       0.4604   0.8654   0.6613     H
H        0.462    0.622   0.3273     H
C      0.46464  0.38734 0.6699416     C
C      0.46624  0.86234 0.4882317     C
C      0.46674  0.12434 0.3416117     C
C      0.46694  0.12974 0.1834416     C
H       0.4678   0.6584   0.1837     H
H       0.4684   0.8476   0.8054     H
C      0.46934  0.36524 0.8276516     C
C      0.46994  0.64054 0.5086516     C
H       0.4708   0.9143   0.1349     H
C      0.47234  0.07234 0.5821017     C
H       0.4741   0.8509    0.522     H
C      0.47814  0.90334 0.1011918     C
C      0.47964  0.44014 0.4228517     C
H       0.4829   0.6584   0.4765     H
S     0.482918 0.024487 0.261084     S
S     0.484238 0.477937 0.753464     S
H       0.4876   0.6069    0.857     H
C      0.48964  0.61184 0.8914617     C
C      0.49114  0.63022 0.9906217     C
H       0.4922   0.6369    0.025     H
C      0.49294  0.86804 0.0048817     C
H       0.4983   0.8557   0.9712     H
H       0.5017   0.1443   0.0288     H
C      0.50714  0.13204 0.9951217     C
H       0.5078   0.3631    0.975     H
C      0.50894  0.36982 0.0093817     C
C      0.51044  0.38824 0.1085417     C
H       0.5124   0.3931    0.143     H
S     0.515778 0.522077 0.246544     S
S     0.517098 0.975527 0.738924     S
H       0.5171   0.3416   0.5235     H
C      0.52044  0.55994 0.5771517     C
C      0.52194  0.09674 0.8988118     C
H       0.5259   0.1491    0.478     H
C      0.52774  0.92774 0.4179017     C
H       0.5292   0.0857   0.8651     H
C      0.53014  0.35954 0.4913516     C
C      0.53074  0.63484 0.1723516     C
H       0.5316   0.1524   0.1946     H
H       0.5322   0.3416   0.8163     H
C      0.53314  0.87034 0.8165616     C
C      0.53334  0.87574 0.6583917     C
C      0.53384  0.13774 0.5117717     C
C      0.53544  0.61274 0.3300616     C
H        0.538    0.378   0.6727     H
H       0.5396   0.1346   0.3387     H
C      0.54094  0.91064 0.4663717     C
C      0.54134  0.58804 0.5308917     C
O      0.54142  0.43662 0.2462512     O
O      0.54452 0.0607218 0.7363612     O
H       0.5516   0.7137   0.1164     H
H       0.5536   0.8056   0.5984     H
H       0.5547   0.7954   0.8749     H
C      0.55634  0.93994 0.0759117     C
C      0.55814  0.10284 0.6078318     C
H       0.5608   0.6794   0.3921     H
C      0.56464  0.57154 0.9184917     C
C      0.56534  0.92224 0.0261317     C
C      0.56594  0.58054 0.9698217     C
H       0.5665   0.5224   0.5929     H
C      0.56814  0.41294 0.3999018     C
H       0.5683   0.0911   0.6415     H
C      0.57314  0.56514 0.1950416     C
C      0.57714  0.93594 0.7927016     C
H       0.5776   0.9606   0.4019     H
C      0.58154  0.66854 0.1332416     C
H       0.5829   0.4306   0.3679     H
N      0.58294  0.33072 0.0361414     N
C      0.58384  0.33984 0.0851917     C
N      0.58394  0.16742 0.9698913     N
C      0.58494  0.92584 0.6915816     C
C      0.58524  0.83864 0.8570718     C
C      0.58634  0.56564 0.2959016     C
C      0.58844  0.84074 0.6210517     C
C      0.59114  0.15034 0.9224117     C
O      0.59142  0.04702 0.2635811     O
O      0.59192  0.45382 0.7513211     O
C      0.59414  0.64624 0.3686717     C
H       0.6036   0.9765   0.0917     H
H       0.6149    0.538   0.9031     H
N      0.61664  0.16902 0.5361014     N
N      0.61724  0.33262 0.4694014     N
H       0.6211   0.9407   0.5315     H
C      0.62594  0.94404 0.4970917     C
C      0.62874  0.15084 0.5831717     C
C      0.63034  0.56114 0.5024017     C
H        0.632   0.5394   0.0357     H
H       0.6322   0.5745   0.4688     H
C      0.63494  0.35984 0.4240717     C
H       0.6359   0.3124   0.1042     H
O      0.63742  0.15222 0.0846912     O
H         0.64   0.9505   0.9612     H
C      0.64344  0.54144 0.0016717     C
H       0.6448   0.1753   0.9043     H
C      0.64564  0.95672 0.9954817     C
O      0.64734  0.33762 0.9252913     O
O      0.65702  0.34192 0.5863612     O
O      0.66492  0.16392 0.4214012     O
C      0.66574  0.53104 0.1787616     C
C      0.67134  0.97114 0.8086116     C
C      0.67694  0.63614 0.1185216     C
H       0.6776   0.0726   0.1582     H
C      0.68234  0.87004 0.8715816     C
H       0.6833   0.4192   0.8535     H
Zn    0.683714 0.249563 0.003802    Zn
H       0.6882   0.1716   0.6005     H
O      0.68862  0.71662 0.0470811     O
C      0.69114  0.94214 0.6876917     C
H       0.6925   0.4827   0.1935     H
C      0.69334  0.55024 0.3004816     C
C      0.69524  0.85694 0.6165916     C
H       0.6959   0.3416   0.4081     H
O      0.69592  0.78932 0.9425711     O
H       0.6984   0.0177   0.7927     H
C      0.70184  0.63094 0.3729016     C
N      0.70614  0.51962 0.5217514     N
N      0.70684  0.97772 0.4786714     N
O      0.70884  0.77892 0.5448212     O
H       0.7109   0.4596   0.6418     H
Zn    0.714274 0.250763 0.503402    Zn
H       0.7175   0.0441   0.3683     H
C      0.71784  0.56654 0.1418417     C
O      0.72062  0.71332 0.4433412     O
C      0.72394  0.93734 0.8474916     C
N      0.72394  0.99532 0.0142214     N
H       0.7263   0.9763   0.7106     H
H       0.7273   0.5172   0.2772     H
N      0.72794  0.50912 0.9845714     N
C      0.73194  0.16784 0.0864517     C
C      0.74004  0.67424 0.0789616     C
C      0.74194  0.32324 0.9236417     C
C      0.74434  0.90774 0.6498118     C
C      0.74694  0.83254 0.9122016     C
C      0.74934  0.58314 0.3387717     C
C      0.75074  0.08314 0.1612317     C
C      0.75314  0.33254 0.5878016     C
C      0.75574  0.40774 0.8501918     C
C      0.75814  0.82324 0.5763617     C
C      0.76004  0.17424 0.4210416     C
C      0.76814  0.66784 0.4135517     C
N      0.77214  0.00912 0.5154314     N
H       0.7727   0.0172   0.2228     H
H       0.7737   0.4763   0.7894     H
C      0.77614  0.43734 0.6525116     C
N      0.77614  0.49532 0.4857814     N
O      0.77942  0.21332 0.0566612     O
C      0.78224  0.06654 0.3581617     C
H       0.7825   0.5441   0.1317     H
Zn    0.785734 0.750763 0.996602    Zn
H       0.7891   0.9596   0.8582     H
O      0.79124  0.27892 0.9551812     O
N      0.79324  0.47772 0.0213314     N
N      0.79394  0.01962 0.9782514     N
C      0.79824  0.13094 0.1271016     C
H       0.8016   0.5177   0.7073     H
H       0.8041   0.8416   0.0919     H
O      0.80412  0.28932 0.5574311     O
C      0.80484  0.35694 0.8834116     C
C      0.80674  0.05024 0.1995216     C
H       0.8075   0.9827   0.3065     H
C      0.80894  0.44214 0.8123117     C
O      0.81142  0.21662 0.4529211     O
H       0.8118   0.6716   0.8995     H
Zn    0.816294 0.749563 0.496202    Zn
H       0.8167   0.9192   0.6465     H
C      0.81774  0.37004 0.6284216     C
H       0.8224   0.5726   0.3418     H
C      0.82314  0.13614 0.3814816     C
C      0.82874  0.47114 0.6913916     C
C      0.83434  0.03104 0.3212416     C
O      0.83512  0.66392 0.0786012     O
O      0.84302  0.84192 0.9136412     O
O      0.85274  0.83762 0.5747113     O
C      0.85444  0.45672 0.5045217     C
H       0.8552   0.6753   0.5957     H
C      0.85664  0.04144 0.4983317     C
H         0.86   0.4505   0.5388     H
O      0.86262  0.65222 0.4153112     O
H       0.8641   0.8124   0.3958     H
C      0.86514  0.85984 0.0759317     C
H       0.8678   0.0745   0.0312     H
H        0.868   0.0394   0.4643     H
C      0.86974  0.06114 0.9976017     C
C      0.87134  0.65084 0.9168317     C
C      0.87414  0.44404 0.0029117     C
H       0.8789   0.4407   0.9685     H
N      0.88284  0.83262 0.0306014     N
N      0.88344  0.66902 0.9639014     N
H       0.8851    0.038   0.5969     H
H       0.8964   0.4765   0.4083     H
C      0.90594  0.14624 0.1313317     C
O      0.90812  0.95382 0.7486811     O
O      0.90862  0.54702 0.2364211     O
C      0.90894  0.65034 0.5775917     C
C      0.91164  0.34074 0.8789517     C
C      0.91374  0.06564 0.2041016     C
C      0.91484  0.33864 0.6429318     C
C      0.91514  0.42584 0.8084216     C
N      0.91614  0.66742 0.5301113     N
C      0.91624  0.83984 0.4148117     C
H       0.9171   0.9306   0.1321     H
N      0.91714  0.83072 0.4638614     N
C      0.91854  0.16854 0.3667616     C
H       0.9224   0.4606   0.0981     H
C      0.92294  0.43594 0.7073016     C
C      0.92694  0.06514 0.3049616     C
H       0.9317   0.5911   0.8585     H
C      0.93194  0.91294 0.1001018     C
H       0.9335   0.0224   0.9071     H
C      0.93414  0.08054 0.5301817     C
C      0.93474  0.42224 0.4738717     C
C      0.93544  0.07154 0.5815117     C
H       0.9392   0.1794   0.1079     H
C      0.94194  0.60284 0.8921718     C
C      0.94374  0.43994 0.4240917     C
H       0.9453   0.2954   0.6251     H
H       0.9464   0.3056   0.9016     H
H       0.9484   0.2137   0.3836     H
O      0.95552 0.5607218 0.7636412     O
O      0.95862  0.93662 0.2537512     O
C      0.95874  0.08804 0.9691117     C
C      0.95914  0.41064 0.0336317     C
H       0.9604   0.6346   0.1613     H
H        0.962    0.878   0.8273     H
C      0.96464  0.11274 0.1699416     C
C      0.96624  0.63774 0.9882317     C
C      0.96674  0.37574 0.8416117     C
C      0.96694  0.37034 0.6834416     C
H       0.9678   0.8416   0.6837     H
H       0.9684   0.6524   0.3054     H
C      0.96934  0.13484 0.3276516     C
C      0.96994  0.85954 0.0086516     C
H       0.9708   0.5857   0.6349     H
C      0.97234  0.42774 0.0821017     C
H       0.9741   0.6491    0.022     H
C      0.97814  0.59674 0.6011918     C
C      0.97964  0.05994 0.9228517     C
H       0.9829   0.8416   0.9765     H
S     0.982918 0.475527 0.761084     S
S     0.984238 0.022077 0.253464     S
H       0.9876   0.8931    0.357     H
C      0.98964  0.88824 0.3914617     C
C      0.99114  0.86982 0.4906217     C
H       0.9922   0.8631    0.525     H
C      0.99294  0.63204 0.5048817     C
H       0.9983   0.6443   0.4712     H
