data_I
_chemical_name_common  'val_18'
_cell_length_a 28.83520
_cell_length_b 10.00887
_cell_length_c 21.92430
_cell_angle_alpha 90.00000
_cell_angle_beta  128.84320
_cell_angle_gamma 90.00000
_space_group_name_H-M_alt      'P 1'


loop_
_space_group_symop_operation_xyz
  'x, y, z' 

loop_
_atom_site_label
_atom_site_fract_x
_atom_site_fract_y
_atom_site_fract_z
_atom_site_type_symbol
Ni         0.0      0.5      0.0    Ni
Ni         0.0      0.5      0.5    Ni
N     0.026617  0.42532 0.107289     N
N     0.026617  0.57472 0.607289     N
H       0.0279   0.4058   0.6521     H
H       0.0279   0.5942   0.1521     H
H       0.0311   0.2376   0.0856     H
H       0.0311   0.7624   0.5856     H
C     0.0352711  0.49674 0.6624213     C
C     0.0352711  0.50334 0.1624213     C
C     0.037121  0.29444 0.1235712     C
C     0.037121  0.70564 0.6235712     C
O     0.047696 0.3493316 0.994288     O
O     0.047696 0.6506716 0.494288     O
C     0.0546911  0.45714 0.2349112     C
C     0.0546911  0.54294 0.7349112     C
C     0.056431  0.23964 0.1937012     C
C     0.056431  0.76044 0.6937012     C
H       0.0601   0.4838   0.7717     H
H       0.0601   0.5162   0.2717     H
O     0.060487  0.09362 0.5260211     O
O     0.060487  0.90642 0.0260211     O
H       0.0631   0.1481    0.202     H
H       0.0631   0.8519    0.702     H
C     0.065979  0.32064 0.2517111     C
C     0.065979  0.67944 0.7517111     C
H       0.0672   0.0727    0.299     H
H       0.0672   0.9273    0.799     H
O     0.071686 0.3695216 0.553228     O
O     0.071686 0.6304816 0.053228     O
C     0.0836312  0.13254 0.3403314     C
C     0.0836312  0.86754 0.8403314     C
C     0.086949  0.26734 0.3285412     C
C     0.086949  0.73274 0.8285412     C
C     0.102218  0.37242 0.0290111     C
C     0.102218  0.62762 0.5290111     C
H       0.1029   0.0043   0.9199     H
H       0.1029   0.9957   0.4199     H
C     0.1046612  0.08674 0.4131214     C
C     0.1046612  0.91334 0.9131214     C
C     0.1102112  0.35014 0.3918913     C
C     0.1102112  0.64994 0.8918913     C
H       0.1125   0.4417   0.3869     H
H       0.1125   0.5583   0.8869     H
O     0.124257  0.39242 0.996099     O
O     0.124257  0.60762 0.496099     O
C     0.126618  0.37342 0.6090311     C
C     0.126618  0.62662 0.1090311     C
N     0.127488  0.16822 0.474151     N
N     0.127488  0.83182 0.974151     N
C     0.1301812  0.29744 0.4628813     C
C     0.1301812  0.70264 0.9628813     C
C     0.143468  0.37782 0.1178711     C
C     0.143468  0.62222 0.6178711     C
H       0.1464   0.3554   0.5049     H
H       0.1464   0.6446   0.0049     H
O     0.146947 0.1133817 0.062639     O
O     0.146947 0.8866217 0.562639     O
Ni    0.1508211 0.097733 0.57888813    Ni
Ni    0.1508211 0.902273 0.07888813    Ni
C     0.154568  0.49982 0.1557111     C
C     0.154568  0.50022 0.6557111     C
C     0.159708  0.12672 0.1288311     C
C     0.159708  0.87332 0.6288311     C
O     0.161586 0.2777016 0.629048     O
O     0.161586 0.7223016 0.129048     O
O     0.166846 0.0248516 0.167548     O
O     0.166846 0.9751516 0.667548     O
C     0.169128  0.26252 0.1641411     C
C     0.169128  0.73752 0.6641411     C
C     0.192178  0.49222 0.7372211     C
C     0.192178  0.50782 0.2372211     C
H       0.2008   0.4096   0.7616     H
H       0.2008   0.5904   0.2616     H
C     0.204848  0.26952 0.2446211     C
C     0.204848  0.73052 0.7446211     C
C     0.216858  0.39242 0.2821211     C
C     0.216858  0.60762 0.7821211     C
H       0.2211   0.1917   0.2742     H
H       0.2211   0.8083   0.7742     H
N     0.243778  0.10222 0.634371     N
N     0.243778  0.89782 0.134371     N
H       0.2474   0.4712   0.3803     H
H       0.2474   0.5288   0.8803     H
H       0.2492   0.3263   0.3836     H
H       0.2492   0.6737   0.8836     H
H       0.2508   0.1737   0.6164     H
H       0.2508   0.8263   0.1164     H
H       0.2526   0.0288   0.6197     H
H       0.2526   0.9712   0.1197     H
N     0.256238  0.39782 0.365631     N
N     0.256238  0.60222 0.865631     N
H       0.2789   0.3083   0.7258     H
H       0.2789   0.6917   0.2258     H
C     0.283158  0.10762 0.7178811     C
C     0.283158  0.89242 0.2178811     C
C     0.295168  0.23052 0.7553811     C
C     0.295168  0.76952 0.2553811     C
H       0.2992   0.0904   0.2384     H
H       0.2992   0.9096   0.7384     H
C     0.307838  0.00782 0.2627811     C
C     0.307838  0.99222 0.7627811     C
C     0.330888  0.23752 0.8358611     C
C     0.330888  0.76252 0.3358611     C
O     0.333166 0.4751516 0.832468     O
O     0.333166 0.5248516 0.332468     O
O     0.338426 0.2223016 0.370968     O
O     0.338426 0.7777016 0.870968     O
C     0.340308  0.37332 0.8711711     C
C     0.340308  0.62672 0.3711711     C
C     0.345448  0.00022 0.8442911     C
C     0.345448  0.99982 0.3442911     C
Ni    0.3491791 0.402273 0.42111213    Ni
Ni    0.3491791 0.597733 0.92111213    Ni
O     0.353067 0.3866217 0.937379     O
O     0.353067 0.6133817 0.437379     O
H       0.3536   0.1446   0.4951     H
H       0.3536   0.8554   0.9951     H
C     0.356548  0.12222 0.8821311     C
C     0.356548  0.87782 0.3821311     C
C     0.3698212  0.20264 0.5371213     C
C     0.3698212  0.79744 0.0371213     C
N     0.372528  0.33182 0.525851     N
N     0.372528  0.66822 0.025851     N
C     0.373398  0.12662 0.3909711     C
C     0.373398  0.87342 0.8909711     C
O     0.375757  0.10762 0.003919     O
O     0.375757  0.89242 0.503919     O
H       0.3875   0.0583   0.6131     H
H       0.3875   0.9417   0.1131     H
C     0.3897912  0.14994 0.6081113     C
C     0.3897912  0.85014 0.1081113     C
C     0.3953412  0.41334 0.5868814     C
C     0.3953412  0.58674 0.0868814     C
H       0.3971   0.4957   0.0801     H
H       0.3971   0.5043   0.5801     H
C     0.397798  0.12762 0.9709911     C
C     0.397798  0.87242 0.4709911     C
C     0.413069  0.23274 0.6714612     C
C     0.413069  0.76734 0.1714612     C
C     0.4163712  0.36754 0.6596714     C
C     0.4163712  0.63254 0.1596714     C
O     0.428326 0.1304816 0.446788     O
O     0.428326 0.8695216 0.946788     O
H       0.4328   0.4273    0.701     H
H       0.4328   0.5727    0.201     H
C     0.434039  0.17944 0.7482911     C
C     0.434039  0.82064 0.2482911     C
H       0.4369   0.3519    0.798     H
H       0.4369   0.6481    0.298     H
O     0.439527  0.40642 0.4739811     O
O     0.439527  0.59362 0.9739811     O
H       0.4399   0.0162   0.2283     H
H       0.4399   0.9838   0.7283     H
C     0.443571  0.26044 0.8063012     C
C     0.443571  0.73964 0.3063012     C
C     0.4453111  0.04294 0.7650912     C
C     0.4453111  0.95714 0.2650912     C
O     0.452316 0.1506716 0.005728     O
O     0.452316 0.8493316 0.505728     O
C     0.462881  0.20564 0.8764312     C
C     0.462881  0.79444 0.3764312     C
C     0.4647311  0.00334 0.3375813     C
C     0.4647311  0.99674 0.8375813     C
H       0.4689   0.2624   0.9144     H
H       0.4689   0.7376   0.4144     H
H       0.4721   0.0942   0.3479     H
H       0.4721   0.9058   0.8479     H
N     0.473397  0.07472 0.892729     N
N     0.473397  0.92532 0.392729     N
Ni         0.5      0.0      0.0    Ni
Ni         0.5      0.0      0.5    Ni
N     0.526617  0.07472 0.607289     N
N     0.526617  0.92532 0.107289     N
H       0.5279   0.0942   0.1521     H
H       0.5279   0.9058   0.6521     H
H       0.5311   0.2624   0.5856     H
H       0.5311   0.7376   0.0856     H
C     0.5352711  0.00334 0.1624213     C
C     0.5352711  0.99674 0.6624213     C
C     0.537121  0.20564 0.6235712     C
C     0.537121  0.79444 0.1235712     C
O     0.547696 0.1506716 0.494288     O
O     0.547696 0.8493316 0.994288     O
C     0.5546911  0.04294 0.7349112     C
C     0.5546911  0.95714 0.2349112     C
C     0.556431  0.26044 0.6937012     C
C     0.556431  0.73964 0.1937012     C
H       0.5601   0.0162   0.2717     H
H       0.5601   0.9838   0.7717     H
O     0.560487  0.40642 0.0260211     O
O     0.560487  0.59362 0.5260211     O
H       0.5631   0.3519    0.702     H
H       0.5631   0.6481    0.202     H
C     0.565979  0.17944 0.7517111     C
C     0.565979  0.82064 0.2517111     C
H       0.5672   0.4273    0.799     H
H       0.5672   0.5727    0.299     H
O     0.571686 0.1304816 0.053228     O
O     0.571686 0.8695216 0.553228     O
C     0.5836312  0.36754 0.8403314     C
C     0.5836312  0.63254 0.3403314     C
C     0.586949  0.23274 0.8285412     C
C     0.586949  0.76734 0.3285412     C
C     0.602218  0.12762 0.5290111     C
C     0.602218  0.87242 0.0290111     C
H       0.6029   0.4957   0.4199     H
H       0.6029   0.5043   0.9199     H
C     0.6046612  0.41334 0.9131214     C
C     0.6046612  0.58674 0.4131214     C
C     0.6102112  0.14994 0.8918913     C
C     0.6102112  0.85014 0.3918913     C
H       0.6125   0.0583   0.8869     H
H       0.6125   0.9417   0.3869     H
O     0.624257  0.10762 0.496099     O
O     0.624257  0.89242 0.996099     O
C     0.626618  0.12662 0.1090311     C
C     0.626618  0.87342 0.6090311     C
N     0.627488  0.33182 0.974151     N
N     0.627488  0.66822 0.474151     N
C     0.6301812  0.20264 0.9628813     C
C     0.6301812  0.79744 0.4628813     C
C     0.643468  0.12222 0.6178711     C
C     0.643468  0.87782 0.1178711     C
H       0.6464   0.1446   0.0049     H
H       0.6464   0.8554   0.5049     H
O     0.646947 0.3866217 0.562639     O
O     0.646947 0.6133817 0.062639     O
Ni    0.6508211 0.402273 0.07888813    Ni
Ni    0.6508211 0.597733 0.57888813    Ni
C     0.654568  0.00022 0.6557111     C
C     0.654568  0.99982 0.1557111     C
C     0.659708  0.37332 0.6288311     C
C     0.659708  0.62672 0.1288311     C
O     0.661586 0.2223016 0.129048     O
O     0.661586 0.7777016 0.629048     O
O     0.666846 0.4751516 0.667548     O
O     0.666846 0.5248516 0.167548     O
C     0.669128  0.23752 0.6641411     C
C     0.669128  0.76252 0.1641411     C
C     0.692178  0.00782 0.2372211     C
C     0.692178  0.99222 0.7372211     C
H       0.7008   0.0904   0.2616     H
H       0.7008   0.9096   0.7616     H
C     0.704848  0.23052 0.7446211     C
C     0.704848  0.76952 0.2446211     C
C     0.716858  0.10762 0.7821211     C
C     0.716858  0.89242 0.2821211     C
H       0.7211   0.3083   0.7742     H
H       0.7211   0.6917   0.2742     H
N     0.743778  0.39782 0.134371     N
N     0.743778  0.60222 0.634371     N
H       0.7474   0.0288   0.8803     H
H       0.7474   0.9712   0.3803     H
H       0.7492   0.1737   0.8836     H
H       0.7492   0.8263   0.3836     H
H       0.7508   0.3263   0.1164     H
H       0.7508   0.6737   0.6164     H
H       0.7526   0.4712   0.1197     H
H       0.7526   0.5288   0.6197     H
N     0.756238  0.10222 0.865631     N
N     0.756238  0.89782 0.365631     N
H       0.7789   0.1917   0.2258     H
H       0.7789   0.8083   0.7258     H
C     0.783158  0.39242 0.2178811     C
C     0.783158  0.60762 0.7178811     C
C     0.795168  0.26952 0.2553811     C
C     0.795168  0.73052 0.7553811     C
H       0.7992   0.4096   0.7384     H
H       0.7992   0.5904   0.2384     H
C     0.807838  0.49222 0.7627811     C
C     0.807838  0.50782 0.2627811     C
C     0.830888  0.26252 0.3358611     C
C     0.830888  0.73752 0.8358611     C
O     0.833166 0.0248516 0.332468     O
O     0.833166 0.9751516 0.832468     O
O     0.838426 0.2777016 0.870968     O
O     0.838426 0.7223016 0.370968     O
C     0.840308  0.12672 0.3711711     C
C     0.840308  0.87332 0.8711711     C
C     0.845448  0.49982 0.3442911     C
C     0.845448  0.50022 0.8442911     C
Ni    0.8491791 0.097733 0.92111213    Ni
Ni    0.8491791 0.902273 0.42111213    Ni
O     0.853067 0.1133817 0.437379     O
O     0.853067 0.8866217 0.937379     O
H       0.8536   0.3554   0.9951     H
H       0.8536   0.6446   0.4951     H
C     0.856548  0.37782 0.3821311     C
C     0.856548  0.62222 0.8821311     C
C     0.8698212  0.29744 0.0371213     C
C     0.8698212  0.70264 0.5371213     C
N     0.872528  0.16822 0.025851     N
N     0.872528  0.83182 0.525851     N
C     0.873398  0.37342 0.8909711     C
C     0.873398  0.62662 0.3909711     C
O     0.875757  0.39242 0.503919     O
O     0.875757  0.60762 0.003919     O
H       0.8875   0.4417   0.1131     H
H       0.8875   0.5583   0.6131     H
C     0.8897912  0.35014 0.1081113     C
C     0.8897912  0.64994 0.6081113     C
C     0.8953412  0.08674 0.0868814     C
C     0.8953412  0.91334 0.5868814     C
H       0.8971   0.0043   0.5801     H
H       0.8971   0.9957   0.0801     H
C     0.897798  0.37242 0.4709911     C
C     0.897798  0.62762 0.9709911     C
C     0.913069  0.26734 0.1714612     C
C     0.913069  0.73274 0.6714612     C
C     0.9163712  0.13254 0.1596714     C
C     0.9163712  0.86754 0.6596714     C
O     0.928326 0.3695216 0.946788     O
O     0.928326 0.6304816 0.446788     O
H       0.9328   0.0727    0.201     H
H       0.9328   0.9273    0.701     H
C     0.934039  0.32064 0.2482911     C
C     0.934039  0.67944 0.7482911     C
H       0.9369   0.1481    0.298     H
H       0.9369   0.8519    0.798     H
O     0.939527  0.09362 0.9739811     O
O     0.939527  0.90642 0.4739811     O
H       0.9399   0.4838   0.7283     H
H       0.9399   0.5162   0.2283     H
C     0.943571  0.23964 0.3063012     C
C     0.943571  0.76044 0.8063012     C
C     0.9453111  0.45714 0.2650912     C
C     0.9453111  0.54294 0.7650912     C
O     0.952316 0.3493316 0.505728     O
O     0.952316 0.6506716 0.005728     O
C     0.962881  0.29444 0.3764312     C
C     0.962881  0.70564 0.8764312     C
C     0.9647311  0.49674 0.8375813     C
C     0.9647311  0.50334 0.3375813     C
H       0.9689   0.2376   0.4144     H
H       0.9689   0.7624   0.9144     H
H       0.9721   0.4058   0.8479     H
H       0.9721   0.5942   0.3479     H
N     0.973397  0.42532 0.392729     N
N     0.973397  0.57472 0.892729     N
