data_I
_chemical_name_common  'val_21'
_cell_length_a 17.12437
_cell_length_b 17.12437
_cell_length_c 24.15591
_cell_angle_alpha 90.00000
_cell_angle_beta  90.00000
_cell_angle_gamma 90.00000
_space_group_name_H-M_alt      'P 1'


loop_
_space_group_symop_operation_xyz
  'x, y, z' 

loop_
_atom_site_label
_atom_site_fract_x
_atom_site_fract_y
_atom_site_fract_z
_atom_site_type_symbol
Sc         0.0 0.280385      0.0    Sc
Sc         0.0 0.719625      0.0    Sc
H     0.001823 0.293017 0.179033     H
H     0.001823 0.706983 0.820967     H
C      0.00294  0.35184 0.4222316     C
C      0.00294  0.64824 0.5777716     C
H     0.004495 0.402788 0.563148     H
H     0.004495 0.597212 0.436852     H
H     0.004857 0.279028 0.274462     H
H     0.004857 0.720972 0.725538     H
C      0.02154  0.20464  0.37872     C
C      0.02154  0.79544  0.62132     C
H      0.02818 0.153865 0.363487     H
H      0.02818 0.846135 0.636513     H
C      0.03814  0.25944 0.7461418     C
C      0.03814  0.74064 0.2538618     C
C      0.04012  0.26744 0.8026816     C
C      0.04012  0.73264 0.1973216     C
C      0.04384  0.24434 0.6309418     C
C      0.04384  0.75574 0.3690618     C
O     0.0459416 0.2789916 0.918341     O
O     0.0459416 0.7210116 0.081661     O
C      0.05514  0.31754  0.60962     C
C      0.05514  0.68254  0.39042     C
C      0.07052  0.31232 0.4325516     C
C      0.07052  0.68772 0.5674516     C
O     0.0771614 0.1933114 0.021711     O
O     0.0771614 0.8066914 0.978291     O
C      0.08024  0.23774  0.41112     C
C      0.08024  0.76234  0.58892     C
O     0.0808714 0.3673414 0.0249111     O
O     0.0808714 0.6326614 0.9750911     O
H     0.097212 0.495505 0.936852     H
H     0.097212 0.504495 0.063148     H
C      0.09944  0.22234 0.7194017     C
C      0.09944  0.77774 0.2806017     C
C      0.10132  0.23912 0.8332916     C
C      0.10132  0.76092 0.1667116     C
H     0.102468 0.344684 0.616611     H
H     0.102468 0.655316 0.383389     H
O      0.10282  0.21074 0.6631212     O
O      0.10282  0.78934 0.3368812     O
C      0.10302  0.24652 0.8942416     C
C      0.10302  0.75352 0.1057616     C
H     0.126663 0.209295 0.418586     H
H     0.126663 0.790705 0.581414     H
O     0.1326614 0.4191314 0.4750911     O
O     0.1326614 0.5808714 0.5249111     O
C      0.13502  0.34782 0.4647614     C
C      0.13502  0.65222 0.5352414     C
C      0.14824  0.49714 0.0777716     C
C      0.14824  0.50294 0.9222316     C
C      0.15222  0.36502 0.0352414     C
C      0.15222  0.63502 0.9647614     C
H     0.153865  0.02818 0.636513     H
H     0.153865  0.97182 0.363487     H
H     0.155316 0.397532 0.883389     H
H     0.155316 0.602468 0.116611     H
C      0.16094  0.19384 0.7492617     C
C      0.16094  0.80624 0.2507417     C
O     0.1621316 0.2212317 0.918711     O
O     0.1621316 0.7787717 0.081291     O
C      0.16234  0.20284 0.8056716     C
C      0.16234  0.79724 0.1943316     C
H       0.1678 0.202603 0.269008     H
H       0.1678 0.797397 0.730992     H
C      0.18254  0.44494  0.89042     C
C      0.18254  0.55514  0.10962     C
H     0.183817 0.205685 0.173866     H
H     0.183817 0.794315 0.826134     H
C      0.18772  0.42952 0.0674516     C
C      0.18772  0.57052 0.9325516     C
O     0.1888214 0.3030816 0.479641     O
O     0.1888214 0.6969216 0.520361     O
Sc    0.193183 0.193183      0.0    Sc
Sc    0.193183 0.806823      0.0    Sc
O     0.1933114 0.0771614 0.978291     O
O     0.1933114 0.9228414 0.021711     O
C      0.19384  0.16094 0.2507417     C
C      0.19384  0.83914 0.7492617     C
O     0.1969216 0.3111814 0.020361     O
O     0.1969216 0.6888214 0.979641     O
H     0.202603   0.1678 0.730992     H
H     0.202603   0.8322 0.269008     H
C      0.20284  0.16234 0.1943316     C
C      0.20284  0.83774 0.8056716     C
C      0.20464  0.02154  0.62132     C
C      0.20464  0.97854  0.37872     C
H     0.205685 0.183817 0.826134     H
H     0.205685 0.816183 0.173866     H
H     0.206983 0.498177 0.320967     H
H     0.206983 0.501823 0.679033     H
H     0.209295 0.126663 0.581414     H
H     0.209295 0.873337 0.418586     H
O      0.21074  0.10282 0.3368812     O
O      0.21074  0.89722 0.6631212     O
Sc    0.219625      0.5      0.5    Sc
H     0.220972 0.495143 0.225538     H
H     0.220972 0.504857 0.774462     H
O     0.2210116 0.4540616 0.581661     O
O     0.2210116 0.5459416 0.418341     O
O     0.2212317 0.1621316 0.081291     O
O     0.2212317 0.8378716 0.918711     O
C      0.22234  0.09944 0.2806017     C
C      0.22234  0.90064 0.7194017     C
C      0.23264  0.45992 0.6973216     C
C      0.23264  0.54012 0.3026816     C
C      0.23774  0.08024  0.58892     C
C      0.23774  0.91984  0.41112     C
C      0.23912  0.10132 0.1667116     C
C      0.23912  0.89872 0.8332916     C
C      0.24064  0.46194 0.7538618     C
C      0.24064  0.53814 0.2461418     C
C      0.24434  0.04384 0.3690618     C
C      0.24434  0.95624 0.6309418     C
C      0.24652  0.10302 0.1057616     C
C      0.24652  0.89702 0.8942416     C
C      0.25352  0.39702 0.6057616     C
C      0.25352  0.60302 0.3942416     C
C      0.25574  0.45624 0.8690618     C
C      0.25574  0.54384 0.1309418     C
C      0.25944  0.03814 0.2538618     C
C      0.25944  0.96194 0.7461418     C
C      0.26092  0.39872 0.6667116     C
C      0.26092  0.60132 0.3332916     C
C      0.26234  0.41984  0.08892     C
C      0.26234  0.58024  0.91112     C
C      0.26744  0.04012 0.1973216     C
C      0.26744  0.95992 0.8026816     C
C      0.27774  0.40064 0.7806017     C
C      0.27774  0.59944 0.2194017     C
O     0.2787717 0.3378716 0.581291     O
O     0.2787717 0.6621316 0.418711     O
O     0.2789916 0.0459416 0.081661     O
O     0.2789916 0.9540616 0.918341     O
H     0.279028 0.004857 0.725538     H
H     0.279028 0.995143 0.274462     H
Sc    0.280385      0.0      0.0    Sc
O      0.28934  0.39722 0.8368812     O
O      0.28934  0.60282 0.1631212     O
H     0.290705 0.373337 0.081414     H
H     0.290705 0.626663 0.918586     H
H     0.293017 0.001823 0.820967     H
H     0.293017 0.998177 0.179033     H
H     0.294315 0.316183 0.326134     H
H     0.294315 0.683817 0.673866     H
C      0.29544  0.47854  0.12132     C
C      0.29544  0.52154  0.87872     C
C      0.29724  0.33774 0.6943316     C
C      0.29724  0.66234 0.3056716     C
H     0.297397   0.3322 0.230992     H
H     0.297397   0.6678 0.769008     H
O     0.3030816 0.1888214 0.520361     O
O     0.3030816 0.8111814 0.479641     O
C      0.30624  0.33914 0.7507417     C
C      0.30624  0.66094 0.2492617     C
O     0.3066914 0.4228414 0.478291     O
O     0.3066914 0.5771614 0.521711     O
Sc    0.306823 0.306823      0.5    Sc
Sc    0.306823 0.693183      0.5    Sc
O     0.3111814 0.1969216 0.979641     O
O     0.3111814 0.8030816 0.020361     O
C      0.31232  0.07052 0.5674516     C
C      0.31232  0.92952 0.4325516     C
H     0.316183 0.294315 0.673866     H
H     0.316183 0.705685 0.326134     H
C      0.31754  0.05514  0.39042     C
C      0.31754  0.94494  0.60962     C
H       0.3322 0.297397 0.769008     H
H       0.3322 0.702603 0.230992     H
C      0.33774  0.29724 0.3056716     C
C      0.33774  0.70284 0.6943316     C
O     0.3378716 0.2787717 0.418711     O
O     0.3378716 0.7212317 0.581291     O
C      0.33914  0.30624 0.2492617     C
C      0.33914  0.69384 0.7507417     C
H     0.344684 0.102468 0.383389     H
H     0.344684 0.897532 0.616611     H
H     0.346135  0.47182 0.136513     H
H     0.346135  0.52818 0.863487     H
C      0.34782  0.13502 0.5352414     C
C      0.34782  0.86502 0.4647614     C
C      0.35184  0.00294 0.5777716     C
C      0.35184  0.99714 0.4222316     C
C      0.36502  0.15222 0.9647614     C
C      0.36502  0.84782 0.0352414     C
O     0.3673414 0.0808714 0.9750911     O
O     0.3673414 0.9191314 0.0249111     O
H     0.373337 0.290705 0.918586     H
H     0.373337 0.709295 0.081414     H
C      0.39702  0.25352 0.3942416     C
C      0.39702  0.74652 0.6057616     C
O      0.39722  0.28934 0.1631212     O
O      0.39722  0.71074 0.8368812     O
H     0.397532 0.155316 0.116611     H
H     0.397532 0.844684 0.883389     H
C      0.39872  0.26092 0.3332916     C
C      0.39872  0.73912 0.6667116     C
C      0.40064  0.27774 0.2194017     C
C      0.40064  0.72234 0.7806017     C
H     0.402788 0.004495 0.436852     H
H     0.402788 0.995505 0.563148     H
O     0.4191314 0.1326614 0.5249111     O
O     0.4191314 0.8673414 0.4750911     O
C      0.41984  0.26234  0.91112     C
C      0.41984  0.73774  0.08892     C
O     0.4228414 0.3066914 0.521711     O
O     0.4228414 0.6933114 0.478291     O
C      0.42952  0.18772 0.9325516     C
C      0.42952  0.81232 0.0674516     C
C      0.44494  0.18254  0.10962     C
C      0.44494  0.81754  0.89042     C
O     0.4540616 0.2210116 0.418341     O
O     0.4540616 0.7789916 0.581661     O
C      0.45624  0.25574 0.1309418     C
C      0.45624  0.74434 0.8690618     C
C      0.45992  0.23264 0.3026816     C
C      0.45992  0.76744 0.6973216     C
C      0.46194  0.24064 0.2461418     C
C      0.46194  0.75944 0.7538618     C
H      0.47182 0.346135 0.863487     H
H      0.47182 0.653865 0.136513     H
C      0.47854  0.29544  0.87872     C
C      0.47854  0.70464  0.12132     C
H     0.495143 0.220972 0.774462     H
H     0.495143 0.779028 0.225538     H
H     0.495505 0.097212 0.063148     H
H     0.495505 0.902788 0.936852     H
C      0.49714  0.14824 0.9222316     C
C      0.49714  0.85184 0.0777716     C
H     0.498177 0.206983 0.679033     H
H     0.498177 0.793017 0.320967     H
Sc         0.5 0.219625      0.5    Sc
Sc         0.5 0.780385      0.5    Sc
H     0.501823 0.206983 0.320967     H
H     0.501823 0.793017 0.679033     H
C      0.50294  0.14824 0.0777716     C
C      0.50294  0.85184 0.9222316     C
H     0.504495 0.097212 0.936852     H
H     0.504495 0.902788 0.063148     H
H     0.504857 0.220972 0.225538     H
H     0.504857 0.779028 0.774462     H
C      0.52154  0.29544  0.12132     C
C      0.52154  0.70464  0.87872     C
H      0.52818 0.346135 0.136513     H
H      0.52818 0.653865 0.863487     H
C      0.53814  0.24064 0.7538618     C
C      0.53814  0.75944 0.2461418     C
C      0.54012  0.23264 0.6973216     C
C      0.54012  0.76744 0.3026816     C
C      0.54384  0.25574 0.8690618     C
C      0.54384  0.74434 0.1309418     C
O     0.5459416 0.2210116 0.581661     O
O     0.5459416 0.7789916 0.418341     O
C      0.55514  0.18254  0.89042     C
C      0.55514  0.81754  0.10962     C
C      0.57052  0.18772 0.0674516     C
C      0.57052  0.81232 0.9325516     C
O     0.5771614 0.3066914 0.478291     O
O     0.5771614 0.6933114 0.521711     O
C      0.58024  0.26234  0.08892     C
C      0.58024  0.73774  0.91112     C
O     0.5808714 0.1326614 0.4750911     O
O     0.5808714 0.8673414 0.5249111     O
H     0.597212 0.004495 0.563148     H
H     0.597212 0.995505 0.436852     H
C      0.59944  0.27774 0.7806017     C
C      0.59944  0.72234 0.2194017     C
C      0.60132  0.26092 0.6667116     C
C      0.60132  0.73912 0.3332916     C
H     0.602468 0.155316 0.883389     H
H     0.602468 0.844684 0.116611     H
O      0.60282  0.28934 0.8368812     O
O      0.60282  0.71074 0.1631212     O
C      0.60302  0.25352 0.6057616     C
C      0.60302  0.74652 0.3942416     C
H     0.626663 0.290705 0.081414     H
H     0.626663 0.709295 0.918586     H
O     0.6326614 0.0808714 0.0249111     O
O     0.6326614 0.9191314 0.9750911     O
C      0.63502  0.15222 0.0352414     C
C      0.63502  0.84782 0.9647614     C
C      0.64824  0.00294 0.4222316     C
C      0.64824  0.99714 0.5777716     C
C      0.65222  0.13502 0.4647614     C
C      0.65222  0.86502 0.5352414     C
H     0.653865  0.47182 0.863487     H
H     0.653865  0.52818 0.136513     H
H     0.655316 0.102468 0.616611     H
H     0.655316 0.897532 0.383389     H
C      0.66094  0.30624 0.7507417     C
C      0.66094  0.69384 0.2492617     C
O     0.6621316 0.2787717 0.581291     O
O     0.6621316 0.7212317 0.418711     O
C      0.66234  0.29724 0.6943316     C
C      0.66234  0.70284 0.3056716     C
H       0.6678 0.297397 0.230992     H
H       0.6678 0.702603 0.769008     H
C      0.68254  0.05514  0.60962     C
C      0.68254  0.94494  0.39042     C
H     0.683817 0.294315 0.326134     H
H     0.683817 0.705685 0.673866     H
C      0.68772  0.07052 0.4325516     C
C      0.68772  0.92952 0.5674516     C
O     0.6888214 0.1969216 0.020361     O
O     0.6888214 0.8030816 0.979641     O
Sc    0.693183 0.306823      0.5    Sc
Sc    0.693183 0.693183      0.5    Sc
O     0.6933114 0.4228414 0.521711     O
O     0.6933114 0.5771614 0.478291     O
C      0.69384  0.33914 0.2492617     C
C      0.69384  0.66094 0.7507417     C
O     0.6969216 0.1888214 0.479641     O
O     0.6969216 0.8111814 0.520361     O
H     0.702603   0.3322 0.769008     H
H     0.702603   0.6678 0.230992     H
C      0.70284  0.33774 0.3056716     C
C      0.70284  0.66234 0.6943316     C
C      0.70464  0.47854  0.87872     C
C      0.70464  0.52154  0.12132     C
H     0.705685 0.316183 0.673866     H
H     0.705685 0.683817 0.326134     H
H     0.706983 0.001823 0.179033     H
H     0.706983 0.998177 0.820967     H
H     0.709295 0.373337 0.918586     H
H     0.709295 0.626663 0.081414     H
O      0.71074  0.39722 0.1631212     O
O      0.71074  0.60282 0.8368812     O
Sc    0.719625      0.0      0.0    Sc
H     0.720972 0.004857 0.274462     H
H     0.720972 0.995143 0.725538     H
O     0.7210116 0.0459416 0.918341     O
O     0.7210116 0.9540616 0.081661     O
O     0.7212317 0.3378716 0.418711     O
O     0.7212317 0.6621316 0.581291     O
C      0.72234  0.40064 0.2194017     C
C      0.72234  0.59944 0.7806017     C
C      0.73264  0.04012 0.8026816     C
C      0.73264  0.95992 0.1973216     C
C      0.73774  0.41984  0.91112     C
C      0.73774  0.58024  0.08892     C
C      0.73912  0.39872 0.3332916     C
C      0.73912  0.60132 0.6667116     C
C      0.74064  0.03814 0.7461418     C
C      0.74064  0.96194 0.2538618     C
C      0.74434  0.45624 0.1309418     C
C      0.74434  0.54384 0.8690618     C
C      0.74652  0.39702 0.3942416     C
C      0.74652  0.60302 0.6057616     C
C      0.75352  0.10302 0.8942416     C
C      0.75352  0.89702 0.1057616     C
C      0.75574  0.04384 0.6309418     C
C      0.75574  0.95624 0.3690618     C
C      0.75944  0.46194 0.2461418     C
C      0.75944  0.53814 0.7538618     C
C      0.76092  0.10132 0.8332916     C
C      0.76092  0.89872 0.1667116     C
C      0.76234  0.08024  0.41112     C
C      0.76234  0.91984  0.58892     C
C      0.76744  0.45992 0.3026816     C
C      0.76744  0.54012 0.6973216     C
C      0.77774  0.09944 0.7194017     C
C      0.77774  0.90064 0.2806017     C
O     0.7787717 0.1621316 0.918711     O
O     0.7787717 0.8378716 0.081291     O
O     0.7789916 0.4540616 0.418341     O
O     0.7789916 0.5459416 0.581661     O
H     0.779028 0.495143 0.774462     H
H     0.779028 0.504857 0.225538     H
Sc    0.780385      0.5      0.5    Sc
O      0.78934  0.10282 0.6631212     O
O      0.78934  0.89722 0.3368812     O
H     0.790705 0.126663 0.418586     H
H     0.790705 0.873337 0.581414     H
H     0.793017 0.498177 0.679033     H
H     0.793017 0.501823 0.320967     H
H     0.794315 0.183817 0.173866     H
H     0.794315 0.816183 0.826134     H
C      0.79544  0.02154  0.37872     C
C      0.79544  0.97854  0.62132     C
C      0.79724  0.16234 0.8056716     C
C      0.79724  0.83774 0.1943316     C
H     0.797397   0.1678 0.269008     H
H     0.797397   0.8322 0.730992     H
O     0.8030816 0.3111814 0.979641     O
O     0.8030816 0.6888214 0.020361     O
C      0.80624  0.16094 0.7492617     C
C      0.80624  0.83914 0.2507417     C
O     0.8066914 0.0771614 0.021711     O
O     0.8066914 0.9228414 0.978291     O
Sc    0.806823 0.193183      0.0    Sc
Sc    0.806823 0.806823      0.0    Sc
O     0.8111814 0.3030816 0.520361     O
O     0.8111814 0.6969216 0.479641     O
C      0.81232  0.42952 0.9325516     C
C      0.81232  0.57052 0.0674516     C
H     0.816183 0.205685 0.826134     H
H     0.816183 0.794315 0.173866     H
C      0.81754  0.44494  0.10962     C
C      0.81754  0.55514  0.89042     C
H       0.8322 0.202603 0.730992     H
H       0.8322 0.797397 0.269008     H
C      0.83774  0.20284 0.1943316     C
C      0.83774  0.79724 0.8056716     C
O     0.8378716 0.2212317 0.081291     O
O     0.8378716 0.7787717 0.918711     O
C      0.83914  0.19384 0.2507417     C
C      0.83914  0.80624 0.7492617     C
H     0.844684 0.397532 0.116611     H
H     0.844684 0.602468 0.883389     H
H     0.846135  0.02818 0.363487     H
H     0.846135  0.97182 0.636513     H
C      0.84782  0.36502 0.9647614     C
C      0.84782  0.63502 0.0352414     C
C      0.85184  0.49714 0.9222316     C
C      0.85184  0.50294 0.0777716     C
C      0.86502  0.34782 0.5352414     C
C      0.86502  0.65222 0.4647614     C
O     0.8673414 0.4191314 0.5249111     O
O     0.8673414 0.5808714 0.4750911     O
H     0.873337 0.209295 0.581414     H
H     0.873337 0.790705 0.418586     H
C      0.89702  0.24652 0.1057616     C
C      0.89702  0.75352 0.8942416     C
O      0.89722  0.21074 0.3368812     O
O      0.89722  0.78934 0.6631212     O
H     0.897532 0.344684 0.383389     H
H     0.897532 0.655316 0.616611     H
C      0.89872  0.23912 0.1667116     C
C      0.89872  0.76092 0.8332916     C
C      0.90064  0.22234 0.2806017     C
C      0.90064  0.77774 0.7194017     C
H     0.902788 0.495505 0.063148     H
H     0.902788 0.504495 0.936852     H
O     0.9191314 0.3673414 0.9750911     O
O     0.9191314 0.6326614 0.0249111     O
C      0.91984  0.23774  0.58892     C
C      0.91984  0.76234  0.41112     C
O     0.9228414 0.1933114 0.978291     O
O     0.9228414 0.8066914 0.021711     O
C      0.92952  0.31232 0.5674516     C
C      0.92952  0.68772 0.4325516     C
C      0.94494  0.31754  0.39042     C
C      0.94494  0.68254  0.60962     C
O     0.9540616 0.2789916 0.081661     O
O     0.9540616 0.7210116 0.918341     O
C      0.95624  0.24434 0.3690618     C
C      0.95624  0.75574 0.6309418     C
C      0.95992  0.26744 0.1973216     C
C      0.95992  0.73264 0.8026816     C
C      0.96194  0.25944 0.2538618     C
C      0.96194  0.74064 0.7461418     C
H      0.97182 0.153865 0.636513     H
H      0.97182 0.846135 0.363487     H
C      0.97854  0.20464  0.62132     C
C      0.97854  0.79544  0.37872     C
H     0.995143 0.279028 0.725538     H
H     0.995143 0.720972 0.274462     H
H     0.995505 0.402788 0.436852     H
H     0.995505 0.597212 0.563148     H
C      0.99714  0.35184 0.5777716     C
C      0.99714  0.64824 0.4222316     C
H     0.998177 0.293017 0.820967     H
H     0.998177 0.706983 0.179033     H
