data_I
_chemical_name_common  'val_29'
_cell_length_a 15.80507
_cell_length_b 15.80507
_cell_length_c 22.38630
_cell_angle_alpha 90.00000
_cell_angle_beta  90.00000
_cell_angle_gamma 90.00000
_space_group_name_H-M_alt      'P 1'


loop_
_space_group_symop_operation_xyz
  'x, y, z' 

loop_
_atom_site_label
_atom_site_fract_x
_atom_site_fract_y
_atom_site_fract_z
_atom_site_type_symbol
O      0.00014  0.41102  0.41812     O
O      0.00014  0.91102  0.58192     O
H     0.010126 0.166691 0.793968     H
H     0.010126 0.666691 0.206032     H
H     0.020746  0.31873 0.859894     H
H     0.020746  0.81873 0.140106     H
C      0.02154  0.29554  0.81984     C
C      0.02154  0.79554  0.18024     C
C      0.03884  0.13934  0.45184     C
C      0.03884  0.63934  0.54824     C
Cu    0.042204 0.024254 0.554903    Cu
Cu    0.042204 0.524254 0.445103    Cu
C      0.04554  0.22854  0.43024     C
C      0.04554  0.72854  0.56984     C
H     0.059342 0.408607 0.338101     H
H     0.059342 0.908607 0.661899     H
H     0.060999  0.37289 0.652102     H
H     0.060999  0.87289 0.347898     H
O      0.06804  0.12364  0.50182     O
O      0.06804  0.62364  0.49822     O
H      0.06873 0.229254 0.390106     H
H      0.06873 0.729254 0.609894     H
N      0.07054  0.42624  0.57062     N
N      0.07054  0.92624  0.42942     N
H     0.079658 0.360986   0.2825     H
H     0.079658 0.860986   0.7175     H
N      0.08297  0.40644  0.30354     N
N      0.08297  0.90644  0.69654     N
H     0.083309 0.260126 0.456032     H
H     0.083309 0.760126 0.543968     H
C      0.09614  0.38244  0.61952     C
C      0.09614  0.88244  0.38052     C
N      0.10424  0.07534  0.63282     N
N      0.10424  0.57534  0.36722     N
C      0.11074  0.28884  0.79824     C
C      0.11074  0.78884  0.20184     C
H     0.110986 0.170342   0.9675     H
H     0.110986 0.670342   0.0325     H
H      0.12289 0.189001 0.597898     H
H      0.12289 0.689001 0.402102     H
C      0.12497  0.47395  0.28234     C
C      0.12497  0.97395  0.71774     C
O      0.12644  0.31804  0.74822     O
O      0.12644  0.81804  0.25182     O
C      0.13244  0.15394  0.63052     C
C      0.13244  0.65394  0.36952     C
C      0.13304  0.04854  0.68714     C
C      0.13304  0.54854  0.31294     C
C      0.13694  0.42714  0.53474     C
C      0.13694  0.92714  0.46534     C
N      0.14284  0.46394  0.48012     N
N      0.14284  0.96394  0.51992     N
N      0.15644  0.16717  0.94654     N
N      0.15644  0.66717  0.05354     N
H     0.158607 0.190658 0.911899     H
H     0.158607 0.690658 0.088101     H
O      0.16102  0.24994  0.83192     O
O      0.16102  0.74994  0.16812     O
N      0.16167  0.46774  0.22644     N
N      0.16167  0.96774  0.77364     N
N      0.17474  0.35424  0.61722     N
N      0.17474  0.85424  0.38282     N
N      0.17624  0.17954  0.67942     N
N      0.17624  0.67954  0.32062     N
C      0.17714  0.11314  0.71534     C
C      0.17714  0.61314  0.28474     C
C      0.20154  0.38304  0.56294     C
C      0.20154  0.88304  0.43714     C
C      0.20347  0.03325  0.79604     C
C      0.20347  0.53325  0.20404     C
N      0.21394  0.10724  0.76992     N
N      0.21394  0.60724  0.23012     N
C      0.21685  0.45347  0.45404     C
C      0.21685  0.95347  0.54604     C
N      0.21774  0.08847  0.02364     N
N      0.21774  0.58847  0.97644     N
H     0.223744 0.477543 0.416466     H
H     0.223744 0.977543 0.583534     H
C      0.22395  0.12517  0.96774     C
C      0.22395  0.62517  0.03234     C
Cu    0.225754 0.292204 0.695103    Cu
Cu    0.225754 0.792204 0.304903    Cu
H     0.227543 0.026256 0.833534     H
H     0.227543 0.526256 0.166466     H
H     0.272457 0.473744 0.666466     H
H     0.272457 0.973744 0.333534     H
Cu    0.274254 0.207804 0.804903    Cu
Cu    0.274254 0.707804 0.195103    Cu
C      0.27615  0.37497  0.53234     C
C      0.27615  0.87497  0.46774     C
H     0.276256 0.022457 0.083534     H
H     0.276256 0.522457 0.916466     H
N      0.28234  0.41167  0.47644     N
N      0.28234  0.91167  0.52364     N
C      0.28325  0.04667  0.04604     C
C      0.28325  0.54667  0.95404     C
N      0.28614  0.39284  0.73012     N
N      0.28614  0.89284  0.26992     N
C      0.29667  0.46685  0.70404     C
C      0.29667  0.96685  0.29604     C
C      0.29854  0.11704  0.93714     C
C      0.29854  0.61704  0.06294     C
C      0.32294  0.38694  0.78474     C
C      0.32294  0.88694  0.21534     C
N      0.32384  0.32054  0.82062     N
N      0.32384  0.82054  0.17942     N
N      0.32534  0.14584  0.88282     N
N      0.32534  0.64584  0.11722     N
N      0.33847  0.03234  0.27364     N
N      0.33847  0.53234  0.72644     N
O      0.33902  0.25014  0.66812     O
O      0.33902  0.75014  0.33192     O
H     0.341393 0.309342 0.588101     H
H     0.341393 0.809342 0.411899     H
N      0.34364  0.33297  0.55354     N
N      0.34364  0.83297  0.44654     N
N      0.35724  0.03614  0.01992     N
N      0.35724  0.53614  0.98012     N
C      0.36314  0.07294  0.96534     C
C      0.36314  0.57294  0.03474     C
C      0.36704  0.45154  0.81294     C
C      0.36704  0.95154  0.18714     C
C      0.36764  0.34614  0.86952     C
C      0.36764  0.84614  0.13052     C
O      0.37364  0.18204  0.75182     O
O      0.37364  0.68204  0.24822     O
C      0.37517  0.02615  0.21774     C
C      0.37517  0.52615  0.78234     C
H      0.37711 0.310999 0.902102     H
H      0.37711 0.810999 0.097898     H
H     0.389014 0.329658   0.5325     H
H     0.389014 0.829658   0.4675     H
C      0.38934  0.21124  0.70184     C
C      0.38934  0.71124  0.29824     C
N      0.39584  0.42474  0.86722     N
N      0.39584  0.92474  0.13282     N
C      0.40394  0.11764  0.88052     C
C      0.40394  0.61764  0.11952     C
H     0.416691 0.239874 0.043968     H
H     0.416691 0.739874 0.956032     H
N      0.41717  0.09364  0.19654     N
N      0.41717  0.59364  0.80354     N
H     0.420342 0.139014   0.2175     H
H     0.420342 0.639014   0.7825     H
N      0.42954  0.07384  0.92942     N
N      0.42954  0.57384  0.07062     N
H      0.43127 0.270746 0.109894     H
H      0.43127 0.770746 0.890106     H
O      0.43204  0.37644  0.99822     O
O      0.43204  0.87644  0.00182     O
H     0.439001  0.12711 0.847898     H
H     0.439001  0.62711 0.152102     H
H     0.440658 0.091393 0.161899     H
H     0.440658 0.591393 0.838101     H
C      0.45454  0.27154  0.06984     C
C      0.45454  0.77154  0.93024     C
Cu    0.457804 0.475754 0.945103    Cu
Cu    0.457804 0.975754 0.054903    Cu
C      0.46124  0.36074  0.04824     C
C      0.46124  0.86074  0.95184     C
C      0.47854  0.20454  0.68024     C
C      0.47854  0.70454  0.31984     C
H     0.479254  0.18127 0.640106     H
H     0.479254  0.68127 0.359894     H
H     0.489874 0.333309 0.706032     H
H     0.489874 0.833309 0.293968     H
O      0.49994  0.08902  0.08192     O
O      0.49994  0.58902  0.91812     O
O      0.50014  0.41102  0.08192     O
O      0.50014  0.91102  0.91812     O
H     0.510126 0.166691 0.706032     H
H     0.510126 0.666691 0.293968     H
H     0.520746  0.31873 0.640106     H
H     0.520746  0.81873 0.359894     H
C      0.52154  0.29554  0.68024     C
C      0.52154  0.79554  0.31984     C
C      0.53884  0.13934  0.04824     C
C      0.53884  0.63934  0.95184     C
Cu    0.542204 0.024254 0.945103    Cu
Cu    0.542204 0.524254 0.054903    Cu
C      0.54554  0.22854  0.06984     C
C      0.54554  0.72854  0.93024     C
H     0.559342 0.408607 0.161899     H
H     0.559342 0.908607 0.838101     H
H     0.560999  0.37289 0.847898     H
H     0.560999  0.87289 0.152102     H
O      0.56804  0.12364  0.99822     O
O      0.56804  0.62364  0.00182     O
H      0.56873 0.229254 0.109894     H
H      0.56873 0.729254 0.890106     H
N      0.57054  0.42624  0.92942     N
N      0.57054  0.92624  0.07062     N
H     0.579658 0.360986   0.2175     H
H     0.579658 0.860986   0.7825     H
N      0.58297  0.40644  0.19654     N
N      0.58297  0.90644  0.80354     N
H     0.583309 0.260126 0.043968     H
H     0.583309 0.760126 0.956032     H
C      0.59614  0.38244  0.88052     C
C      0.59614  0.88244  0.11952     C
N      0.60424  0.07534  0.86722     N
N      0.60424  0.57534  0.13282     N
C      0.61074  0.28884  0.70184     C
C      0.61074  0.78884  0.29824     C
H     0.610986 0.170342   0.5325     H
H     0.610986 0.670342   0.4675     H
H      0.62289 0.189001 0.902102     H
H      0.62289 0.689001 0.097898     H
C      0.62497  0.47395  0.21774     C
C      0.62497  0.97395  0.78234     C
O      0.62644  0.31804  0.75182     O
O      0.62644  0.81804  0.24822     O
C      0.63244  0.15394  0.86952     C
C      0.63244  0.65394  0.13052     C
C      0.63304  0.04854  0.81294     C
C      0.63304  0.54854  0.18714     C
C      0.63694  0.42714  0.96534     C
C      0.63694  0.92714  0.03474     C
N      0.64284  0.46394  0.01992     N
N      0.64284  0.96394  0.98012     N
N      0.65644  0.16717  0.55354     N
N      0.65644  0.66717  0.44654     N
H     0.658607 0.190658 0.588101     H
H     0.658607 0.690658 0.411899     H
O      0.66102  0.24994  0.66812     O
O      0.66102  0.74994  0.33192     O
N      0.66167  0.46774  0.27364     N
N      0.66167  0.96774  0.72644     N
N      0.67474  0.35424  0.88282     N
N      0.67474  0.85424  0.11722     N
N      0.67624  0.17954  0.82062     N
N      0.67624  0.67954  0.17942     N
C      0.67714  0.11314  0.78474     C
C      0.67714  0.61314  0.21534     C
C      0.70154  0.38304  0.93714     C
C      0.70154  0.88304  0.06294     C
C      0.70347  0.03325  0.70404     C
C      0.70347  0.53325  0.29604     C
N      0.71394  0.10724  0.73012     N
N      0.71394  0.60724  0.26992     N
C      0.71685  0.45347  0.04604     C
C      0.71685  0.95347  0.95404     C
N      0.71774  0.08847  0.47644     N
N      0.71774  0.58847  0.52364     N
H     0.723744 0.477543 0.083534     H
H     0.723744 0.977543 0.916466     H
C      0.72395  0.12517  0.53234     C
C      0.72395  0.62517  0.46774     C
Cu    0.725754 0.292204 0.804903    Cu
Cu    0.725754 0.792204 0.195103    Cu
H     0.727543 0.026256 0.666466     H
H     0.727543 0.526256 0.333534     H
H     0.772457 0.473744 0.833534     H
H     0.772457 0.973744 0.166466     H
Cu    0.774254 0.207804 0.695103    Cu
Cu    0.774254 0.707804 0.304903    Cu
C      0.77615  0.37497  0.96774     C
C      0.77615  0.87497  0.03234     C
H     0.776256 0.022457 0.416466     H
H     0.776256 0.522457 0.583534     H
N      0.78234  0.41167  0.02364     N
N      0.78234  0.91167  0.97644     N
C      0.78325  0.04667  0.45404     C
C      0.78325  0.54667  0.54604     C
N      0.78614  0.39284  0.76992     N
N      0.78614  0.89284  0.23012     N
C      0.79667  0.46685  0.79604     C
C      0.79667  0.96685  0.20404     C
C      0.79854  0.11704  0.56294     C
C      0.79854  0.61704  0.43714     C
C      0.82294  0.38694  0.71534     C
C      0.82294  0.88694  0.28474     C
N      0.82384  0.32054  0.67942     N
N      0.82384  0.82054  0.32062     N
N      0.82534  0.14584  0.61722     N
N      0.82534  0.64584  0.38282     N
N      0.83847  0.03234  0.22644     N
N      0.83847  0.53234  0.77364     N
O      0.83902  0.25014  0.83192     O
O      0.83902  0.75014  0.16812     O
H     0.841393 0.309342 0.911899     H
H     0.841393 0.809342 0.088101     H
N      0.84364  0.33297  0.94654     N
N      0.84364  0.83297  0.05354     N
N      0.85724  0.03614  0.48012     N
N      0.85724  0.53614  0.51992     N
C      0.86314  0.07294  0.53474     C
C      0.86314  0.57294  0.46534     C
C      0.86704  0.45154  0.68714     C
C      0.86704  0.95154  0.31294     C
C      0.86764  0.34614  0.63052     C
C      0.86764  0.84614  0.36952     C
O      0.87364  0.18204  0.74822     O
O      0.87364  0.68204  0.25182     O
C      0.87517  0.02615  0.28234     C
C      0.87517  0.52615  0.71774     C
H      0.87711 0.310999 0.597898     H
H      0.87711 0.810999 0.402102     H
H     0.889014 0.329658   0.9675     H
H     0.889014 0.829658   0.0325     H
C      0.88934  0.21124  0.79824     C
C      0.88934  0.71124  0.20184     C
N      0.89584  0.42474  0.63282     N
N      0.89584  0.92474  0.36722     N
C      0.90394  0.11764  0.61952     C
C      0.90394  0.61764  0.38052     C
H     0.916691 0.239874 0.456032     H
H     0.916691 0.739874 0.543968     H
N      0.91717  0.09364  0.30354     N
N      0.91717  0.59364  0.69654     N
H     0.920342 0.139014   0.2825     H
H     0.920342 0.639014   0.7175     H
N      0.92954  0.07384  0.57062     N
N      0.92954  0.57384  0.42942     N
H      0.93127 0.270746 0.390106     H
H      0.93127 0.770746 0.609894     H
O      0.93204  0.37644  0.50182     O
O      0.93204  0.87644  0.49822     O
H     0.939001  0.12711 0.652102     H
H     0.939001  0.62711 0.347898     H
H     0.940658 0.091393 0.338101     H
H     0.940658 0.591393 0.661899     H
C      0.95454  0.27154  0.43024     C
C      0.95454  0.77154  0.56984     C
Cu    0.957804 0.475754 0.554903    Cu
Cu    0.957804 0.975754 0.445103    Cu
C      0.96124  0.36074  0.45184     C
C      0.96124  0.86074  0.54824     C
C      0.97854  0.20454  0.81984     C
C      0.97854  0.70454  0.18024     C
H     0.979254  0.18127 0.859894     H
H     0.979254  0.68127 0.140106     H
H     0.989874 0.333309 0.793968     H
H     0.989874 0.833309 0.206032     H
O      0.99994  0.08902  0.41812     O
O      0.99994  0.58902  0.58192     O
