data_I
_chemical_name_common  'val_19'
_cell_length_a 30.57720
_cell_length_b 10.01908
_cell_length_c 22.75242
_cell_angle_alpha 90.00000
_cell_angle_beta  123.29720
_cell_angle_gamma 90.00000
_space_group_name_H-M_alt      'P 1'


loop_
_space_group_symop_operation_xyz
  'x, y, z' 

loop_
_atom_site_label
_atom_site_fract_x
_atom_site_fract_y
_atom_site_fract_z
_atom_site_type_symbol
H       0.0198   0.3296    0.685     H
H       0.0198   0.6704    0.185     H
H       0.0205   0.2505   0.3748     H
H       0.0205   0.7495   0.8748     H
C      0.02161   0.4793 0.188613     C
C      0.02161   0.5213 0.688613     C
C      0.02789   0.4513 0.378113     C
C      0.02789   0.5493 0.878113     C
C      0.03969   0.4023 0.712713     C
C      0.03969   0.5983 0.212713     C
H       0.0415   0.4062   0.2156     H
H       0.0415   0.5938   0.7156     H
C      0.04221   0.3213 0.401414     C
C      0.04221   0.6793 0.901414     C
H       0.0535   0.3589   0.9069     H
H       0.0535   0.6411   0.4069     H
C      0.06171   0.4483 0.920513     C
C      0.06171   0.5523 0.420513     C
H       0.0784   0.1715   0.7721     H
H       0.0784   0.8285   0.2721     H
C      0.08819   0.3722 0.779513     C
C      0.08819   0.6282 0.279513     C
C      0.08891   0.2962 0.464513     C
C      0.08891   0.7042 0.964513     C
H       0.0982   0.2085   0.4791     H
H       0.0982   0.7915   0.9791     H
C      0.10071   0.2402 0.800613     C
C      0.10071   0.7602 0.300613     C
C      0.10729   0.4802 0.982613     C
C      0.10729   0.5202 0.482613     C
H       0.1168   0.4406   0.3118     H
H       0.1168   0.5594   0.8118     H
N      0.12147 0.394018  0.50559     N
N      0.12147 0.606018  0.00559     N
C      0.12349   0.4702 0.823813     C
C      0.12349   0.5302 0.323813     C
H       0.1295   0.4113   0.0102     H
H       0.1295   0.5887   0.5102     H
H       0.1353   0.4065   0.6419     H
H       0.1353   0.5935   0.1419     H
H       0.1417   0.2626   0.6475     H
H       0.1417   0.7374   0.1475     H
O      0.14417 0.132017  0.02159     O
O      0.14417 0.868017  0.52159     O
C      0.14619   0.2092 0.863711     C
C      0.14619   0.7912 0.363711     C
H       0.1536   0.1204   0.8771     H
H       0.1536   0.8796   0.3771     H
N      0.15907 0.340316  0.65648     N
N      0.15907 0.659716  0.15648     N
C      0.16848   0.4302 0.885811     C
C      0.16848   0.5702 0.385811     C
N      0.18017 0.303217  0.90688     N
N      0.18017 0.696817  0.40688     N
O      0.18727 0.140514  0.58148     O
O      0.18727 0.859514  0.08148     O
C      0.19058 0.112918  0.04481     C
C      0.19058 0.887118  0.54481     C
H       0.1919    0.496   0.9148     H
H       0.1919    0.504   0.4148     H
Ni    0.192331  0.34702 0.5952612    Ni
Ni    0.192331  0.65302 0.0952612    Ni
C      0.19498 0.352118  0.73081     C
C      0.19498 0.647918  0.23081     C
H       0.1987    0.446   0.2334     H
H       0.1987    0.554   0.7334     H
H       0.2039   0.1548   0.7533     H
H       0.2039   0.8452   0.2533     H
O      0.21045 0.085313  0.00867     O
O      0.21045 0.914713  0.50867     O
C      0.21238 0.478018  0.76121     C
C      0.21238 0.522018  0.26121     C
C      0.21488 0.239218  0.77321     C
C      0.21488 0.760818  0.27321     C
O      0.21897 0.468713  0.13427     O
O      0.21897 0.531313  0.63427     O
O      0.22527 0.362114  0.53468     O
O      0.22527 0.637914  0.03468     O
O      0.22867 0.374813  0.05357     O
O      0.22867 0.625213  0.55357     O
C      0.23027 0.122318  0.12409     C
C      0.23027 0.877718  0.62409     C
C      0.23097 0.372018  0.11091     C
C      0.23097 0.628018  0.61091     C
C      0.23128   0.1272  0.63821     C
C      0.23128   0.8732  0.13821     C
O      0.24277 0.270813  0.32867     O
O      0.24277 0.729213  0.82867     O
C      0.24908 0.247717  0.15481     C
C      0.24908 0.752317  0.65481     C
C      0.24977 0.490318  0.83289     C
C      0.24977 0.509718  0.33289     C
Ni        0.25     0.25      0.0    Ni
Ni        0.25     0.75      0.5    Ni
C      0.25037 0.009718  0.16729     C
C      0.25037 0.990318  0.66729     C
C      0.25108 0.252317  0.84521     C
C      0.25108 0.747717  0.34521     C
O      0.25737 0.229213  0.67147     O
O      0.25737 0.770813  0.17147     O
C      0.26888   0.3732  0.36181     C
C      0.26888   0.6272  0.86181     C
C      0.26917 0.128018  0.88911     C
C      0.26917 0.872018  0.38911     C
C      0.26987 0.377718  0.87609     C
C      0.26987 0.622318  0.37609     C
O      0.27147 0.125213  0.94657     O
O      0.27147 0.874813  0.44657     O
O      0.27487 0.137914  0.46548     O
O      0.27487 0.862114  0.96548     O
O      0.28117 0.031313  0.86587     O
O      0.28117 0.968713  0.36587     O
C      0.28528 0.260818  0.22681     C
C      0.28528 0.739218  0.72681     C
C      0.28778 0.022018  0.23881     C
C      0.28778 0.978018  0.73881     C
O      0.28965 0.414713  0.99147     O
O      0.28965 0.585313  0.49147     O
H       0.2961   0.3452   0.2467     H
H       0.2961   0.6548   0.7467     H
H       0.3013    0.054   0.7666     H
H       0.3013    0.946   0.2666     H
C      0.30518 0.147918  0.26921     C
C      0.30518 0.852118  0.76921     C
Ni    0.307671  0.15302 0.4047412    Ni
Ni    0.307671  0.84702 0.9047412    Ni
H       0.3081    0.004   0.0852     H
H       0.3081    0.996   0.5852     H
C      0.30958 0.387118  0.95521     C
C      0.30958 0.612918  0.45521     C
O      0.31287 0.359514  0.41868     O
O      0.31287 0.640514  0.91868     O
N      0.31997 0.196817  0.09328     N
N      0.31997 0.803217  0.59328     N
C      0.33168   0.0702 0.114211     C
C      0.33168   0.9302 0.614211     C
N      0.34107 0.159716  0.34368     N
N      0.34107 0.840316  0.84368     N
H       0.3464   0.3796   0.1229     H
H       0.3464   0.6204   0.6229     H
C      0.35399   0.2912 0.136311     C
C      0.35399   0.7092 0.636311     C
O      0.35597 0.368017  0.97859     O
O      0.35597 0.632017  0.47859     O
H       0.3583   0.2374   0.3525     H
H       0.3583   0.7626   0.8525     H
H       0.3647   0.0935   0.3581     H
H       0.3647   0.9065   0.8581     H
H       0.3705   0.0887   0.9898     H
H       0.3705   0.9113   0.4898     H
C      0.37669   0.0302 0.176213     C
C      0.37669   0.9702 0.676213     C
N      0.37867 0.106018  0.49459     N
N      0.37867 0.894018  0.99459     N
H       0.3832   0.0594   0.6882     H
H       0.3832   0.9406   0.1882     H
C      0.39289   0.0202 0.017413     C
C      0.39289   0.9802 0.517413     C
C      0.39931   0.2602 0.199413     C
C      0.39931   0.7402 0.699413     C
H       0.4018   0.2915   0.5209     H
H       0.4018   0.7085   0.0209     H
C      0.41111   0.2042 0.535513     C
C      0.41111   0.7962 0.035513     C
C      0.41199   0.1282 0.220513     C
C      0.41199   0.8722 0.720513     C
H       0.4216   0.3285   0.2279     H
H       0.4216   0.6715   0.7279     H
C      0.43831   0.0523 0.079513     C
C      0.43831   0.9483 0.579513     C
H       0.4465   0.1411   0.0931     H
H       0.4465   0.8589   0.5931     H
C      0.45781   0.1793 0.598614     C
C      0.45781   0.8213 0.098614     C
H       0.4585   0.0938   0.7844     H
H       0.4585   0.9062   0.2844     H
C      0.46049   0.0983 0.287313     C
C      0.46049   0.9023 0.787313     C
C      0.47229   0.0493 0.621913     C
C      0.47229   0.9513 0.121913     C
C      0.47841   0.0213 0.811413     C
C      0.47841   0.9793 0.311413     C
H       0.4795   0.2495   0.6252     H
H       0.4795   0.7505   0.1252     H
H       0.4802   0.1704    0.315     H
H       0.4802   0.8296    0.815     H
H       0.5198   0.1704    0.185     H
H       0.5198   0.8296    0.685     H
H       0.5205   0.2495   0.8748     H
H       0.5205   0.7505   0.3748     H
C      0.52161   0.0213 0.688613     C
C      0.52161   0.9793 0.188613     C
C      0.52789   0.0493 0.878113     C
C      0.52789   0.9513 0.378113     C
C      0.53969   0.0983 0.212713     C
C      0.53969   0.9023 0.712713     C
H       0.5415   0.0938   0.7156     H
H       0.5415   0.9062   0.2156     H
C      0.54221   0.1793 0.901414     C
C      0.54221   0.8213 0.401414     C
H       0.5535   0.1411   0.4069     H
H       0.5535   0.8589   0.9069     H
C      0.56171   0.0523 0.420513     C
C      0.56171   0.9483 0.920513     C
H       0.5784   0.3285   0.2721     H
H       0.5784   0.6715   0.7721     H
C      0.58819   0.1282 0.279513     C
C      0.58819   0.8722 0.779513     C
C      0.58891   0.2042 0.964513     C
C      0.58891   0.7962 0.464513     C
H       0.5982   0.2915   0.9791     H
H       0.5982   0.7085   0.4791     H
C      0.60071   0.2602 0.300613     C
C      0.60071   0.7402 0.800613     C
C      0.60729   0.0202 0.482613     C
C      0.60729   0.9802 0.982613     C
H       0.6168   0.0594   0.8118     H
H       0.6168   0.9406   0.3118     H
N      0.62147 0.106018  0.00559     N
N      0.62147 0.894018  0.50559     N
C      0.62349   0.0302 0.323813     C
C      0.62349   0.9702 0.823813     C
H       0.6295   0.0887   0.5102     H
H       0.6295   0.9113   0.0102     H
H       0.6353   0.0935   0.1419     H
H       0.6353   0.9065   0.6419     H
H       0.6417   0.2374   0.1475     H
H       0.6417   0.7626   0.6475     H
O      0.64417 0.368017  0.52159     O
O      0.64417 0.632017  0.02159     O
C      0.64619   0.2912 0.363711     C
C      0.64619   0.7092 0.863711     C
H       0.6536   0.3796   0.3771     H
H       0.6536   0.6204   0.8771     H
N      0.65907 0.159716  0.15648     N
N      0.65907 0.840316  0.65648     N
C      0.66848   0.0702 0.385811     C
C      0.66848   0.9302 0.885811     C
N      0.68017 0.196817  0.40688     N
N      0.68017 0.803217  0.90688     N
O      0.68727 0.359514  0.08148     O
O      0.68727 0.640514  0.58148     O
C      0.69058 0.387118  0.54481     C
C      0.69058 0.612918  0.04481     C
H       0.6919    0.004   0.4148     H
H       0.6919    0.996   0.9148     H
Ni    0.692331  0.15302 0.0952612    Ni
Ni    0.692331  0.84702 0.5952612    Ni
C      0.69498 0.147918  0.23081     C
C      0.69498 0.852118  0.73081     C
H       0.6987    0.054   0.7334     H
H       0.6987    0.946   0.2334     H
H       0.7039   0.3452   0.2533     H
H       0.7039   0.6548   0.7533     H
O      0.71045 0.414713  0.50867     O
O      0.71045 0.585313  0.00867     O
C      0.71238 0.022018  0.26121     C
C      0.71238 0.978018  0.76121     C
C      0.71488 0.260818  0.27321     C
C      0.71488 0.739218  0.77321     C
O      0.71897 0.031313  0.63427     O
O      0.71897 0.968713  0.13427     O
O      0.72527 0.137914  0.03468     O
O      0.72527 0.862114  0.53468     O
O      0.72867 0.125213  0.55357     O
O      0.72867 0.874813  0.05357     O
C      0.73027 0.377718  0.62409     C
C      0.73027 0.622318  0.12409     C
C      0.73097 0.128018  0.61091     C
C      0.73097 0.872018  0.11091     C
C      0.73128   0.3732  0.13821     C
C      0.73128   0.6272  0.63821     C
O      0.74277 0.229213  0.82867     O
O      0.74277 0.770813  0.32867     O
C      0.74908 0.252317  0.65481     C
C      0.74908 0.747717  0.15481     C
C      0.74977 0.009718  0.33289     C
C      0.74977 0.990318  0.83289     C
Ni        0.75     0.25      0.5    Ni
Ni        0.75     0.75      0.0    Ni
C      0.75037 0.490318  0.66729     C
C      0.75037 0.509718  0.16729     C
C      0.75108 0.247717  0.34521     C
C      0.75108 0.752317  0.84521     C
O      0.75737 0.270813  0.17147     O
O      0.75737 0.729213  0.67147     O
C      0.76888   0.1272  0.86181     C
C      0.76888   0.8732  0.36181     C
C      0.76917 0.372018  0.38911     C
C      0.76917 0.628018  0.88911     C
C      0.76987 0.122318  0.37609     C
C      0.76987 0.877718  0.87609     C
O      0.77147 0.374813  0.44657     O
O      0.77147 0.625213  0.94657     O
O      0.77487 0.362114  0.96548     O
O      0.77487 0.637914  0.46548     O
O      0.78117 0.468713  0.36587     O
O      0.78117 0.531313  0.86587     O
C      0.78528 0.239218  0.72681     C
C      0.78528 0.760818  0.22681     C
C      0.78778 0.478018  0.73881     C
C      0.78778 0.522018  0.23881     C
O      0.78965 0.085313  0.49147     O
O      0.78965 0.914713  0.99147     O
H       0.7961   0.1548   0.7467     H
H       0.7961   0.8452   0.2467     H
H       0.8013    0.446   0.2666     H
H       0.8013    0.554   0.7666     H
C      0.80518 0.352118  0.76921     C
C      0.80518 0.647918  0.26921     C
Ni    0.807671  0.34702 0.9047412    Ni
Ni    0.807671  0.65302 0.4047412    Ni
H       0.8081    0.496   0.5852     H
H       0.8081    0.504   0.0852     H
C      0.80958 0.112918  0.45521     C
C      0.80958 0.887118  0.95521     C
O      0.81287 0.140514  0.91868     O
O      0.81287 0.859514  0.41868     O
N      0.81997 0.303217  0.59328     N
N      0.81997 0.696817  0.09328     N
C      0.83168   0.4302 0.614211     C
C      0.83168   0.5702 0.114211     C
N      0.84107 0.340316  0.84368     N
N      0.84107 0.659716  0.34368     N
H       0.8464   0.1204   0.6229     H
H       0.8464   0.8796   0.1229     H
C      0.85399   0.2092 0.636311     C
C      0.85399   0.7912 0.136311     C
O      0.85597 0.132017  0.47859     O
O      0.85597 0.868017  0.97859     O
H       0.8583   0.2626   0.8525     H
H       0.8583   0.7374   0.3525     H
H       0.8647   0.4065   0.8581     H
H       0.8647   0.5935   0.3581     H
H       0.8705   0.4113   0.4898     H
H       0.8705   0.5887   0.9898     H
C      0.87669   0.4702 0.676213     C
C      0.87669   0.5302 0.176213     C
N      0.87867 0.394018  0.99459     N
N      0.87867 0.606018  0.49459     N
H       0.8832   0.4406   0.1882     H
H       0.8832   0.5594   0.6882     H
C      0.89289   0.4802 0.517413     C
C      0.89289   0.5202 0.017413     C
C      0.89931   0.2402 0.699413     C
C      0.89931   0.7602 0.199413     C
H       0.9018   0.2085   0.0209     H
H       0.9018   0.7915   0.5209     H
C      0.91111   0.2962 0.035513     C
C      0.91111   0.7042 0.535513     C
C      0.91199   0.3722 0.720513     C
C      0.91199   0.6282 0.220513     C
H       0.9216   0.1715   0.7279     H
H       0.9216   0.8285   0.2279     H
C      0.93831   0.4483 0.579513     C
C      0.93831   0.5523 0.079513     C
H       0.9465   0.3589   0.5931     H
H       0.9465   0.6411   0.0931     H
C      0.95781   0.3213 0.098614     C
C      0.95781   0.6793 0.598614     C
H       0.9585   0.4062   0.2844     H
H       0.9585   0.5938   0.7844     H
C      0.96049   0.4023 0.787313     C
C      0.96049   0.5983 0.287313     C
C      0.97229   0.4513 0.121913     C
C      0.97229   0.5493 0.621913     C
C      0.97841   0.4793 0.311413     C
C      0.97841   0.5213 0.811413     C
H       0.9795   0.2505   0.1252     H
H       0.9795   0.7495   0.6252     H
H       0.9802   0.3296    0.815     H
H       0.9802   0.6704    0.315     H
