data_I
_chemical_name_common  'val_5'
_cell_length_a 29.87102
_cell_length_b 19.24671
_cell_length_c 19.40411
_cell_angle_alpha 90.00000
_cell_angle_beta  90.00000
_cell_angle_gamma 90.00000
_space_group_name_H-M_alt      'P 1'


loop_
_space_group_symop_operation_xyz
  'x, y, z' 

loop_
_atom_site_label
_atom_site_fract_x
_atom_site_fract_y
_atom_site_fract_z
_atom_site_type_symbol
Zr     -0.0824   0.1142     0.75    Zr
Zr     -0.0824   0.8858     0.25    Zr
O      -0.0678  -0.0152   0.6223     O
O      -0.0678  -0.0152   0.8777     O
O      -0.0678   0.2489   0.6236     O
O      -0.0678   0.2489   0.8764     O
O      -0.0678   0.7511   0.1236     O
O      -0.0678   0.7511   0.3764     O
O      -0.0678   1.0152   0.1223     O
O      -0.0678   1.0152   0.3777     O
O      -0.0437   0.0225     0.75     O
O      -0.0437   0.9775     0.25     O
O      -0.0416   0.2045     0.75     O
O      -0.0416   0.7955     0.25     O
O      -0.0414   0.1144   0.6584     O
O      -0.0414   0.1144   0.8416     O
O      -0.0414   0.8856   0.1584     O
O      -0.0414   0.8856   0.3416     O
H     -0.0257534 -0.00903027 0.528681     H
H     -0.0257534 -0.00903027 0.971319     H
H     -0.0257534  1.00903 0.0286814     H
H     -0.0257534  1.00903 0.471319     H
H     -0.0255347 0.237518  0.53086     H
H     -0.0255347 0.237518  0.96914     H
H     -0.0255347 0.762482 0.0308603     H
H     -0.0255347 0.762482  0.46914     H
H     -0.0244404 -0.113054 0.647477     H
H     -0.0244404 -0.113054 0.852523     H
H     -0.0244404  1.11305 0.147477     H
H     -0.0244404  1.11305 0.352523     H
H     -0.00477183 -0.102445 0.724653     H
H     -0.00477183  1.10244 0.275347     H
H     -0.00297156 0.160902 0.529459     H
H     -0.00297156 0.839098 0.470541     H
H     -0.00259266 0.0671334 0.973605     H
H     -0.00259266 0.932867 0.0263949     H
H     -1.07852e-32 0.603419     0.25     H
H     -6.16298e-33 0.396581     0.75     H
O          0.0  -0.0919   0.6751     O
O          0.0  -0.0919   0.8249     O
Zr         0.0  -0.0227   0.1596    Zr
Zr         0.0  -0.0227   0.3404    Zr
O          0.0   0.0192   0.5449     O
O          0.0   0.0192   0.9551     O
Zr         0.0   0.0227   0.6596    Zr
Zr         0.0   0.0227   0.8404    Zr
Zr         0.0   0.2069   0.6604    Zr
Zr         0.0   0.2069   0.8396    Zr
O          0.0    0.209   0.5474     O
O          0.0    0.209   0.9526     O
O          0.0   0.3198   0.6942     O
O          0.0   0.3198   0.8058     O
C          0.0     0.34     0.75     C
C          0.0     0.66     0.25     C
O          0.0   0.6802   0.1942     O
O          0.0   0.6802   0.3058     O
O          0.0    0.791   0.0474     O
O          0.0    0.791   0.4526     O
Zr         0.0   0.7931   0.1604    Zr
Zr         0.0   0.7931   0.3396    Zr
Zr         0.0   0.9773   0.1596    Zr
Zr         0.0   0.9773   0.3404    Zr
O          0.0   0.9808   0.0449     O
O          0.0   0.9808   0.4551     O
Zr         0.0   1.0227   0.6596    Zr
Zr         0.0   1.0227   0.8404    Zr
O          0.0   1.0919   0.1751     O
O          0.0   1.0919   0.3249     O
H     0.0283461 -0.00206398 0.528472     H
H     0.0283461  1.00206 0.471528     H
H     0.0285063 0.229531 0.969286     H
H     0.0285063 0.770469 0.0307142     H
H     0.0292122 -0.111321 0.839916     H
H     0.0292122  1.11132 0.160084     H
O       0.0414   0.1144   0.6584     O
O       0.0414   0.1144   0.8416     O
O       0.0414   0.8856   0.1584     O
O       0.0414   0.8856   0.3416     O
O       0.0416   0.2045     0.75     O
O       0.0416   0.7955     0.25     O
O       0.0437   0.0225     0.75     O
O       0.0437   0.9775     0.25     O
O       0.0678  -0.0152   0.6223     O
O       0.0678  -0.0152   0.8777     O
O       0.0678   0.0152   0.1223     O
O       0.0678   0.0152   0.3777     O
O       0.0678   0.2489   0.6236     O
O       0.0678   0.2489   0.8764     O
O       0.0678   0.7511   0.1236     O
O       0.0678   0.7511   0.3764     O
Zr      0.0824  -0.1142     0.25    Zr
Zr      0.0824   0.1142     0.75    Zr
Zr      0.0824   0.8858     0.25    Zr
Zr      0.0824   1.1142     0.75    Zr
H     0.0999237 0.306159 0.518742     H
H     0.0999237 0.306159 0.981258     H
H     0.0999237 0.693841 0.0187419     H
H     0.0999237 0.693841 0.481258     H
H     0.100896 0.0802358 0.0201134     H
H     0.100896 0.0802358 0.479887     H
H     0.100896 0.919764 0.520113     H
H     0.100896 0.919764 0.979887     H
C       0.1067   0.2237   0.6386     C
C       0.1067   0.2237   0.8614     C
C       0.1067   0.7763   0.1386     C
C       0.1067   0.7763   0.3614     C
C       0.1079   0.0022   0.1397     C
C       0.1079   0.0022   0.3603     C
C       0.1079   0.9978   0.6397     C
C       0.1079   0.9978   0.8603     C
O       0.1186  -0.0478   0.1825     O
O       0.1186  -0.0478   0.3175     O
O       0.1186   0.0478   0.6825     O
O       0.1186   0.0478   0.8175     O
O       0.1221   0.1818   0.6794     O
O       0.1221   0.1818   0.8206     O
O       0.1221   0.8182   0.1794     O
O       0.1221   0.8182   0.3206     O
C       0.1336   0.3037   0.5401     C
C       0.1336   0.3037   0.9599     C
C       0.1336   0.6963   0.0401     C
C       0.1336   0.6963   0.4599     C
C       0.1348   0.0734   0.0396     C
C       0.1348   0.0734   0.4604     C
C       0.1348   0.9266   0.5396     C
C       0.1348   0.9266   0.9604     C
C       0.1396   0.2657   0.5967     C
C       0.1396   0.2657   0.9033     C
C       0.1396   0.7343   0.0967     C
C       0.1396   0.7343   0.4033     C
C        0.145   0.0362   0.0981     C
C        0.145   0.0362   0.4019     C
C        0.145   0.9638   0.5981     C
C        0.145   0.9638   0.9019     C
H     0.156282 0.369121 0.463256     H
H     0.156282 0.369121  1.03674     H
H     0.156282 0.630879 -0.0367438     H
H     0.156282 0.630879 0.536744     H
C        0.165   0.3382   0.5083     C
C        0.165   0.3382   0.9917     C
C        0.165   0.6618   0.0083     C
C        0.165   0.6618   0.4917     C
H     0.166892 0.130635 -0.0392113     H
H     0.166892 0.130635 0.539211     H
H     0.166892 0.869365 0.460789     H
H     0.166892 0.869365  1.03921     H
C       0.1727   0.1014    0.008     C
C       0.1727   0.1014    0.492     C
C       0.1727   0.8986    0.508     C
C       0.1727   0.8986    0.992     C
C       0.1876   0.2647    0.621     C
C       0.1876   0.2647    0.879     C
C       0.1876   0.7353    0.121     C
C       0.1876   0.7353    0.379     C
C         0.19   0.0302   0.1236     C
C         0.19   0.0302   0.3764     C
C         0.19   0.9698   0.6236     C
C         0.19   0.9698   0.8764     C
H     0.196247 0.236095 0.667556     H
H     0.196247 0.236095 0.832444     H
H     0.196247 0.763905 0.167556     H
H     0.196247 0.763905 0.332444     H
H     0.196937 -0.00187546 0.168583     H
H     0.196937 -0.00187546 0.331417     H
H     0.196937  1.00188 0.668583     H
H     0.196937  1.00188 0.831417     H
C       0.2095   0.3366   0.5304     C
C       0.2095   0.3366   0.9696     C
C       0.2095   0.6634   0.0304     C
C       0.2095   0.6634   0.4696     C
C       0.2175   0.0964   0.0298     C
C       0.2175   0.0964   0.4702     C
C       0.2175   0.9036   0.5298     C
C       0.2175   0.9036   0.9702     C
C       0.2197   0.2983   0.5864     C
C       0.2197   0.2983   0.9136     C
C       0.2197   0.7017   0.0864     C
C       0.2197   0.7017   0.4136     C
C       0.2232   0.0638   0.0923     C
C       0.2232   0.0638   0.4077     C
C       0.2232   0.9362   0.5923     C
C       0.2232   0.9362   0.9077     C
H     0.244064 0.434445  0.61694     H
H     0.244064 0.434445  0.88306     H
H     0.244064 0.565555  0.11694     H
H     0.244064 0.565555  0.38306     H
H     0.245673 0.205306 0.103589     H
H     0.245673 0.205306 0.396411     H
H     0.245673 0.794694 0.603589     H
H     0.245673 0.794694 0.896411     H
O       0.2478   0.3703   0.4288     O
O       0.2478   0.3703   1.0712     O
O       0.2478   0.6297  -0.0712     O
O       0.2478   0.6297   0.5712     O
C       0.2498   0.3711   0.4906     C
C       0.2498   0.3711   1.0094     C
C       0.2498   0.6289  -0.0094     C
C       0.2498   0.6289   0.5094     C
C       0.2502   0.1289  -0.0094     C
C       0.2502   0.1289   0.5094     C
C       0.2502   0.8711   0.4906     C
C       0.2502   0.8711   1.0094     C
O       0.2522   0.1297  -0.0712     O
O       0.2522   0.1297   0.5712     O
O       0.2522   0.8703   0.4288     O
O       0.2522   0.8703   1.0712     O
H     0.254327 0.294694 0.603589     H
H     0.254327 0.294694 0.896411     H
H     0.254327 0.705306 0.103589     H
H     0.254327 0.705306 0.396411     H
H     0.255936 0.0655551  0.11694     H
H     0.255936 0.0655551  0.38306     H
H     0.255936 0.934445  0.61694     H
H     0.255936 0.934445  0.88306     H
C       0.2768   0.4362   0.5923     C
C       0.2768   0.4362   0.9077     C
C       0.2768   0.5638   0.0923     C
C       0.2768   0.5638   0.4077     C
C       0.2803   0.2017   0.0864     C
C       0.2803   0.2017   0.4136     C
C       0.2803   0.7983   0.5864     C
C       0.2803   0.7983   0.9136     C
C       0.2825   0.4036   0.5298     C
C       0.2825   0.4036   0.9702     C
C       0.2825   0.5964   0.0298     C
C       0.2825   0.5964   0.4702     C
C       0.2905   0.1634   0.0304     C
C       0.2905   0.1634   0.4696     C
C       0.2905   0.8366   0.5304     C
C       0.2905   0.8366   0.9696     C
H     0.303063 0.498125 0.168583     H
H     0.303063 0.498125 0.331417     H
H     0.303063 0.501875 0.668583     H
H     0.303063 0.501875 0.831417     H
H     0.303753 0.263905 0.167556     H
H     0.303753 0.263905 0.332444     H
H     0.303753 0.736095 0.667556     H
H     0.303753 0.736095 0.832444     H
C         0.31   0.4698   0.6236     C
C         0.31   0.4698   0.8764     C
C         0.31   0.5302   0.1236     C
C         0.31   0.5302   0.3764     C
C       0.3124   0.2353    0.121     C
C       0.3124   0.2353    0.379     C
C       0.3124   0.7647    0.621     C
C       0.3124   0.7647    0.879     C
C       0.3273   0.3986    0.508     C
C       0.3273   0.3986    0.992     C
C       0.3273   0.6014    0.008     C
C       0.3273   0.6014    0.492     C
H     0.333108 0.369365 0.460789     H
H     0.333108 0.369365  1.03921     H
H     0.333108 0.630635 -0.0392113     H
H     0.333108 0.630635 0.539211     H
C        0.335   0.1618   0.0083     C
C        0.335   0.1618   0.4917     C
C        0.335   0.8382   0.5083     C
C        0.335   0.8382   0.9917     C
H     0.343718 0.130879 -0.0367438     H
H     0.343718 0.130879 0.536744     H
H     0.343718 0.869121 0.463256     H
H     0.343718 0.869121  1.03674     H
C        0.355   0.4638   0.5981     C
C        0.355   0.4638   0.9019     C
C        0.355   0.5362   0.0981     C
C        0.355   0.5362   0.4019     C
C       0.3604   0.2343   0.0967     C
C       0.3604   0.2343   0.4033     C
C       0.3604   0.7657   0.5967     C
C       0.3604   0.7657   0.9033     C
C       0.3652   0.4266   0.5396     C
C       0.3652   0.4266   0.9604     C
C       0.3652   0.5734   0.0396     C
C       0.3652   0.5734   0.4604     C
C       0.3664   0.1963   0.0401     C
C       0.3664   0.1963   0.4599     C
C       0.3664   0.8037   0.5401     C
C       0.3664   0.8037   0.9599     C
O       0.3779   0.3182   0.1794     O
O       0.3779   0.3182   0.3206     O
O       0.3779   0.6818   0.6794     O
O       0.3779   0.6818   0.8206     O
O       0.3814   0.4522   0.1825     O
O       0.3814   0.4522   0.3175     O
O       0.3814   0.5478   0.6825     O
O       0.3814   0.5478   0.8175     O
C       0.3921   0.4978   0.6397     C
C       0.3921   0.4978   0.8603     C
C       0.3921   0.5022   0.1397     C
C       0.3921   0.5022   0.3603     C
C       0.3933   0.2763   0.1386     C
C       0.3933   0.2763   0.3614     C
C       0.3933   0.7237   0.6386     C
C       0.3933   0.7237   0.8614     C
H     0.399104 0.419764 0.520113     H
H     0.399104 0.419764 0.979887     H
H     0.399104 0.580236 0.0201134     H
H     0.399104 0.580236 0.479887     H
H     0.400076 0.193841 0.0187419     H
H     0.400076 0.193841 0.481258     H
H     0.400076 0.806159 0.518742     H
H     0.400076 0.806159 0.981258     H
Zr      0.4176   0.3858     0.25    Zr
Zr      0.4176   0.6142     0.75    Zr
O       0.4322   0.2511   0.1236     O
O       0.4322   0.2511   0.3764     O
O       0.4322   0.4848   0.6223     O
O       0.4322   0.4848   0.8777     O
O       0.4322   0.5152   0.1223     O
O       0.4322   0.5152   0.3777     O
O       0.4322   0.7489   0.6236     O
O       0.4322   0.7489   0.8764     O
O       0.4563   0.4775     0.25     O
O       0.4563   0.5225     0.75     O
O       0.4584   0.2955     0.25     O
O       0.4584   0.7045     0.75     O
O       0.4586   0.3856   0.1584     O
O       0.4586   0.3856   0.3416     O
O       0.4586   0.6144   0.6584     O
O       0.4586   0.6144   0.8416     O
H     0.470788 0.388679 0.660084     H
H     0.471494 0.729531 0.530714     H
H     0.471654 0.497936 0.971528     H
H     0.474247  0.50903 0.0286814     H
H     0.474247  0.50903 0.471319     H
H     0.474465 0.262482 0.0308603     H
H     0.474465 0.262482  0.46914     H
H      0.47556 0.613054 0.147477     H
H      0.47556 0.613054 0.352523     H
H     0.495228 0.602445 0.275347     H
H     0.497028 0.339098 0.470541     H
H     0.497407 0.432867 0.0263949     H
H          0.5 0.103419     0.25     H
C          0.5     0.16     0.25     C
O          0.5   0.1802   0.1942     O
O          0.5   0.1802   0.3058     O
O          0.5    0.291   0.0474     O
O          0.5    0.291   0.4526     O
Zr         0.5   0.2931   0.1604    Zr
Zr         0.5   0.2931   0.3396    Zr
O          0.5   0.4081   0.6751     O
O          0.5   0.4081   0.8249     O
Zr         0.5   0.4773   0.1596    Zr
Zr         0.5   0.4773   0.3404    Zr
O          0.5   0.4808   0.0449     O
O          0.5   0.4808   0.4551     O
O          0.5   0.5192   0.5449     O
O          0.5   0.5192   0.9551     O
Zr         0.5   0.5227   0.6596    Zr
Zr         0.5   0.5227   0.8404    Zr
O          0.5   0.5919   0.1751     O
O          0.5   0.5919   0.3249     O
Zr         0.5   0.7069   0.6604    Zr
Zr         0.5   0.7069   0.8396    Zr
O          0.5    0.709   0.5474     O
O          0.5    0.709   0.9526     O
O          0.5   0.8198   0.6942     O
O          0.5   0.8198   0.8058     O
C          0.5     0.84     0.75     C
H          0.5 0.896581     0.75     H
H     0.502593 0.567133 0.526395     H
H     0.502972 0.660902 0.970541     H
H     0.504772 0.397555 0.775347     H
H      0.52444 0.386946 0.647477     H
H      0.52444 0.386946 0.852523     H
H     0.525535 0.737518  0.53086     H
H     0.525535 0.737518  0.96914     H
H     0.525753  0.49097 0.528681     H
H     0.525753  0.49097 0.971319     H
H     0.528346 0.502064 0.471528     H
H     0.528506 0.270469 0.0307142     H
H     0.529212 0.611321 0.160084     H
O       0.5414   0.3856   0.1584     O
O       0.5414   0.3856   0.3416     O
O       0.5414   0.6144   0.6584     O
O       0.5414   0.6144   0.8416     O
O       0.5416   0.2955     0.25     O
O       0.5416   0.7045     0.75     O
O       0.5437   0.4775     0.25     O
O       0.5437   0.5225     0.75     O
O       0.5678   0.2511   0.1236     O
O       0.5678   0.2511   0.3764     O
O       0.5678   0.4848   0.6223     O
O       0.5678   0.4848   0.8777     O
O       0.5678   0.5152   0.1223     O
O       0.5678   0.5152   0.3777     O
O       0.5678   0.7489   0.6236     O
O       0.5678   0.7489   0.8764     O
Zr      0.5824   0.3858     0.25    Zr
Zr      0.5824   0.6142     0.75    Zr
H     0.599924 0.193841 0.0187419     H
H     0.599924 0.193841 0.481258     H
H     0.599924 0.806159 0.518742     H
H     0.599924 0.806159 0.981258     H
H     0.600896 0.419764 0.520113     H
H     0.600896 0.419764 0.979887     H
H     0.600896 0.580236 0.0201134     H
H     0.600896 0.580236 0.479887     H
C       0.6067   0.2763   0.1386     C
C       0.6067   0.2763   0.3614     C
C       0.6067   0.7237   0.6386     C
C       0.6067   0.7237   0.8614     C
C       0.6079   0.4978   0.6397     C
C       0.6079   0.4978   0.8603     C
C       0.6079   0.5022   0.1397     C
C       0.6079   0.5022   0.3603     C
O       0.6186   0.4522   0.1825     O
O       0.6186   0.4522   0.3175     O
O       0.6186   0.5478   0.6825     O
O       0.6186   0.5478   0.8175     O
O       0.6221   0.3182   0.1794     O
O       0.6221   0.3182   0.3206     O
O       0.6221   0.6818   0.6794     O
O       0.6221   0.6818   0.8206     O
C       0.6336   0.1963   0.0401     C
C       0.6336   0.1963   0.4599     C
C       0.6336   0.8037   0.5401     C
C       0.6336   0.8037   0.9599     C
C       0.6348   0.4266   0.5396     C
C       0.6348   0.4266   0.9604     C
C       0.6348   0.5734   0.0396     C
C       0.6348   0.5734   0.4604     C
C       0.6396   0.2343   0.0967     C
C       0.6396   0.2343   0.4033     C
C       0.6396   0.7657   0.5967     C
C       0.6396   0.7657   0.9033     C
C        0.645   0.4638   0.5981     C
C        0.645   0.4638   0.9019     C
C        0.645   0.5362   0.0981     C
C        0.645   0.5362   0.4019     C
H     0.656282 0.130879 -0.0367438     H
H     0.656282 0.130879 0.536744     H
H     0.656282 0.869121 0.463256     H
H     0.656282 0.869121  1.03674     H
C        0.665   0.1618   0.0083     C
C        0.665   0.1618   0.4917     C
C        0.665   0.8382   0.5083     C
C        0.665   0.8382   0.9917     C
H     0.666892 0.369365 0.460789     H
H     0.666892 0.369365  1.03921     H
H     0.666892 0.630635 -0.0392113     H
H     0.666892 0.630635 0.539211     H
C       0.6727   0.3986    0.508     C
C       0.6727   0.3986    0.992     C
C       0.6727   0.6014    0.008     C
C       0.6727   0.6014    0.492     C
C       0.6876   0.2353    0.121     C
C       0.6876   0.2353    0.379     C
C       0.6876   0.7647    0.621     C
C       0.6876   0.7647    0.879     C
C         0.69   0.4698   0.6236     C
C         0.69   0.4698   0.8764     C
C         0.69   0.5302   0.1236     C
C         0.69   0.5302   0.3764     C
H     0.696247 0.263905 0.167556     H
H     0.696247 0.263905 0.332444     H
H     0.696247 0.736095 0.667556     H
H     0.696247 0.736095 0.832444     H
H     0.696937 0.498125 0.168583     H
H     0.696937 0.498125 0.331417     H
H     0.696937 0.501875 0.668583     H
H     0.696937 0.501875 0.831417     H
C       0.7095   0.1634   0.0304     C
C       0.7095   0.1634   0.4696     C
C       0.7095   0.8366   0.5304     C
C       0.7095   0.8366   0.9696     C
C       0.7175   0.4036   0.5298     C
C       0.7175   0.4036   0.9702     C
C       0.7175   0.5964   0.0298     C
C       0.7175   0.5964   0.4702     C
C       0.7197   0.2017   0.0864     C
C       0.7197   0.2017   0.4136     C
C       0.7197   0.7983   0.5864     C
C       0.7197   0.7983   0.9136     C
C       0.7232   0.4362   0.5923     C
C       0.7232   0.4362   0.9077     C
C       0.7232   0.5638   0.0923     C
C       0.7232   0.5638   0.4077     C
H     0.744064 0.0655551  0.11694     H
H     0.744064 0.0655551  0.38306     H
H     0.744064 0.934445  0.61694     H
H     0.744064 0.934445  0.88306     H
H     0.745673 0.294694 0.603589     H
H     0.745673 0.294694 0.896411     H
H     0.745673 0.705306 0.103589     H
H     0.745673 0.705306 0.396411     H
O       0.7478   0.1297  -0.0712     O
O       0.7478   0.1297   0.5712     O
O       0.7478   0.8703   0.4288     O
O       0.7478   0.8703   1.0712     O
C       0.7498   0.1289  -0.0094     C
C       0.7498   0.1289   0.5094     C
C       0.7498   0.8711   0.4906     C
C       0.7498   0.8711   1.0094     C
C       0.7502   0.3711   0.4906     C
C       0.7502   0.3711   1.0094     C
C       0.7502   0.6289  -0.0094     C
C       0.7502   0.6289   0.5094     C
O       0.7522   0.3703   0.4288     O
O       0.7522   0.3703   1.0712     O
O       0.7522   0.6297  -0.0712     O
O       0.7522   0.6297   0.5712     O
H     0.754327 0.205306 0.103589     H
H     0.754327 0.205306 0.396411     H
H     0.754327 0.794694 0.603589     H
H     0.754327 0.794694 0.896411     H
H     0.755936 0.434445  0.61694     H
H     0.755936 0.434445  0.88306     H
H     0.755936 0.565555  0.11694     H
H     0.755936 0.565555  0.38306     H
C       0.7768   0.0638   0.0923     C
C       0.7768   0.0638   0.4077     C
C       0.7768   0.9362   0.5923     C
C       0.7768   0.9362   0.9077     C
C       0.7803   0.2983   0.5864     C
C       0.7803   0.2983   0.9136     C
C       0.7803   0.7017   0.0864     C
C       0.7803   0.7017   0.4136     C
C       0.7825   0.0964   0.0298     C
C       0.7825   0.0964   0.4702     C
C       0.7825   0.9036   0.5298     C
C       0.7825   0.9036   0.9702     C
C       0.7905   0.3366   0.5304     C
C       0.7905   0.3366   0.9696     C
C       0.7905   0.6634   0.0304     C
C       0.7905   0.6634   0.4696     C
H     0.803063 -0.00187546 0.168583     H
H     0.803063 -0.00187546 0.331417     H
H     0.803063  1.00188 0.668583     H
H     0.803063  1.00188 0.831417     H
H     0.803753 0.236095 0.667556     H
H     0.803753 0.236095 0.832444     H
H     0.803753 0.763905 0.167556     H
H     0.803753 0.763905 0.332444     H
C         0.81   0.0302   0.1236     C
C         0.81   0.0302   0.3764     C
C         0.81   0.9698   0.6236     C
C         0.81   0.9698   0.8764     C
C       0.8124   0.2647    0.621     C
C       0.8124   0.2647    0.879     C
C       0.8124   0.7353    0.121     C
C       0.8124   0.7353    0.379     C
C       0.8273   0.1014    0.008     C
C       0.8273   0.1014    0.492     C
C       0.8273   0.8986    0.508     C
C       0.8273   0.8986    0.992     C
H     0.833108 0.130635 -0.0392113     H
H     0.833108 0.130635 0.539211     H
H     0.833108 0.869365 0.460789     H
H     0.833108 0.869365  1.03921     H
C        0.835   0.3382   0.5083     C
C        0.835   0.3382   0.9917     C
C        0.835   0.6618   0.0083     C
C        0.835   0.6618   0.4917     C
H     0.843718 0.369121 0.463256     H
H     0.843718 0.369121  1.03674     H
H     0.843718 0.630879 -0.0367438     H
H     0.843718 0.630879 0.536744     H
C        0.855   0.0362   0.0981     C
C        0.855   0.0362   0.4019     C
C        0.855   0.9638   0.5981     C
C        0.855   0.9638   0.9019     C
C       0.8604   0.2657   0.5967     C
C       0.8604   0.2657   0.9033     C
C       0.8604   0.7343   0.0967     C
C       0.8604   0.7343   0.4033     C
C       0.8652   0.0734   0.0396     C
C       0.8652   0.0734   0.4604     C
C       0.8652   0.9266   0.5396     C
C       0.8652   0.9266   0.9604     C
C       0.8664   0.3037   0.5401     C
C       0.8664   0.3037   0.9599     C
C       0.8664   0.6963   0.0401     C
C       0.8664   0.6963   0.4599     C
O       0.8779   0.1818   0.6794     O
O       0.8779   0.1818   0.8206     O
O       0.8779   0.8182   0.1794     O
O       0.8779   0.8182   0.3206     O
O       0.8814  -0.0478   0.1825     O
O       0.8814  -0.0478   0.3175     O
O       0.8814   0.0478   0.6825     O
O       0.8814   0.0478   0.8175     O
C       0.8921   0.0022   0.1397     C
C       0.8921   0.0022   0.3603     C
C       0.8921   0.9978   0.6397     C
C       0.8921   0.9978   0.8603     C
C       0.8933   0.2237   0.6386     C
C       0.8933   0.2237   0.8614     C
C       0.8933   0.7763   0.1386     C
C       0.8933   0.7763   0.3614     C
H     0.899104 0.0802358 0.0201134     H
H     0.899104 0.0802358 0.479887     H
H     0.899104 0.919764 0.520113     H
H     0.899104 0.919764 0.979887     H
H     0.900076 0.306159 0.518742     H
H     0.900076 0.306159 0.981258     H
H     0.900076 0.693841 0.0187419     H
H     0.900076 0.693841 0.481258     H
Zr      0.9176  -0.1142     0.25    Zr
Zr      0.9176   0.1142     0.75    Zr
Zr      0.9176   0.8858     0.25    Zr
Zr      0.9176   1.1142     0.75    Zr
Zr         1.0  -0.0227   0.1596    Zr
Zr         1.0  -0.0227   0.3404    Zr
Zr         1.0   0.0227   0.6596    Zr
Zr         1.0   0.0227   0.8404    Zr
Zr         1.0   0.2069   0.6604    Zr
Zr         1.0   0.2069   0.8396    Zr
Zr         1.0   0.7931   0.1604    Zr
Zr         1.0   0.7931   0.3396    Zr
Zr         1.0   0.9773   0.1596    Zr
Zr         1.0   0.9773   0.3404    Zr
Zr         1.0   1.0227   0.6596    Zr
Zr         1.0   1.0227   0.8404    Zr
