data_I
_chemical_name_common  'val_14'
_cell_length_a 15.15430
_cell_length_b 25.42730
_cell_length_c 19.92830
_cell_angle_alpha 90.00000
_cell_angle_beta  104.36617
_cell_angle_gamma 90.00000
_space_group_name_H-M_alt      'P 1'


loop_
_space_group_symop_operation_xyz
  'x, y, z' 

loop_
_atom_site_label
_atom_site_fract_x
_atom_site_fract_y
_atom_site_fract_z
_atom_site_type_symbol
Cu    -1.055364 0.506813 1.040204    Cu
O     -1.04944 0.4711117  0.88532     O
H     -1.02985 0.751179 0.855645     H
O     -0.97664 0.5666416  0.93602     O
C     -0.96785  0.75114  0.83744     C
H     -0.966892 0.716423 0.805508     H
H     -0.965671 0.786353 0.806809     H
Cu    -0.944644 0.493193 0.959804    Cu
O     -0.93212 0.4204216  0.99252     O
C     -0.88674  0.75022  0.89824     C
O     -0.87914  0.78792  0.93942     O
O     -0.85582 0.5163316  1.04612     O
O     -0.84212 0.4913516  0.90082     O
O     -0.83344 0.7117216  0.90412     O
H     -0.826254 0.611318 0.895068     H
H     -0.808274 0.594957 0.984205     H
O     -0.80054 0.6787116  1.04202     O
H     -0.781919 0.563094 0.603986     H
C     -0.77914  0.59352  0.93954     C
Cu    -0.774984 0.795193 1.019223    Cu
H     -0.771938 0.630928 0.626316     H
H     -0.770099 -0.0419545 0.855022     H
H     -0.770099  1.04195 0.355022     H
P     -0.759689 0.525796 0.919928     P
H     -0.744174 0.551389 0.806881     H
C     -0.73854  0.59774  0.60854     C
H     -0.726342 0.606848 0.558165     H
Cu    -0.725024 0.704813 0.980783    Cu
H     -0.711611 -0.0172038 0.794576     H
H     -0.711611   1.0172 0.294576     H
C     -0.70734 -0.04404  0.83794     C
C     -0.70734  1.04404  0.33794     C
H     -0.703093 0.636928 0.850503     H
O     -0.69954 0.8212916  0.95802     O
C     -0.69864  0.53462  0.85294     C
H     -0.697441 -0.08399 0.821595     H
H     -0.697441  1.08399 0.321595     H
H     -0.693739 0.506052   1.0401     H
N     -0.69164 0.6232717  0.95532     N
H     -0.673574 0.496718 0.840012     H
C     -0.66834  0.50752  0.99364     C
H     -0.65825 0.596322  1.05868     H
C     -0.65544  0.79322  0.92574     C
O     -0.65474 0.7438516  0.92592     O
O     -0.65212 0.5756716  0.72092     O
C     -0.65174  0.62322  0.89554     C
C     -0.64944  0.58702  0.65954     C
O     -0.64422 -0.0163316  0.95392     O
O     -0.64422 1.0163316  0.45392     O
H     -0.643842 0.845167 0.844441     H
H     -0.641632 0.469069 0.984637     H
C     -0.62774 -0.02852  0.89704     C
C     -0.62774  1.02852  0.39704     C
C     -0.62564  0.59912  1.01594     C
O     -0.62094  0.71212  1.06062     O
N     -0.61954 0.5711817  0.87922     N
C     -0.59954  0.82092  0.88384     C
N     -0.59564  0.54732  1.00212     N
H     -0.594068 0.650165 0.906112     H
H     -0.582846 0.170907 0.966498     H
O     -0.57852 0.5900217  0.63802     O
O     -0.56792 0.0795816  1.00752     O
H     -0.567555 0.152472 0.884041     H
H     -0.566164 0.624578  1.03065     H
H     -0.565323  0.79191 0.858877     H
C     -0.55684  0.54962  0.94214     C
Cu    -0.555364 0.006813 1.040204    Cu
Cu    -0.555364 0.993193 0.540204    Cu
O     -0.54944 -0.0288917  0.88532     O
O     -0.54944 1.0288917  0.38532     O
H     -0.548858 0.845681 0.917743     H
O     -0.54724 0.6570516  0.78492     O
H     -0.544717 0.406424 0.701948     H
H     -0.543481 0.753176  0.78215     H
Cu    -0.542924 0.579773 0.798194    Cu
C     -0.53804  0.15092  0.93974     C
H     -0.537808 0.509898 0.930705     H
H     -0.529847 0.251179 0.855645     H
H     -0.529847 0.748821 0.355645     H
H     -0.528226 -0.170195  1.04815     H
H     -0.528226  1.17019 0.548151     H
C     -0.52674  0.09442  0.96284     C
O     -0.52654 0.5033616  0.79792     O
H      -0.5257 0.753176 0.697234     H
H     -0.524213 0.406424 0.793767     H
O     -0.52344 -0.0666416  1.06402     O
O     -0.52344 1.0666416  0.56402     O
H     -0.503779 0.574287  0.54486     H
C         -0.5  0.42074     0.75     C
C         -0.5  0.48054     0.75     C
C         -0.5  0.67924     0.75     C
C         -0.5  0.73894     0.75     C
H     -0.496221 0.574287  0.95514     H
O     -0.47664 0.0666416  0.93602     O
O     -0.47664 0.9333616  0.43602     O
O     -0.47354 0.5033616  0.70212     O
C     -0.47334 -0.09442  1.03724     C
C     -0.47334  1.09442  0.53724     C
H     -0.471774 0.170195 0.951849     H
C     -0.46785  0.25114  0.83744     C
C     -0.46785  0.74894  0.33744     C
H     -0.466892 0.216423 0.805508     H
H     -0.466892 0.783577 0.305508     H
H     -0.465671 0.286353 0.806809     H
H     -0.465671 0.713647 0.306809     H
H     -0.462192 0.509898 0.569295     H
C     -0.46204 -0.15092  1.06034     C
C     -0.46204  1.15092  0.56034     C
Cu    -0.457084 0.579773 0.701814    Cu
O     -0.45284 0.6570516  0.71512     O
H     -0.451142 0.845681 0.582257     H
Cu    -0.444644 -0.006813 0.959804    Cu
Cu    -0.444644 1.006813 0.459804    Cu
C     -0.44324  0.54962  0.55794     C
H     -0.434677  0.79191 0.641123     H
H     -0.433836 0.624578 0.469354     H
H     -0.432445 -0.152472  1.11596     H
H     -0.432445  1.15247 0.615959     H
O     -0.43212 -0.0795816  0.99252     O
O     -0.43212 1.0795816  0.49252     O
H     -0.43107 0.406424 0.754285     H
H     -0.430818 0.753176 0.770615     H
O     -0.42152 0.5900217  0.86202     O
H     -0.417154 -0.170907   1.0335     H
H     -0.417154  1.17091 0.533502     H
H     -0.405932 0.650165 0.593888     H
N     -0.40444  0.54732  0.49792     N
C     -0.40054  0.82092  0.61624     C
C     -0.38674  0.25022  0.89824     C
C     -0.38674  0.74982  0.39824     C
N     -0.38054 0.5711817  0.62082     N
O     -0.37914  0.28792  0.93942     O
O     -0.37914  0.71212  0.43942     O
C     -0.37444  0.59912  0.48414     C
H     -0.358368 0.469069 0.515363     H
H     -0.356158 0.845167 0.655559     H
O     -0.35582 0.0163316  1.04612     O
O     -0.35582 0.9836716  0.54612     O
C     -0.35064  0.58702  0.84054     C
C     -0.34834  0.62322  0.60454     C
O     -0.34792 0.5756716  0.77912     O
O     -0.34534 0.7438516  0.57412     O
C     -0.34464  0.79322  0.57434     C
O     -0.34212 -0.0086516  0.90082     O
O     -0.34212 1.0086516  0.40082     O
H     -0.34175 0.596322 0.441319     H
O     -0.33344 0.2117216  0.90412     O
O     -0.33344 0.7882816  0.40412     O
C     -0.33174  0.50752  0.50644     C
H     -0.326426 0.496718 0.659988     H
H     -0.326254 0.111318 0.895068     H
H     -0.326254 0.888682 0.395068     H
N     -0.30844 0.6232717  0.54472     N
H     -0.308274 0.0949567 0.984205     H
H     -0.308274 0.905043 0.484205     H
H     -0.306261 0.506052   0.4599     H
C     -0.30144  0.53462  0.64714     C
O     -0.30054 0.1787116  1.04202     O
O     -0.30054 0.8212916  0.54202     O
H     -0.296907 0.636928 0.649497     H
H     -0.281919 0.0630941 0.603986     H
H     -0.281919 0.936906 0.103986     H
C     -0.27914  0.09352  0.93954     C
C     -0.27914  0.90652  0.43954     C
Cu    -0.274984 0.295193 1.019223    Cu
Cu    -0.274984 0.704813 0.519223    Cu
H     -0.273658 0.606848 0.941835     H
H     -0.271938 0.130928 0.626316     H
H     -0.271938 0.869072 0.126316     H
H     -0.270099 0.541954 0.355022     H
C     -0.26154  0.59774  0.89154     C
P     -0.259689 0.025796 0.919928     P
P     -0.259689 0.974216 0.419928     P
H     -0.255826 0.551389 0.693119     H
H     -0.244174 0.0513893 0.806881     H
H     -0.244174 0.948611 0.306881     H
P     -0.240329 0.525796 0.580088     P
C     -0.23854  0.09774  0.60854     C
C     -0.23854  0.90234  0.10854     C
H     -0.228062 0.630928 0.873684     H
H     -0.226342 0.106848 0.558165     H
H     -0.226342 0.893152 0.058165     H
Cu    -0.225024 0.204813 0.980783    Cu
Cu    -0.225024 0.795193 0.480783    Cu
C     -0.22094  0.59352  0.56054     C
H     -0.218081 0.563094 0.896014     H
H     -0.211611 0.517204 0.294576     H
C     -0.20734  0.54404  0.33794     C
H     -0.203093 0.136928 0.850503     H
H     -0.203093 0.863072 0.350503     H
O     -0.19954 0.3212916  0.95802     O
O     -0.19954 0.6787116  0.45802     O
C     -0.19864  0.03462  0.85294     C
C     -0.19864  0.96542  0.35294     C
H     -0.197441  0.58399 0.321595     H
H     -0.193739 0.00605167   1.0401     H
H     -0.193739 0.993948   0.5401     H
H     -0.191726 0.594957 0.515795     H
N     -0.19164 0.1232717  0.95532     N
N     -0.19164 0.8767317  0.45532     N
H     -0.173746 0.611318 0.604932     H
H     -0.173574 -0.00328193 0.840012     H
H     -0.173574  1.00328 0.340012     H
C     -0.16834  0.00752  0.99364     C
C     -0.16834  0.99252  0.49364     C
O     -0.16664 0.7117216  0.59592     O
H     -0.15825 0.0963224  1.05868     H
H     -0.15825 0.903678 0.558681     H
O     -0.15792 0.4913516  0.59922     O
C     -0.15544  0.29322  0.92574     C
C     -0.15544  0.70682  0.42574     C
O     -0.15474 0.2438516  0.92592     O
O     -0.15474 0.7561516  0.42592     O
O     -0.15212 0.0756716  0.72092     O
O     -0.15212 0.9243316  0.22092     O
C     -0.15174  0.12322  0.89554     C
C     -0.15174  0.87682  0.39554     C
C     -0.14944  0.08702  0.65954     C
C     -0.14944  0.91302  0.15954     C
O     -0.14422 0.5163316  0.45392     O
H     -0.143842 0.345167 0.844441     H
H     -0.143842 0.654833 0.344441     H
H     -0.141632 -0.030931 0.984637     H
H     -0.141632  1.03093 0.484637     H
C     -0.12774  0.52852  0.39704     C
C     -0.12564  0.09912  1.01594     C
C     -0.12564  0.90092  0.51594     C
O     -0.12094  0.21212  1.06062     O
O     -0.12094  0.78792  0.56062     O
N     -0.11954 0.0711817  0.87922     N
N     -0.11954 0.9288217  0.37922     N
C     -0.11334  0.75022  0.60184     C
C     -0.09954  0.32092  0.88384     C
C     -0.09954  0.67912  0.38384     C
N     -0.09564  0.04732  1.00212     N
N     -0.09564  0.95272  0.50212     N
H     -0.0940682 0.150165 0.906112     H
H     -0.0940682 0.849835 0.406112     H
H     -0.0828457 0.329093 0.466498     H
O     -0.07852 0.0900217  0.63802     O
O     -0.07852 0.9099817  0.13802     O
H     -0.0691818 0.746824 0.229385     H
H     -0.0689302  1.09358 0.245715     H
O     -0.06792 0.4204216  0.50752     O
H     -0.0675546 0.347528 0.384041     H
H     -0.0661643 0.124578  1.03065     H
H     -0.0661643 0.875422 0.530646     H
H     -0.0653232  0.29191 0.858877     H
H     -0.0653232  0.70809 0.358877     H
C     -0.05684  0.04962  0.94214     C
C     -0.05684  0.95042  0.44214     C
Cu    -0.055364 0.493193 0.540204    Cu
O     -0.04944 0.5288917  0.38532     O
H     -0.0488579 0.345681 0.917743     H
H     -0.0488579 0.654319 0.417743     H
O     -0.04724 0.1570516  0.78492     O
O     -0.04724 0.8429516  0.28492     O
H     -0.0447169 -0.0935762 0.701948     H
H     -0.0434814 0.253176  0.78215     H
Cu    -0.042924 0.079773 0.798194    Cu
Cu    -0.042924 0.920233 0.298194    Cu
C     -0.03804  0.34912  0.43974     C
H     -0.0378078 0.00989798 0.930705     H
H     -0.0378078 0.990102 0.430705     H
H     -0.0343292 0.786353 0.693191     H
H     -0.0331083 0.716423 0.694492     H
C     -0.03225  0.75114  0.66264     C
H     -0.0298468 0.248821 0.355645     H
H     -0.0282255 0.670195 0.548151     H
C     -0.02674  0.40562  0.46284     C
O     -0.02654 0.0033616  0.79792     O
O     -0.02654 0.9966416  0.29792     O
H     -0.0257004 0.253176 0.697234     H
H     -0.0242134 -0.0935762 0.793767     H
O     -0.02344 0.5666416  0.56402     O
H     -0.00377908 0.0742867  0.54486     H
H     -0.00377908 0.925713 0.0448598     H
C          0.0 -0.07934     0.75     C
C          0.0 -0.01954     0.75     C
C          0.0  0.17924     0.75     C
C          0.0  0.23894     0.75     C
C          0.0  0.76114     0.25     C
C          0.0  0.82084     0.25     C
C          0.0  1.01954     0.25     C
C          0.0  1.07934     0.25     C
H     0.00377908 0.0742867  0.95514     H
H     0.00377908 0.925713  0.45514     H
O      0.02344 0.4333616  0.43602     O
H     0.0242134  1.09358 0.206233     H
H     0.0257004 0.746824 0.302766     H
O      0.02654 0.0033616  0.70212     O
O      0.02654 0.9966416  0.20212     O
C      0.02674  0.59442  0.53724     C
H     0.0282255 0.329805 0.451849     H
H     0.0298468 0.751179 0.644355     H
C      0.03225  0.24894  0.33744     C
H     0.0331083 0.283577 0.305508     H
H     0.0343292 0.213647 0.306809     H
H     0.0378078 0.00989798 0.569295     H
H     0.0378078 0.990102 0.0692945     H
C      0.03804  0.65092  0.56034     C
Cu    0.042924 0.079773 0.701814    Cu
Cu    0.042924 0.920233 0.201814    Cu
H     0.0434814 0.746824  0.21785     H
H     0.0447169  1.09358 0.298052     H
O      0.04724 0.1570516  0.71512     O
O      0.04724 0.8429516  0.21512     O
H     0.0488579 0.345681 0.582257     H
H     0.0488579 0.654319 0.0822575     H
O      0.04944 0.4711117  0.61472     O
Cu    0.055364 0.506813 0.459804    Cu
C      0.05684  0.04962  0.55794     C
C      0.05684  0.95042  0.05794     C
H     0.0653232  0.29191 0.641123     H
H     0.0653232  0.70809 0.141123     H
H     0.0661643 0.124578 0.469354     H
H     0.0661643 0.875422 -0.0306463     H
H     0.0675546 0.652472 0.615959     H
O      0.06792 0.5795816  0.49252     O
H     0.0689302 -0.0935762 0.754285     H
H     0.0691818 0.253176 0.770615     H
O      0.07852 0.0900217  0.86202     O
O      0.07852 0.9099817  0.36202     O
H     0.0828457 0.670907 0.533502     H
H     0.0940682 0.150165 0.593888     H
H     0.0940682 0.849835 0.0938877     H
N      0.09564  0.04732  0.49792     N
N      0.09564  0.95272 -0.00212     N
C      0.09954  0.32092  0.61624     C
C      0.09954  0.67912  0.11624     C
C      0.11334  0.24982  0.39824     C
N      0.11954 0.0711817  0.62082     N
N      0.11954 0.9288217  0.12082     N
O      0.12094  0.21212  0.43942     O
C      0.12564  0.09912  0.48414     C
C      0.12564  0.90092 -0.01594     C
C      0.12774  0.47152  0.60304     C
H     0.141632 -0.030931 0.515363     H
H     0.141632  1.03093 0.0153627     H
H     0.143842 0.345167 0.655559     H
H     0.143842 0.654833 0.155559     H
O      0.14422 0.4836716  0.54612     O
C      0.14944  0.08702  0.84054     C
C      0.14944  0.91302  0.34054     C
C      0.15174  0.12322  0.60454     C
C      0.15174  0.87682  0.10454     C
O      0.15212 0.0756716  0.77912     O
O      0.15212 0.9243316  0.27912     O
O      0.15474 0.2438516  0.57412     O
O      0.15474 0.7561516  0.07412     O
C      0.15544  0.29322  0.57434     C
C      0.15544  0.70682  0.07434     C
O      0.15792 0.5086516  0.40082     O
H      0.15825 0.0963224 0.441319     H
H      0.15825 0.903678 -0.0586807     H
O      0.16664 0.2882816  0.40412     O
C      0.16834  0.00752  0.50644     C
C      0.16834  0.99252  0.00644     C
H     0.173574 -0.00328193 0.659988     H
H     0.173574  1.00328 0.159988     H
H     0.173746 0.388682 0.395068     H
N      0.19164 0.1232717  0.54472     N
N      0.19164 0.8767317  0.04472     N
H     0.191726 0.405043 0.484205     H
H     0.193739 0.00605167   0.4599     H
H     0.193739 0.993948 -0.0401002     H
H     0.197441  0.41601 0.678405     H
C      0.19864  0.03462  0.64714     C
C      0.19864  0.96542  0.14714     C
O      0.19954 0.3212916  0.54202     O
H     0.203093 0.136928 0.649497     H
H     0.203093 0.863072 0.149497     H
C      0.20734  0.45604  0.66214     C
H     0.211611 0.482796 0.705424     H
H     0.218081 0.436906 0.103986     H
C      0.22094  0.40652  0.43954     C
Cu    0.225024 0.204813 0.519223    Cu
Cu    0.225024 0.795193 0.019223    Cu
H     0.226342 0.106848 0.941835     H
H     0.226342 0.893152 0.441835     H
H     0.228062 0.369072 0.126316     H
C      0.23854  0.09774  0.89154     C
C      0.23854  0.90234  0.39154     C
P     0.240329 0.474216 0.419928     P
H     0.244174 0.0513893 0.693119     H
H     0.244174 0.948611 0.193119     H
H     0.255826 0.448611 0.306881     H
P     0.259689 0.025796 0.580088     P
P     0.259689 0.974216 0.080088     P
C      0.26154  0.40234  0.10854     C
H     0.270099 0.458046 0.644978     H
H     0.271938 0.130928 0.873684     H
H     0.271938 0.869072 0.373684     H
H     0.273658 0.393152 0.058165     H
Cu    0.274984 0.295193 0.480783    Cu
Cu    0.274984 0.704813 -0.019223    Cu
C      0.27914  0.09352  0.56054     C
C      0.27914  0.90652  0.06054     C
H     0.281919 0.0630941 0.896014     H
H     0.281919 0.936906 0.396014     H
H     0.296907 0.363072 0.350503     H
O      0.30054 0.1787116  0.45802     O
C      0.30144  0.46542  0.35294     C
H     0.306261 0.493948   0.5401     H
H     0.308274 0.0949567 0.515795     H
H     0.308274 0.905043 0.0157954     H
N      0.30844 0.3767317  0.45532     N
H     0.326254 0.111318 0.604932     H
H     0.326254 0.888682 0.104932     H
H     0.326426 0.503282 0.340012     H
C      0.33174  0.49252  0.49364     C
O      0.33344 0.2117216  0.59592     O
O      0.33344 0.7882816  0.09592     O
H      0.34175 0.403678 0.558681     H
O      0.34212 -0.0086516  0.59922     O
O      0.34212 1.0086516  0.09922     O
C      0.34464  0.20682  0.42574     C
O      0.34534 0.2561516  0.42592     O
O      0.34792 0.4243316  0.22092     O
C      0.34834  0.37682  0.39554     C
C      0.35064  0.41302  0.15954     C
H     0.356158 0.154833 0.344441     H
H     0.358368 0.530931 0.484637     H
C      0.37444  0.40092  0.51594     C
O      0.37914  0.28792  0.56062     O
N      0.38054 0.4288217  0.37922     N
C      0.38674  0.25022  0.60184     C
C      0.38674  0.74982  0.10184     C
C      0.40054  0.17912  0.38384     C
N      0.40444  0.45272  0.50212     N
H     0.405932 0.349835 0.406112     H
H     0.417154 -0.170907 0.466498     H
O      0.42152 0.4099817  0.13802     O
H     0.430818 0.246824 0.229385     H
H      0.43107 0.593576 0.245715     H
O      0.43212 -0.0795816  0.50752     O
H     0.432445 -0.152472 0.384041     H
H     0.433836 0.375422 0.530646     H
H     0.434677  0.20809 0.358877     H
C      0.44324  0.45042  0.44214     C
Cu    0.444644 -0.006813 0.540204    Cu
Cu    0.444644 1.006813 0.040204    Cu
H     0.451142 0.154319 0.417743     H
O      0.45284 0.3429516  0.28492     O
Cu    0.457084 0.420233 0.298194    Cu
C      0.46204 -0.15092  0.43974     C
H     0.462192 0.490102 0.430705     H
H     0.465671 0.286353 0.693191     H
H     0.465671 0.713647 0.193191     H
H     0.466892 0.216423 0.694492     H
H     0.466892 0.783577 0.194492     H
C      0.46785  0.25114  0.66264     C
C      0.46785  0.74894  0.16264     C
C      0.47334 -0.09442  0.46284     C
O      0.47354 0.4966416  0.29792     O
H     0.496221 0.425713 0.0448598     H
C          0.5  0.26114     0.25     C
C          0.5  0.32084     0.25     C
C          0.5  0.51954     0.25     C
C          0.5  0.57934     0.25     C
H     0.503779 0.425713  0.45514     H
H     0.524213 0.593576 0.206233     H
H       0.5257 0.246824 0.302766     H
O      0.52654 0.4966416  0.20212     O
H     0.528226 -0.170195 0.451849     H
H     0.529847 0.251179 0.644355     H
H     0.529847 0.748821 0.144355     H
H     0.537808 0.490102 0.0692945     H
Cu    0.542924 0.420233 0.201814    Cu
H     0.543481 0.246824  0.21785     H
H     0.544717 0.593576 0.298052     H
O      0.54724 0.3429516  0.21512     O
H     0.548858 0.154319 0.0822575     H
O      0.54944 -0.0288917  0.61472     O
O      0.54944 1.0288917  0.11472     O
Cu    0.555364 0.006813 0.459804    Cu
Cu    0.555364 0.993193 -0.040204    Cu
C      0.55684  0.45042  0.05794     C
H     0.565323  0.20809 0.141123     H
H     0.566164 0.375422 -0.0306463     H
O      0.57852 0.4099817  0.36202     O
H     0.594068 0.349835 0.0938877     H
N      0.59564  0.45272 -0.00212     N
C      0.59954  0.17912  0.11624     C
N      0.61954 0.4288217  0.12082     N
C      0.62564  0.40092 -0.01594     C
C      0.62774 -0.02852  0.60304     C
C      0.62774  1.02852  0.10304     C
H     0.641632 0.530931 0.0153627     H
H     0.643842 0.154833 0.155559     H
C      0.64944  0.41302  0.34054     C
C      0.65174  0.37682  0.10454     C
O      0.65212 0.4243316  0.27912     O
O      0.65474 0.2561516  0.07412     O
C      0.65544  0.20682  0.07434     C
H      0.65825 0.403678 -0.0586807     H
C      0.66834  0.49252  0.00644     C
H     0.673574 0.503282 0.159988     H
N      0.69164 0.3767317  0.04472     N
H     0.693739 0.493948 -0.0401002     H
H     0.697441 -0.08399 0.678405     H
H     0.697441  1.08399 0.178405     H
C      0.69864  0.46542  0.14714     C
H     0.703093 0.363072 0.149497     H
C      0.70734 -0.04404  0.66214     C
C      0.70734  1.04404  0.16214     C
H     0.711611 -0.0172038 0.705424     H
H     0.711611   1.0172 0.205424     H
Cu    0.725024 0.295193 0.019223    Cu
H     0.726342 0.393152 0.441835     H
H     0.729901 0.458046 -0.144978     H
C      0.73854  0.40234  0.39154     C
H     0.744174 0.448611 0.193119     H
P     0.759689 0.474216 0.080088     P
H     0.770099 -0.0419545 0.644978     H
H     0.770099  1.04195 0.144978     H
H     0.771938 0.369072 0.373684     H
Cu    0.774984 0.204813 -0.019223    Cu
C      0.77914  0.40652  0.06054     C
H     0.781919 0.436906 0.396014     H
H     0.788389 0.482796 -0.205424     H
C      0.79274  0.45604 -0.16214     C
H     0.802559  0.41601 -0.178405     H
H     0.808274 0.405043 0.0157954     H
H     0.826254 0.388682 0.104932     H
O      0.83344 0.2882816  0.09592     O
O      0.84212 0.5086516  0.09922     O
O      0.85582 0.4836716 -0.04612     O
C      0.87234  0.47152 -0.10304     C
C      0.88674  0.24982  0.10184     C
H     0.917154 0.670907 -0.0335018     H
O      0.93212 0.5795816  0.00752     O
H     0.932445 0.652472 -0.115959     H
Cu    0.944644 0.506813 0.040204    Cu
O      0.95064 0.4711117 -0.11472     O
C      0.96204  0.65092 -0.06034     C
H     0.965671 0.213647 0.193191     H
H     0.966892 0.283577 0.194492     H
C      0.96785  0.24894  0.16264     C
H     0.971774 0.329805 0.048151     H
C      0.97334  0.59442 -0.03724     C
O      0.97664 0.4333616  0.06402     O
O      1.02344 0.5666416 -0.06402     O
C      1.02674  0.40562  0.03724     C
H      1.02823 0.670195 -0.048151     H
H      1.02985 0.248821 0.144355     H
C      1.03804  0.34912  0.06034     C
O      1.04944 0.5288917  0.11472     O
Cu    1.055364 0.493193 -0.040204    Cu
H      1.06755 0.347528 0.115959     H
O      1.06792 0.4204216 -0.00752     O
H      1.08285 0.329093 0.0335018     H
C      1.12774  0.52852  0.10304     C
O      1.14422 0.5163316  0.04612     O
H      1.19744  0.58399 0.178405     H
C      1.20734  0.54404  0.16214     C
H      1.21161 0.517204 0.205424     H
H       1.2701 0.541954 0.144978     H
