data_I
_chemical_name_common  'val_16'
_cell_length_a 23.87874
_cell_length_b 13.38602
_cell_length_c 13.69752
_cell_angle_alpha 90.00000
_cell_angle_beta  101.69701
_cell_angle_gamma 90.00000
_space_group_name_H-M_alt      'P 1'


loop_
_space_group_symop_operation_xyz
  'x, y, z' 

loop_
_atom_site_label
_atom_site_fract_x
_atom_site_fract_y
_atom_site_fract_z
_atom_site_type_symbol
C      0.01272  0.33257  0.42385     C
C      0.01272  0.66757  0.92385     C
O     0.0232317  0.25564  0.47314     O
O     0.0232317  0.74444  0.97314     O
C      0.04874  0.35559  0.12828     C
C      0.04874  0.64459  0.62828     C
H       0.0522   0.3497    0.199     H
H       0.0522   0.6503    0.699     H
O     0.0525417  0.38864  0.41624     O
O     0.0525417  0.61144  0.91624     O
H       0.0583   0.4222    0.112     H
H       0.0583   0.5778    0.612     H
H       0.0742    0.309   0.1062     H
H       0.0742    0.691   0.6062     H
O      0.09954  0.09534  0.37315     O
O      0.09954  0.90474  0.87315     O
O     0.1114513  0.13882  0.59494     O
O     0.1114513  0.86122  0.09494     O
O     0.1135913  0.35582  0.64562     O
O     0.1135913  0.64422  0.14562     O
In    0.1170649 0.27740316 0.50880616    In
In    0.1170649 0.72259716 0.00880616    In
H       0.1258     0.02   0.7454     H
H       0.1258     0.98   0.2454     H
C     0.1333517  0.14934  0.34474     C
C     0.1333517  0.85074  0.84474     C
C     0.1446016  0.43364  0.66824     C
C     0.1446016  0.56644  0.16824     C
O     0.1451416  0.23562  0.37822     O
O     0.1451416  0.76442  0.87822     O
O     0.1458914  0.48454  0.74362     O
O     0.1458914  0.51554  0.24362     O
C     0.1534416  0.01954  0.22524     C
C     0.1534416  0.98054  0.72524     C
C     0.1641317  0.11874  0.61134     C
C     0.1641317  0.88134  0.11134     C
C     0.1647116  0.11304  0.26684     C
C     0.1647116  0.88704  0.76684     C
N     0.1781912  0.40652  0.51482     N
N     0.1781912  0.59352  0.01482     N
C     0.1816116  0.46454  0.59592     C
C     0.1816116  0.53554  0.09592     C
C     0.1820316  0.01784  0.65374     C
C     0.1820316  0.98224  0.15374     C
O     0.1978514  0.17992  0.58824     O
O     0.1978514  0.82012  0.08824     O
H       0.2053   0.3903     0.39     H
H       0.2053   0.6097     0.89     H
C     0.2059717  0.17204  0.23604     C
C     0.2059717  0.82804  0.73604     C
C     0.2086316  0.43024  0.44652     C
C     0.2086316  0.56984  0.94652     C
H       0.2145    0.235   0.2636     H
H       0.2145    0.765   0.7636     H
C     0.2163018  0.45254  0.11164     C
C     0.2163018  0.54754  0.61164     C
H       0.2181   0.4131   0.1681     H
H       0.2181   0.5869   0.6681     H
C     0.2231316  0.04204  0.12204     C
C     0.2231316  0.95804  0.62204     C
H       0.2279   0.1265   0.9484     H
H       0.2279   0.8735   0.4484     H
C     0.2341817  0.13644  0.16414     C
C     0.2341817  0.86364  0.66414     C
H       0.2387   0.3232   0.8567     H
H       0.2387   0.6768   0.3567     H
C     0.2453016  0.48764  0.95652     C
C     0.2453016  0.51244  0.45652     C
C     0.2482418  0.42914  0.04184     C
C     0.2482418  0.57094  0.54184     C
C     0.2517618  0.07094  0.95824     C
C     0.2517618  0.92914  0.45824     C
C     0.2547016  0.01244  0.04352     C
C     0.2547016  0.98764  0.54352     C
H       0.2613   0.1768   0.1433     H
H       0.2613   0.8232   0.6433     H
C     0.2658217  0.36364  0.83594     C
C     0.2658217  0.63644  0.33594     C
H       0.2721   0.3735   0.0516     H
H       0.2721   0.6265   0.5516     H
C     0.2768716  0.45804  0.87804     C
C     0.2768716  0.54204  0.37804     C
H       0.2819   0.0869   0.8319     H
H       0.2819   0.9131   0.3319     H
C     0.2837018  0.04754  0.88844     C
C     0.2837018  0.95254  0.38844     C
H       0.2855    0.265   0.7364     H
H       0.2855    0.735   0.2364     H
C     0.2913716  0.06984  0.55352     C
C     0.2913716  0.93024  0.05352     C
C     0.2940317  0.32804  0.76404     C
C     0.2940317  0.67204  0.26404     C
H       0.2947   0.1097     0.61     H
H       0.2947   0.8903     0.11     H
O     0.3021514  0.32012  0.41184     O
O     0.3021514  0.67992  0.91184     O
C     0.3179716  0.48224  0.34634     C
C     0.3179716  0.51784  0.84634     C
C     0.3183916  0.03554  0.40412     C
C     0.3183916  0.96454  0.90412     C
N     0.3218112  0.09352  0.48522     N
N     0.3218112  0.90652  0.98522     N
C     0.3352916  0.38704  0.73324     C
C     0.3352916  0.61304  0.23324     C
C     0.3358717  0.38134  0.38874     C
C     0.3358717  0.61874  0.88874     C
C     0.3465616  0.48054  0.77484     C
C     0.3465616  0.51954  0.27484     C
O     0.3541114  0.01554  0.25642     O
O     0.3541114  0.98454  0.75642     O
O     0.3548616  0.26442  0.62182     O
O     0.3548616  0.73562  0.12182     O
C     0.3554016  0.06644  0.33184     C
C     0.3554016  0.93364  0.83184     C
C     0.3666517  0.35074  0.65534     C
C     0.3666517  0.64934  0.15534     C
H       0.3742     0.48   0.2546     H
H       0.3742     0.52   0.7546     H
In    0.3829369 0.22259716 0.49119416    In
In    0.3829369 0.77740316 0.99119416    In
O     0.3864113  0.14422  0.35442     O
O     0.3864113  0.85582  0.85442     O
O     0.3885513  0.36122  0.40514     O
O     0.3885513  0.63882  0.90514     O
O      0.40054  0.40474  0.62695     O
O      0.40054  0.59534  0.12695     O
H       0.4258    0.191   0.8938     H
H       0.4258    0.809   0.3938     H
H       0.4417   0.0778    0.888     H
H       0.4417   0.9222    0.388     H
O     0.4474617  0.11144  0.58384     O
O     0.4474617  0.88864  0.08384     O
H       0.4478   0.1503    0.801     H
H       0.4478   0.8497    0.301     H
C      0.45134  0.14459  0.87188     C
C      0.45134  0.85559  0.37188     C
O     0.4767717  0.24444  0.52694     O
O     0.4767717  0.75564  0.02694     O
C      0.48732  0.16757  0.57625     C
C      0.48732  0.83257  0.07625     C
C      0.51272  0.16757  0.92385     C
C      0.51272  0.83257  0.42385     C
O     0.5232317  0.24444  0.97314     O
O     0.5232317  0.75564  0.47314     O
C      0.54874  0.14459  0.62828     C
C      0.54874  0.85559  0.12828     C
H       0.5522   0.1503    0.699     H
H       0.5522   0.8497    0.199     H
O     0.5525417  0.11144  0.91624     O
O     0.5525417  0.88864  0.41624     O
H       0.5583   0.0778    0.612     H
H       0.5583   0.9222    0.112     H
H       0.5742    0.191   0.6062     H
H       0.5742    0.809   0.1062     H
O      0.59954  0.40474  0.87315     O
O      0.59954  0.59534  0.37315     O
O     0.6114513  0.36122  0.09494     O
O     0.6114513  0.63882  0.59494     O
O     0.6135913  0.14422  0.14562     O
O     0.6135913  0.85582  0.64562     O
In    0.6170649 0.22259716 0.00880616    In
In    0.6170649 0.77740316 0.50880616    In
H       0.6258     0.48   0.2454     H
H       0.6258     0.52   0.7454     H
C     0.6333517  0.35074  0.84474     C
C     0.6333517  0.64934  0.34474     C
C     0.6446016  0.06644  0.16824     C
C     0.6446016  0.93364  0.66824     C
O     0.6451416  0.26442  0.87822     O
O     0.6451416  0.73562  0.37822     O
O     0.6458914  0.01554  0.24362     O
O     0.6458914  0.98454  0.74362     O
C     0.6534416  0.48054  0.72524     C
C     0.6534416  0.51954  0.22524     C
C     0.6641317  0.38134  0.11134     C
C     0.6641317  0.61874  0.61134     C
C     0.6647116  0.38704  0.76684     C
C     0.6647116  0.61304  0.26684     C
N     0.6781912  0.09352  0.01482     N
N     0.6781912  0.90652  0.51482     N
C     0.6816116  0.03554  0.09592     C
C     0.6816116  0.96454  0.59592     C
C     0.6820316  0.48224  0.15374     C
C     0.6820316  0.51784  0.65374     C
O     0.6978514  0.32012  0.08824     O
O     0.6978514  0.67992  0.58824     O
H       0.7053   0.1097     0.89     H
H       0.7053   0.8903     0.39     H
C     0.7059717  0.32804  0.73604     C
C     0.7059717  0.67204  0.23604     C
C     0.7086316  0.06984  0.94652     C
C     0.7086316  0.93024  0.44652     C
H       0.7145    0.265   0.7636     H
H       0.7145    0.735   0.2636     H
C     0.7163018  0.04754  0.61164     C
C     0.7163018  0.95254  0.11164     C
H       0.7181   0.0869   0.6681     H
H       0.7181   0.9131   0.1681     H
C     0.7231316  0.45804  0.62204     C
C     0.7231316  0.54204  0.12204     C
H       0.7279   0.3735   0.4484     H
H       0.7279   0.6265   0.9484     H
C     0.7341817  0.36364  0.66414     C
C     0.7341817  0.63644  0.16414     C
H       0.7387   0.1768   0.3567     H
H       0.7387   0.8232   0.8567     H
C     0.7453016  0.01244  0.45652     C
C     0.7453016  0.98764  0.95652     C
C     0.7482418  0.07094  0.54184     C
C     0.7482418  0.92914  0.04184     C
C     0.7517618  0.42914  0.45824     C
C     0.7517618  0.57094  0.95824     C
C     0.7547016  0.48764  0.54352     C
C     0.7547016  0.51244  0.04352     C
H       0.7613   0.3232   0.6433     H
H       0.7613   0.6768   0.1433     H
C     0.7658217  0.13644  0.33594     C
C     0.7658217  0.86364  0.83594     C
H       0.7721   0.1265   0.5516     H
H       0.7721   0.8735   0.0516     H
C     0.7768716  0.04204  0.37804     C
C     0.7768716  0.95804  0.87804     C
H       0.7819   0.4131   0.3319     H
H       0.7819   0.5869   0.8319     H
C     0.7837018  0.45254  0.38844     C
C     0.7837018  0.54754  0.88844     C
H       0.7855    0.235   0.2364     H
H       0.7855    0.765   0.7364     H
C     0.7913716  0.43024  0.05352     C
C     0.7913716  0.56984  0.55352     C
C     0.7940317  0.17204  0.26404     C
C     0.7940317  0.82804  0.76404     C
H       0.7947   0.3903     0.11     H
H       0.7947   0.6097     0.61     H
O     0.8021514  0.17992  0.91184     O
O     0.8021514  0.82012  0.41184     O
C     0.8179716  0.01784  0.84634     C
C     0.8179716  0.98224  0.34634     C
C     0.8183916  0.46454  0.90412     C
C     0.8183916  0.53554  0.40412     C
N     0.8218112  0.40652  0.98522     N
N     0.8218112  0.59352  0.48522     N
C     0.8352916  0.11304  0.23324     C
C     0.8352916  0.88704  0.73324     C
C     0.8358717  0.11874  0.88874     C
C     0.8358717  0.88134  0.38874     C
C     0.8465616  0.01954  0.27484     C
C     0.8465616  0.98054  0.77484     C
O     0.8541114  0.48454  0.75642     O
O     0.8541114  0.51554  0.25642     O
O     0.8548616  0.23562  0.12182     O
O     0.8548616  0.76442  0.62182     O
C     0.8554016  0.43364  0.83184     C
C     0.8554016  0.56644  0.33184     C
C     0.8666517  0.14934  0.15534     C
C     0.8666517  0.85074  0.65534     C
H       0.8742     0.02   0.7546     H
H       0.8742     0.98   0.2546     H
In    0.8829369 0.27740316 0.99119416    In
In    0.8829369 0.72259716 0.49119416    In
O     0.8864113  0.35582  0.85442     O
O     0.8864113  0.64422  0.35442     O
O     0.8885513  0.13882  0.90514     O
O     0.8885513  0.86122  0.40514     O
O      0.90054  0.09534  0.12695     O
O      0.90054  0.90474  0.62695     O
H       0.9258    0.309   0.3938     H
H       0.9258    0.691   0.8938     H
H       0.9417   0.4222    0.388     H
H       0.9417   0.5778    0.888     H
O     0.9474617  0.38864  0.08384     O
O     0.9474617  0.61144  0.58384     O
H       0.9478   0.3497    0.301     H
H       0.9478   0.6503    0.801     H
C      0.95134  0.35559  0.37188     C
C      0.95134  0.64459  0.87188     C
O     0.9767717  0.25564  0.02694     O
O     0.9767717  0.74444  0.52694     O
C      0.98732  0.33257  0.07625     C
C      0.98732  0.66757  0.57625     C
