data_I
_chemical_name_common  'val_26'
_cell_length_a  7.01089
_cell_length_b 18.51220
_cell_length_c  9.61591
_cell_angle_alpha 90.00000
_cell_angle_beta  101.01140
_cell_angle_gamma 90.00000
_space_group_name_H-M_alt      'P 1'


loop_
_space_group_symop_operation_xyz
  'x, y, z' 

loop_
_atom_site_label
_atom_site_fract_x
_atom_site_fract_y
_atom_site_fract_z
_atom_site_type_symbol
O     -1.202115     0.75 1.240011     O
N     -1.038818     0.75 1.509514     N
O      -0.9163 0.620411   1.3522     O
O      -0.9163 0.879611   1.3522     O
O      -0.8882  0.67388 1.143315     O
Eu    -0.839291     0.75 1.318018    Eu
O      -0.7762  0.82248 1.113215     O
O      -0.7322  0.65988 0.900917     O
O      -0.7322  0.84028 0.900917     O
O      -0.6372  0.79251 1.530915     O
O     -0.521818     0.75 0.759413     O
Eu    -0.518569     0.25 0.988297    Eu
C      -0.5043 0.775513   1.6322     C
O     -0.501614     0.75  1.27511     O
Eu    -0.481449     0.75 1.011717    Eu
Eu    -0.481449     0.75 2.011717    Eu
O     -0.380713  0.62094  1.08929     O
O     -0.380713  0.87914  1.08929     O
C      -0.3232     0.75 1.323915     C
H     -0.319212  0.48242 1.021669     H
C      -0.3102     0.75 1.598616     C
C     -0.250015  0.62277 1.021011     C
O      -0.2453  0.32859   1.0432     O
C      -0.2372     0.75 1.476315     C
O     -0.225417  0.67685 0.949813     O
O     -0.225417  0.82325 0.949813     O
C     -0.190515  0.48925  1.01311     C
Eu    -0.160711     0.25 0.681998    Eu
C      -0.1463 0.355311   0.9652     C
N      -0.1412     0.75 1.708014     N
H     -0.136134     0.25 0.301615     H
C     -0.116315  0.55905 1.015211     C
O      -0.1122  0.32628 0.856715     O
C     -0.077014  0.43015  0.99861     C
C      -0.0092     0.25 0.351417     C
C       0.0092     0.75 1.648617     C
N     0.038818     0.25 0.490514     N
C     0.077014  0.56995  1.00141     C
C     0.116315  0.44105 0.984811     C
H     0.136134     0.75 1.698385     H
N       0.1412     0.25 0.292014     N
Eu    0.160711     0.75 1.318018    Eu
C     0.190515  0.51085  0.98691     C
C       0.1973 0.641611 1.003218     C
O     0.202115     0.25 0.760011     O
O       0.2242  0.67768 1.113215     O
O     0.225417  0.17685 1.050213     O
O     0.225417  0.32325 1.050213     O
C       0.2372     0.25 0.523715     C
C     0.250015  0.37737 0.979011     C
C       0.3102     0.25 0.401416     C
H     0.319212  0.51758 0.978331     H
C       0.3232     0.25 0.676115     C
O     0.380713  0.12094  0.91089     O
O     0.380713  0.37914  0.91089     O
Eu    0.481449     0.25 -0.011717    Eu
Eu    0.481449     0.25 0.988297    Eu
O     0.501614     0.25  0.72491     O
C       0.5043 0.224513   0.3682     C
Eu    0.518569    -0.25 1.011717    Eu
Eu    0.518569     0.75 1.011717    Eu
O     0.521818     0.25 0.240613     O
O       0.6372  0.20751 0.469115     O
H     0.680788  0.01758 1.021669     H
O       0.7322  0.15988 1.099117     O
C     0.750015 -0.12277 1.021011     C
C       0.8033 0.141611 0.996818     C
C     0.809515  0.01085  1.01311     C
Eu    0.839291     0.25 0.681998    Eu
C     0.883715 -0.05905 1.015211     C
O       0.8882  0.17388 0.856715     O
O       0.9163 0.120411   0.6482     O
O       0.9163 0.379611   0.6482     O
C     0.923014  0.06995  0.99861     C
C     1.077014 -0.06995  1.00141     C
O       1.1122 -0.17388 1.143315     O
C     1.116315  0.05905 0.984811     C
C       1.1463 -0.144711   1.0352     C
Eu    1.160711    -0.25 1.318018    Eu
C     1.190515 -0.01085  0.98691     C
O       1.2453 -0.17159   0.9572     O
C     1.250015  0.12277 0.979011     C
H     1.319212 -0.01758 0.978331     H
Eu    1.481449     0.25 0.988297    Eu
Eu    1.518569    -0.25 1.011717    Eu
