data_I
_chemical_name_common  'val_49'
_cell_length_a  6.30701
_cell_length_b 12.61120
_cell_length_c 10.49192
_cell_angle_alpha 90.00000
_cell_angle_beta  91.22720
_cell_angle_gamma 90.00000
_space_group_name_H-M_alt      'P 1'


loop_
_space_group_symop_operation_xyz
  'x, y, z' 

loop_
_atom_site_label
_atom_site_fract_x
_atom_site_fract_y
_atom_site_fract_z
_atom_site_type_symbol
H       0.0222   0.1436   0.9849     H
C      0.02339  0.08805  0.36537     C
C     0.028911  0.48147  0.95017     C
H       0.0532   0.8494   0.6805     H
C      0.05871  0.95525  0.54267     C
O      0.05927  0.35684  0.40135     O
H       0.0752   0.4924   0.5834     H
C     0.101111  0.39797  0.02658     C
H       0.1134   0.5087   0.8864     H
Co     0.12802 0.246265 0.2400518    Co
H       0.1467   0.0133   0.8584     H
C      0.15751  0.11695  0.00157     C
H       0.1966   0.9782   0.5591     H
H       0.2089   0.6335   0.6998     H
C      0.20891  0.51935  0.56647     C
O      0.21147  0.11534  0.37675     O
C      0.23301  0.04015  0.92387     C
H       0.2355   0.3702   0.0132     H
C     0.242411  0.38525  0.39057     C
N      0.27088  0.15634  0.10245     N
C      0.29279  0.60395  0.63787     C
C      0.32761  0.47675  0.47087     C
O      0.36587  0.34764  0.30485     O
O      0.39987  0.86554  0.78455     O
C      0.43631  0.00165  0.94087     C
C      0.46931  0.12095  0.11587     C
N      0.48238  0.64384  0.61905     N
H       0.5222   0.8564   0.4849     H
C      0.52339  0.91205  0.86537     C
C     0.528911  0.51867  0.45017     C
H       0.5532   0.1506   0.1805     H
C      0.55871  0.04485  0.04267     C
O      0.55927  0.64324  0.90135     O
H       0.5752   0.5076   0.0834     H
C     0.601111  0.60217  0.52658     C
H       0.6134   0.4913   0.3864     H
Co     0.62802 0.753745 0.7400518    Co
H       0.6467   0.9867   0.3584     H
C      0.65751  0.88315  0.50157     C
H       0.6966   0.0218   0.0591     H
H       0.7089   0.3665   0.1998     H
C      0.70891  0.48075  0.06647     C
O      0.71147  0.88474  0.87675     O
C      0.73301  0.95995  0.42387     C
H       0.7355   0.6298   0.5132     H
C     0.742411  0.61485  0.89057     C
N      0.77088  0.84374  0.60245     N
C      0.79279  0.39615  0.13787     C
C      0.82761  0.52335  0.97087     C
O      0.86587  0.65244  0.80485     O
O      0.89987  0.13454  0.28455     O
C      0.93631  0.99845  0.44087     C
C      0.96931  0.87915  0.61587     C
N      0.98238  0.35624  0.11905     N
