data_I
_chemical_name_common  'val_12'
_cell_length_a 14.95004
_cell_length_b 30.09324
_cell_length_c 16.88144
_cell_angle_alpha 90.00000
_cell_angle_beta  113.61820
_cell_angle_gamma 90.00000
_space_group_name_H-M_alt      'P 1'


loop_
_space_group_symop_operation_xyz
  'x, y, z' 

loop_
_atom_site_label
_atom_site_fract_x
_atom_site_fract_y
_atom_site_fract_z
_atom_site_type_symbol
O      0.01414 0.0329212  0.78402     O
O      0.01414 0.4670812  0.28402     O
O      0.01854 0.1005211  0.02172     O
O      0.01854 0.3994811  0.52172     O
O      0.01874 0.1007912  0.83702     O
O      0.01874 0.3992112  0.33702     O
O      0.02822 0.0331511  0.07472     O
O      0.02822 0.4668511  0.57472     O
C      0.04154 0.0727518  0.79094     C
C      0.04154 0.4272518  0.29094     C
Eu    0.045082 0.545332 0.595812    Eu
Eu    0.045082 0.954672 0.095812    Eu
C      0.04784 0.0744317  0.08494     C
C      0.04784 0.4255717  0.58494     C
H     0.059471 0.040269 0.653355     H
H     0.059471 0.459731 0.153355     H
H     0.068433 0.040452 0.234093     H
H     0.068433 0.459548 0.734093     H
H      0.08219 0.234804 0.511586     H
H      0.08219 0.265196 0.011586     H
C      0.09884 0.0661617  0.67184     C
C      0.09884 0.4338417  0.17184     C
H      0.10085 0.574459 0.997093     H
H      0.10085 0.925541 0.497093     H
C      0.10194 0.0883318  0.74404     C
C      0.10194 0.4116718  0.24404     C
C      0.10494 0.0672616  0.24444     C
C      0.10494 0.4327416  0.74444     C
C      0.10714 0.0912817  0.17504     C
C      0.10714 0.4087217  0.67504     C
H     0.123028 0.573984  0.91189     H
H     0.123028 0.926016  0.41189     H
O      0.12692 0.0315012  0.95932     O
O      0.12692 0.4685012  0.45932     O
H      0.14113 0.505655 0.090461     H
H      0.14113 0.994345 0.590461     H
C      0.14154 0.5126317  0.97064     C
C      0.14154 0.9873717  0.47064     C
C      0.14284 0.0104018  0.54264     C
C      0.14284 0.4896018  0.04264     C
C      0.14445 0.5629918  0.97134     C
C      0.14445 0.9370118  0.47134     C
H     0.144606 0.504374 0.853182     H
H     0.144606 0.995626 0.353182     H
C      0.14544 0.0112718  0.40244     C
C      0.14544 0.4887318  0.90244     C
C      0.14654 0.0569917  0.54554     C
C      0.14654 0.4430117  0.04554     C
C      0.14755  0.23294  0.55825     C
C      0.14755  0.26714  0.05825     C
C      0.15044 0.0801517  0.47584     C
C      0.15044 0.4198517  0.97584     C
C      0.15064 0.0576217  0.40294     C
C      0.15064 0.4423817  0.90294     C
C      0.15144 0.0805117  0.62514     C
C      0.15144 0.4194917  0.12514     C
H     0.152816 0.111698 0.477321     H
H     0.152816 0.388302 0.977321     H
H     0.154063 0.244574 0.102159     H
H     0.154063 0.255426 0.602159     H
C      0.15594 0.0820517  0.32964     C
C      0.15594 0.4179517  0.82964     C
H     0.157019 0.203311 0.584486     H
H     0.157019 0.296689 0.084486     H
C      0.16004 0.1264217  0.77224     C
C      0.16004 0.3735817  0.27224     C
H       0.1611   0.1422 0.821355     H
H       0.1611   0.3578 0.321355     H
H     0.161315 0.147175 0.139932     H
H     0.161315 0.352825 0.639932     H
C      0.16144 0.1305917  0.18794     C
C      0.16144 0.3694117  0.68794     C
O      0.17692 0.5221011  0.55912     O
O      0.17692 0.9779011  0.05912     O
O      0.18114 0.6043111  0.65962     O
O      0.18114 0.8956911  0.15962     O
C      0.18334 0.0162017  0.03024     C
C      0.18334 0.4838017  0.53024     C
O      0.18424 0.5434311  0.73282     O
O      0.18424 0.9565711  0.23282     O
O      0.19744 0.2470217  0.44294     O
O      0.19744 0.2529817  0.94294     O
C      0.21074 0.1185717  0.65484     C
C      0.21074 0.3814317  0.15484     C
H     0.211243 0.573069 0.005322     H
H     0.211243 0.926931 0.505322     H
C      0.21174 0.1210716  0.34284     C
C      0.21174 0.3789316  0.84284     C
C      0.21564 0.1449616  0.27224     C
C      0.21564 0.3550416  0.77224     C
C      0.21594 0.1411717  0.72904     C
C      0.21594 0.3588317  0.22904     C
C      0.21714 0.5813217  0.72824     C
C      0.21714 0.9186817  0.22824     C
C      0.22244  0.24092  0.52234     C
C      0.22244  0.25912  0.02234     C
H     0.239571 0.096336  0.99873     H
H     0.239571 0.403664  0.49873     H
H     0.247285 0.131534 0.399929     H
H     0.247285 0.368466 0.899929     H
H      0.24762 0.128977 0.623942     H
H      0.24762 0.371023 0.123942     H
C      0.26544 0.0457517  0.08574     C
C      0.26544 0.4542517  0.58574     C
H     0.268484  0.67422 0.105986     H
H     0.268484  0.82578 0.605986     H
O      0.27604 0.2012912  0.82442     O
O      0.27604 0.2987112  0.32442     O
C      0.27954 0.1851517  0.28904     C
C      0.27954 0.3148517  0.78904     C
C      0.27984 0.0873018  0.05594     C
C      0.27984 0.4127018  0.55594     C
C      0.28064 0.1808418  0.76104     C
C      0.28064 0.3191618  0.26104     C
O      0.29224 0.2028812  0.22712     O
O      0.29224 0.2971212  0.72712     O
H     0.298563 0.544995 0.880022     H
H     0.298563 0.955005 0.380022     H
C      0.30114 0.5983717  0.80604     C
C      0.30114 0.9016317  0.30604     C
O      0.31244 0.2412313  0.57162     O
O      0.31244 0.2587713  0.07162     O
H     0.315722  0.00411 0.189229     H
H     0.315722  0.49589 0.689229     H
O      0.31684 0.1990612  0.36572     O
O      0.31684 0.3009412  0.86572     O
O      0.32054 0.1690413  0.99934     O
O      0.32054 0.3309613  0.49934     O
H     0.323373 0.672447 0.041835     H
H     0.323373 0.827553 0.541835     H
C      0.32504 0.0325018  0.16914     C
C      0.32504 0.4675018  0.66914     C
C      0.32867  0.66534  0.10017     C
C      0.32867  0.83474  0.60017     C
C      0.32994 0.5726218  0.88154     C
C      0.32994 0.9273818  0.38154     C
H      0.33174  0.65474 0.755643     H
H      0.33174  0.84526 0.255643     H
O      0.33484 0.1915013  0.72322     O
O      0.33484 0.3085013  0.22322     O
H     0.338253 0.633194 0.109922     H
H     0.338253 0.866806 0.609922     H
H      0.34021  0.71106 0.584361     H
H      0.34021  0.78894 0.084361     H
H     0.343447 0.063696 0.605632     H
H     0.343447 0.436304 0.105632     H
C      0.34834 0.6377618  0.80704     C
C      0.34834 0.8622418  0.30704     C
H     0.350049 0.664958 0.541278     H
H     0.350049 0.835042 0.041278     H
C      0.35184 0.1152917  0.10894     C
C      0.35184 0.3847117  0.60894     C
Eu    0.364912 0.237732 0.953242    Eu
Eu    0.364912 0.262272 0.453242    Eu
H     0.364937 0.501644 0.974985     H
H     0.364937 0.998356 0.474985     H
C      0.36834 0.1594918  0.07724     C
C      0.36834 0.3405118  0.57724     C
C      0.38388  0.68614  0.58787     C
C      0.38388  0.81394  0.08787     C
H     0.385741  0.07411  0.53424     H
H     0.385741  0.42589  0.03424     H
C      0.39834 0.0604718  0.22354     C
C      0.39834 0.4395318  0.72354     C
O      0.40014 0.7199617  0.20834     O
O      0.40014 0.7800417  0.70834     O
C      0.40195  0.06302  0.59295     C
C      0.40195  0.43702  0.09295     C
H     0.402673 0.671289  0.64383     H
H     0.402673 0.828711  0.14383     H
C      0.40444 0.5869218  0.95934     C
C      0.40444 0.9130818  0.45934     C
C      0.40794 0.5125918  0.02994     C
C      0.40794 0.9874118  0.52994     C
C      0.41034  0.10242  0.19294     C
C      0.41034  0.39762  0.69294     C
C      0.41417  0.68982  0.16585     C
C      0.41417  0.81022  0.66585     C
C      0.42154 0.6524918  0.88504     C
C      0.42154 0.8475118  0.38504     C
Eu    0.425232 0.242762 0.223402    Eu
Eu    0.425232 0.257242 0.723402    Eu
O      0.43254 0.1856512  0.12954     O
O      0.43254 0.3143512  0.62954     O
C      0.43804 0.5571017  0.03734     C
C      0.43804 0.9429017  0.53734     C
C      0.43894 0.0157218  0.59994     C
C      0.43894 0.4842818  0.09994     C
C      0.44674 0.6278818  0.95964     C
C      0.44674 0.8721218  0.45964     C
H     0.452629 0.081791 0.634481     H
H     0.452629 0.418209 0.134481     H
H     0.458678 0.122074 0.229828     H
H     0.458678 0.377926 0.729828     H
C      0.46494  0.04432  0.31054     C
C      0.46494  0.45572  0.81054     C
H     0.471236 0.519225 0.771611     H
H     0.471236 0.980775 0.271611     H
C      0.47237  0.70294  0.57865     C
C      0.47237  0.79714  0.07865     C
C      0.47524 0.6947518  0.88694     C
C      0.47524 0.8052518  0.38694     C
O      0.47654 0.2331616  0.87064     O
O      0.47654 0.2668416  0.37064     O
H      0.47945  0.10291 0.375742     H
H      0.47945  0.39709 0.875742     H
O      0.48114 0.7078414  0.81864     O
O      0.48114 0.7921614  0.31864     O
O      0.48834 0.2162814  0.54184     O
O      0.48834 0.2837214  0.04184     O
O      0.49314 0.6889318  0.51874     O
O      0.49314 0.8110718  0.01874     O
H     0.493992 0.639217 0.012217     H
H     0.493992 0.860783 0.512217     H
C      0.49534  0.00022  0.31994     C
C      0.49534  0.49982  0.81994     C
O      0.49854 0.6803516  0.17244     O
O      0.49854 0.8196516  0.67244     O
C      0.49934 0.0726718  0.38224     C
C      0.49934 0.4273318  0.88224     C
C      0.50074 0.5726718  0.11784     C
C      0.50074 0.9273318  0.61784     C
O      0.50154 0.1803516  0.32764     O
O      0.50154 0.3196516  0.82764     O
C      0.50474  0.50022  0.18014     C
C      0.50474  0.99982  0.68014     C
H     0.506008 0.139217 0.487783     H
H     0.506008 0.360783 0.987783     H
O      0.50694 0.1889318  0.98134     O
O      0.50694 0.3110718  0.48134     O
O      0.51174 0.7162814  0.95824     O
O      0.51174 0.7837214  0.45824     O
O      0.51894 0.2078414  0.68144     O
O      0.51894 0.2921614  0.18144     O
H      0.52055  0.60291 0.124258     H
H      0.52055  0.89709 0.624258     H
O      0.52354 0.7331616  0.62944     O
O      0.52354 0.7668416  0.12944     O
C      0.52484 0.1947518  0.61314     C
C      0.52484 0.3052518  0.11314     C
C      0.52777  0.20294  0.92145     C
C      0.52777  0.29714  0.42145     C
H     0.528764 0.019225 0.728389     H
H     0.528764 0.480775 0.228389     H
C      0.53514  0.54432  0.18954     C
C      0.53514  0.95572  0.68954     C
H     0.541322 0.622074 0.270172     H
H     0.541322 0.877926 0.770172     H
H     0.547371 0.581791 0.865519     H
H     0.547371 0.918209 0.365519     H
C      0.55334 0.1278818  0.54044     C
C      0.55334 0.3721218  0.04044     C
C      0.56114 0.5157218  0.90014     C
C      0.56114 0.9842818  0.40014     C
C      0.56204 0.0571017  0.46274     C
C      0.56204 0.4429017  0.96274     C
O      0.56754 0.6856512  0.37054     O
O      0.56754 0.8143512  0.87054     O
Eu    0.574772 0.742762 0.276602    Eu
Eu    0.574772 0.757242 0.776602    Eu
C      0.57854 0.1524918  0.61504     C
C      0.57854 0.3475118  0.11504     C
C      0.58597  0.18982  0.33425     C
C      0.58597  0.31022  0.83425     C
C      0.58974  0.60242  0.30714     C
C      0.58974  0.89762  0.80714     C
C      0.59214 0.0125918  0.47014     C
C      0.59214 0.4874118  0.97014     C
C      0.59564 0.0869218  0.54074     C
C      0.59564 0.4130818  0.04074     C
H     0.597327 0.171289  0.85617     H
H     0.597327 0.328711  0.35617     H
C      0.59815  0.56302  0.90715     C
C      0.59815  0.93702  0.40715     C
O      0.59994 0.2199617  0.29174     O
O      0.59994 0.2800417  0.79174     O
C      0.60174 0.5604718  0.27654     C
C      0.60174 0.9395318  0.77654     C
H     0.614259  0.57411  0.96576     H
H     0.614259  0.92589  0.46576     H
C      0.61628  0.18614  0.91227     C
C      0.61628  0.31394  0.41227     C
C      0.63174 0.6594918  0.42284     C
C      0.63174 0.8405118  0.92284     C
H     0.635063 0.001644 0.525015     H
H     0.635063 0.498356 0.025015     H
Eu    0.635092 0.737732 0.546762    Eu
Eu    0.635092 0.762272 0.046762    Eu
C      0.64824 0.6152917  0.39114     C
C      0.64824 0.8847117  0.89114     C
H     0.649951 0.164958 0.958722     H
H     0.649951 0.335042 0.458722     H
C      0.65174 0.1377618  0.69304     C
C      0.65174 0.3622418  0.19304     C
H     0.656553 0.563696 0.894368     H
H     0.656553 0.936304 0.394368     H
H      0.65979  0.21106 0.915639     H
H      0.65979  0.28894 0.415639     H
H     0.661747 0.133194 0.390078     H
H     0.661747 0.366806 0.890078     H
O      0.66524 0.6915013  0.77682     O
O      0.66524 0.8085013  0.27682     O
H      0.66826  0.15474 0.744357     H
H      0.66826  0.34526 0.244357     H
C      0.67014 0.0726218  0.61854     C
C      0.67014 0.4273818  0.11854     C
C      0.67147  0.16534  0.39997     C
C      0.67147  0.33474  0.89997     C
C      0.67504 0.5325018  0.33094     C
C      0.67504 0.9675018  0.83094     C
H     0.676627 0.172447 0.458165     H
H     0.676627 0.327553 0.958165     H
O      0.67954 0.6690413  0.50074     O
O      0.67954 0.8309613  0.00074     O
O      0.68324 0.6990612  0.13432     O
O      0.68324 0.8009412  0.63432     O
H     0.684278  0.50411 0.310771     H
H     0.684278  0.99589 0.810771     H
O      0.68764 0.7412313  0.92842     O
O      0.68764 0.7587713  0.42842     O
C      0.69894 0.0983717  0.69404     C
C      0.69894 0.4016317  0.19404     C
H     0.701437 0.044995 0.619978     H
H     0.701437 0.455005 0.119978     H
O      0.70784 0.7028812  0.27292     O
O      0.70784 0.7971212  0.77292     O
C      0.71944 0.6808418  0.73904     C
C      0.71944 0.8191618  0.23904     C
C      0.72024 0.5873018  0.44414     C
C      0.72024 0.9127018  0.94414     C
C      0.72054 0.6851517  0.21104     C
C      0.72054 0.8148517  0.71104     C
O      0.72404 0.7012912  0.67562     O
O      0.72404 0.7987112  0.17562     O
H     0.731516  0.17422 0.394014     H
H     0.731516  0.32578 0.894014     H
C      0.73464 0.5457517  0.41434     C
C      0.73464 0.9542517  0.91434     C
H      0.75238 0.628977 0.876058     H
H      0.75238 0.871023 0.376058     H
H     0.752715 0.631534 0.100071     H
H     0.752715 0.868466 0.600071     H
H     0.760429 0.596336  0.50127     H
H     0.760429 0.903664  0.00127     H
C      0.77764  0.74092  0.97774     C
C      0.77764  0.75912  0.47774     C
C      0.78294 0.0813217  0.77184     C
C      0.78294 0.4186817  0.27184     C
C      0.78414 0.6411717  0.77104     C
C      0.78414 0.8588317  0.27104     C
C      0.78444 0.6449616  0.22784     C
C      0.78444 0.8550416  0.72784     C
C      0.78834 0.6210716  0.15724     C
C      0.78834 0.8789316  0.65724     C
H     0.788757 0.073069 0.494678     H
H     0.788757 0.426931 0.994678     H
C      0.78934 0.6185717  0.84524     C
C      0.78934 0.8814317  0.34524     C
O      0.80264 0.7470217  0.05714     O
O      0.80264 0.7529817  0.55714     O
O      0.81584 0.0434311  0.76722     O
O      0.81584 0.4565711  0.26722     O
C      0.81674 0.5162017  0.46984     C
C      0.81674 0.9838017  0.96984     C
O      0.81894 0.1043111  0.84042     O
O      0.81894 0.3956911  0.34042     O
O      0.82312 0.0221011  0.94092     O
O      0.82312 0.4779011  0.44092     O
C      0.83864 0.6305917  0.31214     C
C      0.83864 0.8694117  0.81214     C
H     0.838685 0.647175 0.360068     H
H     0.838685 0.852825 0.860068     H
H       0.8389   0.6422 0.678645     H
H       0.8389   0.8578 0.178645     H
C      0.84004 0.6264217  0.72784     C
C      0.84004 0.8735817  0.22784     C
H     0.842981 0.703311 0.915514     H
H     0.842981 0.796689 0.415514     H
C      0.84414 0.5820517  0.17044     C
C      0.84414 0.9179517  0.67044     C
H     0.845937 0.744574 0.397841     H
H     0.845937 0.755426 0.897841     H
H     0.847184 0.611698 0.022679     H
H     0.847184 0.888302 0.522679     H
C      0.84864 0.5805117  0.87494     C
C      0.84864 0.9194917  0.37494     C
C      0.84944 0.5576217  0.09714     C
C      0.84944 0.9423817  0.59714     C
C      0.84964 0.5801517  0.02424     C
C      0.84964 0.9198517  0.52424     C
C      0.85255  0.73294  0.94185     C
C      0.85255  0.76714  0.44185     C
C      0.85354 0.5569917  0.95454     C
C      0.85354 0.9430117  0.45454     C
C      0.85464 0.5112718  0.09764     C
C      0.85464 0.9887318  0.59764     C
H     0.855394 0.004374 0.646818     H
H     0.855394 0.495626 0.146818     H
C      0.85565 0.0629918  0.52874     C
C      0.85565 0.4370118  0.02874     C
C      0.85724 0.5104018  0.95744     C
C      0.85724 0.9896018  0.45744     C
C      0.85854 0.0126317  0.52944     C
C      0.85854 0.4873717  0.02944     C
H      0.85887 0.005655 0.409539     H
H      0.85887 0.494345 0.909539     H
O      0.87312 0.5315012  0.54072     O
O      0.87312 0.9685012  0.04072     O
H     0.876972 0.073984  0.58811     H
H     0.876972 0.426016  0.08811     H
C      0.89294 0.5912817  0.32504     C
C      0.89294 0.9087217  0.82504     C
C      0.89514 0.5672616  0.25564     C
C      0.89514 0.9327416  0.75564     C
C      0.89814 0.5883318  0.75604     C
C      0.89814 0.9116718  0.25604     C
H      0.89915 0.074459 0.502907     H
H      0.89915 0.425541 0.002907     H
C      0.90124 0.5661617  0.82824     C
C      0.90124 0.9338417  0.32824     C
H      0.91781 0.734804 0.988414     H
H      0.91781 0.765196 0.488414     H
H     0.931567 0.540452 0.265907     H
H     0.931567 0.959548 0.765907     H
H     0.940529 0.540269 0.846645     H
H     0.940529 0.959731 0.346645     H
C      0.95224 0.5744317  0.41514     C
C      0.95224 0.9255717  0.91514     C
Eu    0.954922 0.045332 0.904192    Eu
Eu    0.954922 0.454672 0.404192    Eu
C      0.95854 0.5727518  0.70914     C
C      0.95854 0.9272518  0.20914     C
O      0.97182 0.5331511  0.42532     O
O      0.97182 0.9668511  0.92532     O
O      0.98134 0.6007912  0.66302     O
O      0.98134 0.8992112  0.16302     O
O      0.98154 0.6005211  0.47832     O
O      0.98154 0.8994811  0.97832     O
O      0.98594 0.5329212  0.71602     O
O      0.98594 0.9670812  0.21602     O
