data_I
_chemical_name_common  'val_9'
_cell_length_a 17.86150
_cell_length_b  9.08950
_cell_length_c 19.74350
_cell_angle_alpha 90.00000
_cell_angle_beta  90.00000
_cell_angle_gamma 90.00000
_space_group_name_H-M_alt      'P 1'


loop_
_space_group_symop_operation_xyz
  'x, y, z' 

loop_
_atom_site_label
_atom_site_fract_x
_atom_site_fract_y
_atom_site_fract_z
_atom_site_type_symbol
C      0.00694  0.21775  0.80744     C
C      0.00694  0.28235  0.30744     C
O      0.00832  0.19954 0.3580018     O
O      0.00832  0.30054 0.8580018     O
H       0.0366   0.5107   0.7786     H
H       0.0366   0.9893   0.2786     H
H       0.0461   0.6838    0.915     H
H       0.0461   0.8162    0.415     H
C      0.06214  0.73407  0.43904     C
C      0.06214  0.76607  0.93904     C
O      0.06342  0.14634  0.78802     O
O      0.06342  0.35374  0.28802     O
H       0.0637    0.673   0.0313     H
H       0.0637    0.827   0.5313     H
C      0.06504  0.69885  0.73102     C
C      0.06504  0.80125  0.23102     C
H       0.0693   0.5972   0.3599     H
H       0.0693   0.9028   0.8599     H
C      0.07285  0.74027  0.50784     C
C      0.07285  0.75987  0.00784     C
C      0.07414  0.58075  0.77332     C
C      0.07414  0.91935  0.27332     C
C      0.07584  0.60217  0.40664     C
C      0.07584  0.89797  0.90664     C
C      0.09714  0.61648  0.54184     C
C      0.09714  0.88368  0.04184     C
N      0.09812  0.01875  0.93932     N
N      0.09812  0.48135  0.43932     N
H       0.1056   0.6201   0.5882     H
H       0.1056   0.8799   0.0882     H
C      0.10894  0.01337  0.00654     C
C      0.10894  0.48677  0.50654     C
H       0.1148   0.6176   0.1923     H
H       0.1148   0.8824   0.6923     H
H       0.1182   0.0924    0.138     H
H       0.1182   0.4076    0.638     H
C      0.12244  0.69507  0.22234     C
C      0.12244  0.80507  0.72234     C
C      0.13384  0.16911  0.11024     C
C      0.13384  0.33091  0.61024     C
C      0.13414  0.15147  0.03964     C
C      0.13414  0.34867  0.53964     C
Cd    0.13486019 0.233784 0.88072317    Cd
Cd    0.13486019 0.266224 0.38072317    Cd
C      0.14202  0.56955  0.80812     C
C      0.14202  0.93055  0.30812     C
H       0.1537   0.1859   0.6844     H
H       0.1537   0.3141   0.1844     H
N      0.15634  0.23985  0.49914     N
N      0.15634  0.26025  0.99914     N
C      0.15645 0.200711  0.63794     C
C      0.15645 0.299311  0.13794     C
N      0.16722  0.03095  0.35492     N
N      0.16722  0.46915  0.85492     N
C      0.18054  0.11348  0.52674     C
C      0.18054  0.38668  0.02674     C
C      0.18354  0.09129  0.59604     C
C      0.18354  0.40889  0.09604     C
C      0.18894  0.70357  0.25714     C
C      0.18894  0.79657  0.75714     C
H       0.1959   0.0379   0.4982     H
H       0.1959   0.4621   0.9982     H
C      0.19844  0.67545  0.80122     C
C      0.19844  0.82465  0.30122     C
H       0.2032   0.0048   0.6139     H
H       0.2032   0.4952   0.1139     H
H       0.2261   0.6327   0.2518     H
H       0.2261   0.8673   0.7518     H
N      0.23462  0.51404  0.87512     N
N      0.23462  0.98604  0.37512     N
H       0.2386   0.5316   0.4046     H
H       0.2386   0.9684   0.9046     H
N      0.24432  0.13705  0.84452     N
N      0.24432  0.36305  0.34452     N
N      0.25572  0.63705  0.84452     N
N      0.25572  0.86305  0.34452     N
H       0.2614   0.0316   0.4046     H
H       0.2614   0.4684   0.9046     H
N      0.26542  0.01404  0.87512     N
N      0.26542  0.48604  0.37512     N
H       0.2739   0.1327   0.2518     H
H       0.2739   0.3673   0.7518     H
H       0.2968   0.5048   0.6139     H
H       0.2968   0.9952   0.1139     H
C      0.30164  0.17545  0.80122     C
C      0.30164  0.32465  0.30122     C
H       0.3041   0.5379   0.4982     H
H       0.3041   0.9621   0.9982     H
C      0.31114  0.20357  0.25714     C
C      0.31114  0.29657  0.75714     C
C      0.31654  0.59129  0.59604     C
C      0.31654  0.90889  0.09604     C
C      0.31954  0.61348  0.52674     C
C      0.31954  0.88668  0.02674     C
N      0.33282  0.53095  0.35492     N
N      0.33282  0.96915  0.85492     N
C      0.34365 0.700711  0.63794     C
C      0.34365 0.799311  0.13794     C
N      0.34374  0.73985  0.49914     N
N      0.34374  0.76025  0.99914     N
H       0.3463   0.6859   0.6844     H
H       0.3463   0.8141   0.1844     H
C      0.35802  0.06955  0.80812     C
C      0.35802  0.43055  0.30812     C
Cd    0.36514019 0.733784 0.88072317    Cd
Cd    0.36514019 0.766224 0.38072317    Cd
C      0.36594  0.65147  0.03964     C
C      0.36594  0.84867  0.53964     C
C      0.36624  0.66911  0.11024     C
C      0.36624  0.83091  0.61024     C
C      0.37764  0.19507  0.22234     C
C      0.37764  0.30507  0.72234     C
H       0.3818   0.5924    0.138     H
H       0.3818   0.9076    0.638     H
H       0.3852   0.1176   0.1923     H
H       0.3852   0.3824   0.6923     H
C      0.39114  0.51337  0.00654     C
C      0.39114  0.98677  0.50654     C
H       0.3944   0.1201   0.5882     H
H       0.3944   0.3799   0.0882     H
N      0.40192  0.51875  0.93932     N
N      0.40192  0.98135  0.43932     N
C      0.40294  0.11648  0.54184     C
C      0.40294  0.38368  0.04184     C
C      0.42424  0.10217  0.40664     C
C      0.42424  0.39797  0.90664     C
C      0.42594  0.08075  0.77332     C
C      0.42594  0.41935  0.27332     C
C      0.42725  0.24027  0.50784     C
C      0.42725  0.25987  0.00784     C
H       0.4307   0.0972   0.3599     H
H       0.4307   0.4028   0.8599     H
C      0.43504  0.19885  0.73102     C
C      0.43504  0.30125  0.23102     C
H       0.4363    0.173   0.0313     H
H       0.4363    0.327   0.5313     H
O      0.43662  0.64634  0.78802     O
O      0.43662  0.85374  0.28802     O
C      0.43794  0.23407  0.43904     C
C      0.43794  0.26607  0.93904     C
H       0.4539   0.1838    0.915     H
H       0.4539   0.3162    0.415     H
H       0.4634   0.0107   0.7786     H
H       0.4634   0.4893   0.2786     H
O      0.49172  0.69954 0.3580018     O
O      0.49172  0.80054 0.8580018     O
C      0.49314  0.71775  0.80744     C
C      0.49314  0.78235  0.30744     C
C      0.50694  0.21775  0.69264     C
C      0.50694  0.28235  0.19264     C
O      0.50832  0.19954 0.1420018     O
O      0.50832  0.30054 0.6420018     O
H       0.5366   0.5107   0.7214     H
H       0.5366   0.9893   0.2214     H
H       0.5461   0.6838    0.585     H
H       0.5461   0.8162    0.085     H
C      0.56214  0.73407  0.06104     C
C      0.56214  0.76607  0.56104     C
O      0.56342  0.14634  0.71202     O
O      0.56342  0.35374  0.21202     O
H       0.5637    0.673   0.4687     H
H       0.5637    0.827   0.9687     H
C      0.56504  0.69885  0.76902     C
C      0.56504  0.80125  0.26902     C
H       0.5693   0.5972   0.1401     H
H       0.5693   0.9028   0.6401     H
C      0.57285  0.74027  0.99224     C
C      0.57285  0.75987  0.49224     C
C      0.57414  0.58075  0.72672     C
C      0.57414  0.91935  0.22672     C
C      0.57584  0.60217  0.09344     C
C      0.57584  0.89797  0.59344     C
C      0.59714  0.61648  0.95824     C
C      0.59714  0.88368  0.45824     C
N      0.59812  0.01875  0.56072     N
N      0.59812  0.48135  0.06072     N
H       0.6056   0.6201   0.9118     H
H       0.6056   0.8799   0.4118     H
C      0.60894  0.01337  0.49354     C
C      0.60894  0.48677  0.99354     C
H       0.6148   0.6176   0.3077     H
H       0.6148   0.8824   0.8077     H
H       0.6182   0.0924    0.362     H
H       0.6182   0.4076    0.862     H
C      0.62244  0.69507  0.27774     C
C      0.62244  0.80507  0.77774     C
C      0.63384  0.16911  0.38984     C
C      0.63384  0.33091  0.88984     C
C      0.63414  0.15147  0.46044     C
C      0.63414  0.34867  0.96044     C
Cd    0.63486019 0.233784 0.61927717    Cd
Cd    0.63486019 0.266224 0.11927717    Cd
C      0.64202  0.56955  0.69192     C
C      0.64202  0.93055  0.19192     C
H       0.6537   0.1859   0.8156     H
H       0.6537   0.3141   0.3156     H
N      0.65634  0.23985  0.00094     N
N      0.65634  0.26025  0.50094     N
C      0.65645 0.200711  0.86214     C
C      0.65645 0.299311  0.36214     C
N      0.66722  0.03095  0.14512     N
N      0.66722  0.46915  0.64512     N
C      0.68054  0.11348  0.97334     C
C      0.68054  0.38668  0.47334     C
C      0.68354  0.09129  0.90404     C
C      0.68354  0.40889  0.40404     C
C      0.68894  0.70357  0.24294     C
C      0.68894  0.79657  0.74294     C
H       0.6959   0.0379   0.0018     H
H       0.6959   0.4621   0.5018     H
C      0.69844  0.67545  0.69882     C
C      0.69844  0.82465  0.19882     C
H       0.7032   0.0048   0.8861     H
H       0.7032   0.4952   0.3861     H
H       0.7261   0.6327   0.2482     H
H       0.7261   0.8673   0.7482     H
N      0.73462  0.51404  0.62492     N
N      0.73462  0.98604  0.12492     N
H       0.7386   0.5316   0.0954     H
H       0.7386   0.9684   0.5954     H
N      0.74432  0.13705  0.65552     N
N      0.74432  0.36305  0.15552     N
N      0.75572  0.63705  0.65552     N
N      0.75572  0.86305  0.15552     N
H       0.7614   0.0316   0.0954     H
H       0.7614   0.4684   0.5954     H
N      0.76542  0.01404  0.62492     N
N      0.76542  0.48604  0.12492     N
H       0.7739   0.1327   0.2482     H
H       0.7739   0.3673   0.7482     H
H       0.7968   0.5048   0.8861     H
H       0.7968   0.9952   0.3861     H
C      0.80164  0.17545  0.69882     C
C      0.80164  0.32465  0.19882     C
H       0.8041   0.5379   0.0018     H
H       0.8041   0.9621   0.5018     H
C      0.81114  0.20357  0.24294     C
C      0.81114  0.29657  0.74294     C
C      0.81654  0.59129  0.90404     C
C      0.81654  0.90889  0.40404     C
C      0.81954  0.61348  0.97334     C
C      0.81954  0.88668  0.47334     C
N      0.83282  0.53095  0.14512     N
N      0.83282  0.96915  0.64512     N
C      0.84365 0.700711  0.86214     C
C      0.84365 0.799311  0.36214     C
N      0.84374  0.73985  0.00094     N
N      0.84374  0.76025  0.50094     N
H       0.8463   0.6859   0.8156     H
H       0.8463   0.8141   0.3156     H
C      0.85802  0.06955  0.69192     C
C      0.85802  0.43055  0.19192     C
Cd    0.86514019 0.733784 0.61927717    Cd
Cd    0.86514019 0.766224 0.11927717    Cd
C      0.86594  0.65147  0.46044     C
C      0.86594  0.84867  0.96044     C
C      0.86624  0.66911  0.38984     C
C      0.86624  0.83091  0.88984     C
C      0.87764  0.19507  0.27774     C
C      0.87764  0.30507  0.77774     C
H       0.8818   0.5924    0.362     H
H       0.8818   0.9076    0.862     H
H       0.8852   0.1176   0.3077     H
H       0.8852   0.3824   0.8077     H
C      0.89114  0.51337  0.49354     C
C      0.89114  0.98677  0.99354     C
H       0.8944   0.1201   0.9118     H
H       0.8944   0.3799   0.4118     H
N      0.90192  0.51875  0.56072     N
N      0.90192  0.98135  0.06072     N
C      0.90294  0.11648  0.95824     C
C      0.90294  0.38368  0.45824     C
C      0.92424  0.10217  0.09344     C
C      0.92424  0.39797  0.59344     C
C      0.92594  0.08075  0.72672     C
C      0.92594  0.41935  0.22672     C
C      0.92725  0.24027  0.99224     C
C      0.92725  0.25987  0.49224     C
H       0.9307   0.0972   0.1401     H
H       0.9307   0.4028   0.6401     H
C      0.93504  0.19885  0.76902     C
C      0.93504  0.30125  0.26902     C
H       0.9363    0.173   0.4687     H
H       0.9363    0.327   0.9687     H
O      0.93662  0.64634  0.71202     O
O      0.93662  0.85374  0.21202     O
C      0.93794  0.23407  0.06104     C
C      0.93794  0.26607  0.56104     C
H       0.9539   0.1838    0.585     H
H       0.9539   0.3162    0.085     H
H       0.9634   0.0107   0.7214     H
H       0.9634   0.4893   0.2214     H
O      0.99172  0.69954 0.1420018     O
O      0.99172  0.80054 0.6420018     O
C      0.99314  0.71775  0.69264     C
C      0.99314  0.78235  0.19264     C
