data_I
_chemical_name_common  'val_31'
_cell_length_a 26.98220
_cell_length_b 26.98220
_cell_length_c 10.65141
_cell_angle_alpha 90.00000
_cell_angle_beta  90.00000
_cell_angle_gamma 90.00000
_space_group_name_H-M_alt      'P 1'


loop_
_space_group_symop_operation_xyz
  'x, y, z' 

loop_
_atom_site_label
_atom_site_fract_x
_atom_site_fract_y
_atom_site_fract_z
_atom_site_type_symbol
O          0.0  0.23322  0.84357     O
O          0.0  0.33362  0.57727     O
O          0.0  0.66642  0.57727     O
O          0.0  0.76682  0.84357     O
C      0.02594  0.38335  0.73331     C
C      0.02594  0.61675  0.73331     C
C      0.02702  0.20974  0.65317     C
C      0.02702  0.79034  0.65317     C
C      0.04052  0.35124  0.63888     C
C      0.04052  0.64884  0.63888     C
C      0.04152  0.22474  0.76927     C
C      0.04152  0.77534  0.76927     C
H     0.046927 0.401704 0.787454     H
H     0.046927 0.598296 0.787454     H
H     0.048026 0.200869 0.585106     H
H     0.048026 0.799131 0.585106     H
H     0.067941 0.248271 0.997787     H
H     0.067941 0.751729 0.997787     H
H     0.068993 0.289407 0.463673     H
H     0.068993 0.710593 0.463673     H
C      0.08752  0.22672  0.82977     C
C      0.08752  0.77332  0.82977     C
C      0.08812  0.33752  0.59397     C
C      0.08812  0.66252  0.59397     C
C      0.09552  0.23752  0.94977     C
C      0.09552  0.76252  0.94977     C
C     0.0967518  0.30552  0.50047     C
C     0.0967518  0.69452  0.50047     C
H     0.098296 0.046927 0.537454     H
H     0.098296 0.953073 0.537454     H
H     0.115829 0.219738 0.779828     H
H     0.115829 0.780262 0.779828     H
H     0.116077 0.352237  0.63331     H
H     0.116077 0.647763  0.63331     H
C      0.11675  0.02594  0.48331     C
C      0.11675  0.97414  0.48331     C
C     0.1428617 0.2340718  0.01337     C
C     0.1428617 0.7659318  0.01337     C
C     0.1462518 0.2934418  0.45037     C
C     0.1462518 0.7065618  0.45037     C
O     0.1470712 0.2664013  0.35425     O
O     0.1470712 0.7336013  0.35425     O
O     0.1477313 0.2571112  0.11545     O
O     0.1477313 0.7428912  0.11545     O
H     0.147763 0.116077  0.38331     H
H     0.147763 0.883923  0.38331     H
C      0.14884  0.04052  0.38888     C
C      0.14884  0.95952  0.38888     C
C      0.16252  0.08812  0.34397     C
C      0.16252  0.91192  0.34397     C
O      0.16642      0.0  0.32727     O
O     0.1759412 0.2068512  0.96365     O
O     0.1759412 0.7931512  0.96365     O
O     0.1839711 0.3126411  0.50485     O
O     0.1839711 0.6873611  0.50485     O
O     0.1873611 0.1839711  0.25485     O
O     0.1873611 0.8160311  0.25485     O
C      0.19452 0.0967518  0.25047     C
C      0.19452 0.9032518  0.25047     C
Al    0.199805 0.254015  0.23774    Al
Al    0.199805 0.745995  0.23774    Al
H     0.200869 0.451974 0.835106     H
H     0.200869 0.548026 0.835106     H
C     0.2065618 0.1462518  0.20037     C
C     0.2065618 0.8537518  0.20037     C
O     0.2068512 0.3240612  0.21365     O
O     0.2068512 0.6759412  0.21365     O
C      0.20974  0.47302  0.90317     C
C      0.20974  0.52702  0.90317     C
H     0.210593 0.068993 0.213673     H
H     0.210593 0.931007 0.213673     H
H     0.219738 0.384171 0.029828     H
H     0.219738 0.615829 0.029828     H
H     0.223511 0.236613 0.623504     H
H     0.223511 0.763387 0.623504     H
C      0.22474  0.45852  0.01927     C
C      0.22474  0.54152  0.01927     C
C      0.22672  0.41252  0.07977     C
C      0.22672  0.58752  0.07977     C
O      0.23322      0.5  0.09357     O
O     0.2336013 0.1470712  0.10425     O
O     0.2336013 0.8529312  0.10425     O
C     0.2340718 0.3571417  0.26337     C
C     0.2340718 0.6428617  0.26337     C
H     0.236613 0.276489 0.873504     H
H     0.236613 0.723511 0.873504     H
C      0.23752  0.40452  0.19977     C
C      0.23752  0.59552  0.19977     C
O     0.2428912 0.1477313  0.86545     O
O     0.2428912 0.8522713  0.86545     O
O     0.2435212 0.2524713  0.36725     O
O     0.2435212 0.7475313  0.36725     O
Al    0.245995 0.199805  0.98774    Al
Al    0.245995 0.800205  0.98774    Al
O     0.2475313 0.2435212  0.11725     O
O     0.2475313 0.7564812  0.11725     O
H     0.248271 0.432059 0.247787     H
H     0.248271 0.567941 0.247787     H
H     0.251729 0.067941 0.747787     H
H     0.251729 0.932059 0.747787     H
O     0.2524713 0.2564812  0.61725     O
O     0.2524713 0.7435212  0.61725     O
Al    0.254015 0.300205  0.48774    Al
Al    0.254015 0.699805  0.48774    Al
O     0.2564812 0.2475313  0.86725     O
O     0.2564812 0.7524713  0.86725     O
O     0.2571112 0.3522713  0.36545     O
O     0.2571112 0.6477313  0.36545     O
C      0.26252  0.09552  0.69977     C
C      0.26252  0.90452  0.69977     C
H     0.263387 0.223511 0.373504     H
H     0.263387 0.776489 0.373504     H
C     0.2659318 0.1428617  0.76337     C
C     0.2659318 0.8571417  0.76337     C
O     0.2664013 0.3529312  0.60425     O
O     0.2664013 0.6470712  0.60425     O
O      0.26682      0.0  0.59357     O
C      0.27332  0.08752  0.57977     C
C      0.27332  0.91252  0.57977     C
C      0.27534  0.04152  0.51927     C
C      0.27534  0.95852  0.51927     C
H     0.276489 0.263387 0.123504     H
H     0.276489 0.736613 0.123504     H
H     0.280262 0.115829 0.529828     H
H     0.280262 0.884171 0.529828     H
H     0.289407 0.431007 0.713673     H
H     0.289407 0.568993 0.713673     H
C      0.29034  0.02702  0.40317     C
C      0.29034  0.97302  0.40317     C
O     0.2931512 0.1759412  0.71365     O
O     0.2931512 0.8240612  0.71365     O
C     0.2934418 0.3537518  0.70037     C
C     0.2934418 0.6462518  0.70037     C
H     0.299131 0.048026 0.335106     H
H     0.299131 0.951974 0.335106     H
Al    0.300205 0.245995  0.73774    Al
Al    0.300205 0.754015  0.73774    Al
C      0.30552 0.4032518  0.75047     C
C      0.30552 0.5967518  0.75047     C
O     0.3126411 0.3160311  0.75485     O
O     0.3126411 0.6839711  0.75485     O
O     0.3160311 0.1873611  0.00485     O
O     0.3160311 0.8126411  0.00485     O
O     0.3240612 0.2931512  0.46365     O
O     0.3240612 0.7068512  0.46365     O
O      0.33362      0.5  0.82727     O
C      0.33752  0.41192  0.84397     C
C      0.33752  0.58812  0.84397     C
C      0.35124  0.45952  0.88888     C
C      0.35124  0.54052  0.88888     C
H     0.352237 0.383923  0.88331     H
H     0.352237 0.616077  0.88331     H
O     0.3522713 0.2428912  0.61545     O
O     0.3522713 0.7571112  0.61545     O
O     0.3529312 0.2336013  0.85425     O
O     0.3529312 0.7664013  0.85425     O
C     0.3537518 0.2065618  0.95037     C
C     0.3537518 0.7934418  0.95037     C
C     0.3571417 0.2659318  0.51337     C
C     0.3571417 0.7340718  0.51337     C
C      0.38335  0.47414  0.98331     C
C      0.38335  0.52594  0.98331     C
H     0.383923 0.147763  0.13331     H
H     0.383923 0.852237  0.13331     H
H     0.384171 0.280262 0.279828     H
H     0.384171 0.719738 0.279828     H
H     0.401704 0.453073 0.037454     H
H     0.401704 0.546927 0.037454     H
C     0.4032518  0.19452  0.00047     C
C     0.4032518  0.80552  0.00047     C
C      0.40452  0.26252  0.44977     C
C      0.40452  0.73752  0.44977     C
C      0.41192  0.16252  0.09397     C
C      0.41192  0.83752  0.09397     C
C      0.41252  0.27332  0.32977     C
C      0.41252  0.72672  0.32977     C
H     0.431007 0.210593 0.963673     H
H     0.431007 0.789407 0.963673     H
H     0.432059 0.251729 0.497787     H
H     0.432059 0.748271 0.497787     H
H     0.451974 0.299131 0.085106     H
H     0.451974 0.700869 0.085106     H
H     0.453073 0.098296 0.287454     H
H     0.453073 0.901704 0.287454     H
C      0.45852  0.27534  0.26927     C
C      0.45852  0.72474  0.26927     C
C      0.45952  0.14884  0.13888     C
C      0.45952  0.85124  0.13888     C
C      0.47302  0.29034  0.15317     C
C      0.47302  0.70974  0.15317     C
C      0.47414  0.11675  0.23331     C
C      0.47414  0.88335  0.23331     C
O          0.5  0.16642  0.07727     O
O          0.5  0.26682  0.34357     O
O          0.5  0.73322  0.34357     O
O          0.5  0.83362  0.07727     O
C      0.52594  0.11675  0.23331     C
C      0.52594  0.88335  0.23331     C
C      0.52702  0.29034  0.15317     C
C      0.52702  0.70974  0.15317     C
C      0.54052  0.14884  0.13888     C
C      0.54052  0.85124  0.13888     C
C      0.54152  0.27534  0.26927     C
C      0.54152  0.72474  0.26927     C
H     0.546927 0.098296 0.287454     H
H     0.546927 0.901704 0.287454     H
H     0.548026 0.299131 0.085106     H
H     0.548026 0.700869 0.085106     H
H     0.567941 0.251729 0.497787     H
H     0.567941 0.748271 0.497787     H
H     0.568993 0.210593 0.963673     H
H     0.568993 0.789407 0.963673     H
C      0.58752  0.27332  0.32977     C
C      0.58752  0.72672  0.32977     C
C      0.58812  0.16252  0.09397     C
C      0.58812  0.83752  0.09397     C
C      0.59552  0.26252  0.44977     C
C      0.59552  0.73752  0.44977     C
C     0.5967518  0.19452  0.00047     C
C     0.5967518  0.80552  0.00047     C
H     0.598296 0.453073 0.037454     H
H     0.598296 0.546927 0.037454     H
H     0.615829 0.280262 0.279828     H
H     0.615829 0.719738 0.279828     H
H     0.616077 0.147763  0.13331     H
H     0.616077 0.852237  0.13331     H
C      0.61675  0.47414  0.98331     C
C      0.61675  0.52594  0.98331     C
C     0.6428617 0.2659318  0.51337     C
C     0.6428617 0.7340718  0.51337     C
C     0.6462518 0.2065618  0.95037     C
C     0.6462518 0.7934418  0.95037     C
O     0.6470712 0.2336013  0.85425     O
O     0.6470712 0.7664013  0.85425     O
O     0.6477313 0.2428912  0.61545     O
O     0.6477313 0.7571112  0.61545     O
H     0.647763 0.383923  0.88331     H
H     0.647763 0.616077  0.88331     H
C      0.64884  0.45952  0.88888     C
C      0.64884  0.54052  0.88888     C
C      0.66252  0.41192  0.84397     C
C      0.66252  0.58812  0.84397     C
O      0.66642      0.5  0.82727     O
O     0.6759412 0.2931512  0.46365     O
O     0.6759412 0.7068512  0.46365     O
O     0.6839711 0.1873611  0.00485     O
O     0.6839711 0.8126411  0.00485     O
O     0.6873611 0.3160311  0.75485     O
O     0.6873611 0.6839711  0.75485     O
C      0.69452 0.4032518  0.75047     C
C      0.69452 0.5967518  0.75047     C
Al    0.699805 0.245995  0.73774    Al
Al    0.699805 0.754015  0.73774    Al
H     0.700869 0.048026 0.335106     H
H     0.700869 0.951974 0.335106     H
C     0.7065618 0.3537518  0.70037     C
C     0.7065618 0.6462518  0.70037     C
O     0.7068512 0.1759412  0.71365     O
O     0.7068512 0.8240612  0.71365     O
C      0.70974  0.02702  0.40317     C
C      0.70974  0.97302  0.40317     C
H     0.710593 0.431007 0.713673     H
H     0.710593 0.568993 0.713673     H
H     0.719738 0.115829 0.529828     H
H     0.719738 0.884171 0.529828     H
H     0.723511 0.263387 0.123504     H
H     0.723511 0.736613 0.123504     H
C      0.72474  0.04152  0.51927     C
C      0.72474  0.95852  0.51927     C
C      0.72672  0.08752  0.57977     C
C      0.72672  0.91252  0.57977     C
O      0.73322      0.0  0.59357     O
O     0.7336013 0.3529312  0.60425     O
O     0.7336013 0.6470712  0.60425     O
C     0.7340718 0.1428617  0.76337     C
C     0.7340718 0.8571417  0.76337     C
H     0.736613 0.223511 0.373504     H
H     0.736613 0.776489 0.373504     H
C      0.73752  0.09552  0.69977     C
C      0.73752  0.90452  0.69977     C
O     0.7428912 0.3522713  0.36545     O
O     0.7428912 0.6477313  0.36545     O
O     0.7435212 0.2475313  0.86725     O
O     0.7435212 0.7524713  0.86725     O
Al    0.745995 0.300205  0.48774    Al
Al    0.745995 0.699805  0.48774    Al
O     0.7475313 0.2564812  0.61725     O
O     0.7475313 0.7435212  0.61725     O
H     0.748271 0.067941 0.747787     H
H     0.748271 0.932059 0.747787     H
H     0.751729 0.432059 0.247787     H
H     0.751729 0.567941 0.247787     H
O     0.7524713 0.2435212  0.11725     O
O     0.7524713 0.7564812  0.11725     O
Al    0.754015 0.199805  0.98774    Al
Al    0.754015 0.800205  0.98774    Al
O     0.7564812 0.2524713  0.36725     O
O     0.7564812 0.7475313  0.36725     O
O     0.7571112 0.1477313  0.86545     O
O     0.7571112 0.8522713  0.86545     O
C      0.76252  0.40452  0.19977     C
C      0.76252  0.59552  0.19977     C
H     0.763387 0.276489 0.873504     H
H     0.763387 0.723511 0.873504     H
C     0.7659318 0.3571417  0.26337     C
C     0.7659318 0.6428617  0.26337     C
O     0.7664013 0.1470712  0.10425     O
O     0.7664013 0.8529312  0.10425     O
O      0.76682      0.5  0.09357     O
C      0.77332  0.41252  0.07977     C
C      0.77332  0.58752  0.07977     C
C      0.77534  0.45852  0.01927     C
C      0.77534  0.54152  0.01927     C
H     0.776489 0.236613 0.623504     H
H     0.776489 0.763387 0.623504     H
H     0.780262 0.384171 0.029828     H
H     0.780262 0.615829 0.029828     H
H     0.789407 0.068993 0.213673     H
H     0.789407 0.931007 0.213673     H
C      0.79034  0.47302  0.90317     C
C      0.79034  0.52702  0.90317     C
O     0.7931512 0.3240612  0.21365     O
O     0.7931512 0.6759412  0.21365     O
C     0.7934418 0.1462518  0.20037     C
C     0.7934418 0.8537518  0.20037     C
H     0.799131 0.451974 0.835106     H
H     0.799131 0.548026 0.835106     H
Al    0.800205 0.254015  0.23774    Al
Al    0.800205 0.745995  0.23774    Al
C      0.80552 0.0967518  0.25047     C
C      0.80552 0.9032518  0.25047     C
O     0.8126411 0.1839711  0.25485     O
O     0.8126411 0.8160311  0.25485     O
O     0.8160311 0.3126411  0.50485     O
O     0.8160311 0.6873611  0.50485     O
O     0.8240612 0.2068512  0.96365     O
O     0.8240612 0.7931512  0.96365     O
O      0.83362      0.0  0.32727     O
C      0.83752  0.08812  0.34397     C
C      0.83752  0.91192  0.34397     C
C      0.85124  0.04052  0.38888     C
C      0.85124  0.95952  0.38888     C
H     0.852237 0.116077  0.38331     H
H     0.852237 0.883923  0.38331     H
O     0.8522713 0.2571112  0.11545     O
O     0.8522713 0.7428912  0.11545     O
O     0.8529312 0.2664013  0.35425     O
O     0.8529312 0.7336013  0.35425     O
C     0.8537518 0.2934418  0.45037     C
C     0.8537518 0.7065618  0.45037     C
C     0.8571417 0.2340718  0.01337     C
C     0.8571417 0.7659318  0.01337     C
C      0.88335  0.02594  0.48331     C
C      0.88335  0.97414  0.48331     C
H     0.883923 0.352237  0.63331     H
H     0.883923 0.647763  0.63331     H
H     0.884171 0.219738 0.779828     H
H     0.884171 0.780262 0.779828     H
H     0.901704 0.046927 0.537454     H
H     0.901704 0.953073 0.537454     H
C     0.9032518  0.30552  0.50047     C
C     0.9032518  0.69452  0.50047     C
C      0.90452  0.23752  0.94977     C
C      0.90452  0.76252  0.94977     C
C      0.91192  0.33752  0.59397     C
C      0.91192  0.66252  0.59397     C
C      0.91252  0.22672  0.82977     C
C      0.91252  0.77332  0.82977     C
H     0.931007 0.289407 0.463673     H
H     0.931007 0.710593 0.463673     H
H     0.932059 0.248271 0.997787     H
H     0.932059 0.751729 0.997787     H
H     0.951974 0.200869 0.585106     H
H     0.951974 0.799131 0.585106     H
H     0.953073 0.401704 0.787454     H
H     0.953073 0.598296 0.787454     H
C      0.95852  0.22474  0.76927     C
C      0.95852  0.77534  0.76927     C
C      0.95952  0.35124  0.63888     C
C      0.95952  0.64884  0.63888     C
C      0.97302  0.20974  0.65317     C
C      0.97302  0.79034  0.65317     C
C      0.97414  0.38335  0.73331     C
C      0.97414  0.61675  0.73331     C
