data_I
_chemical_name_common  'val_44'
_cell_length_a  8.91381
_cell_length_b  9.69351
_cell_length_c  9.48361
_cell_angle_alpha 90.00000
_cell_angle_beta  115.89540
_cell_angle_gamma 90.00000
_space_group_name_H-M_alt      'P 1'


loop_
_space_group_symop_operation_xyz
  'x, y, z' 

loop_
_atom_site_label
_atom_site_fract_x
_atom_site_fract_y
_atom_site_fract_z
_atom_site_type_symbol
C      0.02154  0.69834  0.75884     C
C      0.02154  0.80174  0.25884     C
N      0.03084  0.61082  0.86834     N
N      0.03084  0.88922  0.36834     N
N      0.09224  0.14754  0.59004     N
N      0.09224  0.35254  0.09004     N
H       0.0932   0.6955   0.7086     H
H       0.0932   0.8045   0.2086     H
N      0.09924  0.20864  0.27414     N
N      0.09924  0.29144  0.77414     N
C      0.16554  0.24464  0.17684     C
C      0.16554  0.25544  0.67684     C
Zn    0.175884 0.057713 0.436794    Zn
Zn    0.175884 0.442293 0.936794    Zn
H       0.2559   0.1971   0.1711     H
H       0.2559   0.3029   0.6711     H
O      0.32474  0.53072  0.82684     O
O      0.32474  0.96932  0.32684     O
O      0.40984  0.07612  0.61024     O
O      0.40984  0.42392  0.11024     O
C      0.47524  0.53084  0.91854     C
C      0.47524  0.96924  0.41854     C
C      0.52484  0.03084  0.58154     C
C      0.52484  0.46924  0.08154     C
O      0.59024  0.57612  0.88984     O
O      0.59024  0.92392  0.38984     O
O      0.67534  0.03072  0.67324     O
O      0.67534  0.46932  0.17324     O
H       0.7441   0.6971   0.3289     H
H       0.7441   0.8029   0.8289     H
Zn    0.824124 0.557713 0.063214    Zn
Zn    0.824124 0.942293 0.563214    Zn
C      0.83454  0.74464  0.32324     C
C      0.83454  0.75544  0.82324     C
N      0.90084  0.70864  0.22594     N
N      0.90084  0.79144  0.72594     N
H       0.9068   0.1955   0.7914     H
H       0.9068   0.3045   0.2914     H
N      0.90784  0.64754  0.91004     N
N      0.90784  0.85254  0.41004     N
N      0.96924  0.11082  0.63174     N
N      0.96924  0.38922  0.13174     N
C      0.97854  0.19834  0.74124     C
C      0.97854  0.30174  0.24124     C
