data_I
_chemical_name_common  'val_23'
_cell_length_a  8.91824
_cell_length_b 13.66485
_cell_length_c 14.71074
_cell_angle_alpha 90.00000
_cell_angle_beta  90.00000
_cell_angle_gamma 90.00000
_space_group_name_H-M_alt      'P 1'


loop_
_space_group_symop_operation_xyz
  'x, y, z' 

loop_
_atom_site_label
_atom_site_fract_x
_atom_site_fract_y
_atom_site_fract_z
_atom_site_type_symbol
C      0.00298  0.61477  0.16785     C
C      0.00298  0.88537  0.33225     C
C      0.02738  0.70555  0.13065     C
C      0.02738  0.79455  0.36945     C
C      0.02747  0.16265  0.99014     C
C      0.02747  0.33745  0.50994     C
O      0.02977  0.50654  0.29354     O
O      0.02977  0.99354  0.20654     O
C      0.04827  0.23435  0.55015     C
C      0.04827  0.26575  0.94995     C
O      0.06367  0.60794  0.45274     O
O      0.06367  0.89214  0.04734     O
C      0.08429  0.57745  0.25075     C
C      0.08429  0.92265  0.24935     C
C      0.09359  0.05035  0.62395     C
C      0.09359  0.44975  0.87615     C
H     0.095244 0.749387 0.159015     H
H     0.095244 0.750613 0.340985     H
O      0.10587  0.14194  0.05784     O
O      0.10587  0.35814  0.44224     O
H      0.11198 0.512073 0.849807     H
H      0.11198 0.987927 0.650193     H
C      0.14157  0.16705  0.50655     C
C      0.14157  0.33305  0.99355     C
H     0.160139 0.033972 0.890476     H
H     0.160139 0.466028 0.609524     H
C      0.16378  0.07455  0.54255     C
C      0.16378  0.42555  0.95755     C
H     0.165904 0.539758 0.609524     H
H     0.165904 0.960242 0.890476     H
H     0.190301 0.184939 0.451587     H
H     0.190301 0.315061 0.048413     H
O      0.21007  0.61694  0.27264     O
O      0.21007  0.88314  0.22744     O
Eu        0.25      0.0 0.095833    Eu
O         0.25      0.0  0.40945     O
C         0.25      0.0  0.49197     C
O         0.25      0.0  0.92165     O
C         0.25      0.5  0.00817     C
O         0.25      0.5  0.09065     O
Eu        0.25      0.5 0.404173    Eu
O         0.25      0.5  0.57845     O
O      0.29007  0.11694  0.22744     O
O      0.29007  0.38314  0.27264     O
H     0.309699 0.684939 0.048413     H
H     0.309699 0.815061 0.451587     H
H     0.334096 0.039758 0.890476     H
H     0.334096 0.460242 0.609524     H
C      0.33638  0.57455  0.95755     C
C      0.33638  0.92555  0.54255     C
H     0.339861 0.533972 0.609524     H
H     0.339861 0.966028 0.890476     H
C      0.35857  0.66705  0.99355     C
C      0.35857  0.83305  0.50655     C
H      0.38802 0.012073 0.650193     H
H      0.38802 0.487927 0.849807     H
O      0.39427  0.64194  0.44224     O
O      0.39427  0.85814  0.05784     O
H     0.404756 0.249387 0.340985     H
H     0.404756 0.250613 0.159015     H
C      0.40659  0.55035  0.87615     C
C      0.40659  0.94975  0.62395     C
C      0.41589  0.07745  0.24935     C
C      0.41589  0.42265  0.25075     C
O      0.43647  0.10794  0.04734     O
O      0.43647  0.39214  0.45274     O
C      0.45187  0.73435  0.94995     C
C      0.45187  0.76575  0.55015     C
O      0.47037  0.00654  0.20654     O
O      0.47037  0.49354  0.29354     O
C      0.47267  0.66265  0.50994     C
C      0.47267  0.83745  0.99014     C
C      0.47278  0.20555  0.36945     C
C      0.47278  0.29455  0.13065     C
C      0.49718  0.11477  0.33225     C
C      0.49718  0.38537  0.16785     C
C      0.50298  0.61477  0.83225     C
C      0.50298  0.88537  0.66785     C
C      0.52738  0.70555  0.86945     C
C      0.52738  0.79455  0.63065     C
C      0.52747  0.16265  0.00994     C
C      0.52747  0.33745  0.49014     C
O      0.52977  0.50654  0.70654     O
O      0.52977  0.99354  0.79354     O
C      0.54827  0.23435  0.44995     C
C      0.54827  0.26575  0.05015     C
O      0.56367  0.60794  0.54734     O
O      0.56367  0.89214  0.95274     O
C      0.58429  0.57745  0.74935     C
C      0.58429  0.92265  0.75075     C
C      0.59359  0.05035  0.37615     C
C      0.59359  0.44975  0.12395     C
H     0.595244 0.749387 0.840985     H
H     0.595244 0.750613 0.659015     H
O      0.60587  0.14194  0.94224     O
O      0.60587  0.35814  0.55784     O
H      0.61198 0.512073 0.150193     H
H      0.61198 0.987927 0.349807     H
C      0.64157  0.16705  0.49355     C
C      0.64157  0.33305  0.00655     C
H     0.660139 0.033972 0.109524     H
H     0.660139 0.466028 0.390476     H
C      0.66378  0.07455  0.45755     C
C      0.66378  0.42555  0.04255     C
H     0.665904 0.539758 0.390476     H
H     0.665904 0.960242 0.109524     H
H     0.690301 0.184939 0.548413     H
H     0.690301 0.315061 0.951587     H
O      0.71007  0.61694  0.72744     O
O      0.71007  0.88314  0.77264     O
O         0.75      0.0  0.07845     O
C         0.75      0.0  0.50817     C
O         0.75      0.0  0.59065     O
Eu        0.75      0.0 0.904173    Eu
O         0.75      0.5  0.42165     O
Eu        0.75      0.5 0.595833    Eu
O         0.75      0.5  0.90945     O
C         0.75      0.5  0.99197     C
O      0.79007  0.11694  0.77264     O
O      0.79007  0.38314  0.72744     O
H     0.809699 0.684939 0.951587     H
H     0.809699 0.815061 0.548413     H
H     0.834096 0.039758 0.109524     H
H     0.834096 0.460242 0.390476     H
C      0.83638  0.57455  0.04255     C
C      0.83638  0.92555  0.45755     C
H     0.839861 0.533972 0.390476     H
H     0.839861 0.966028 0.109524     H
C      0.85857  0.66705  0.00655     C
C      0.85857  0.83305  0.49355     C
H      0.88802 0.012073 0.349807     H
H      0.88802 0.487927 0.150193     H
O      0.89427  0.64194  0.55784     O
O      0.89427  0.85814  0.94224     O
H     0.904756 0.249387 0.659015     H
H     0.904756 0.250613 0.840985     H
C      0.90659  0.55035  0.12395     C
C      0.90659  0.94975  0.37615     C
C      0.91589  0.07745  0.75075     C
C      0.91589  0.42265  0.74935     C
O      0.93647  0.10794  0.95274     O
O      0.93647  0.39214  0.54734     O
C      0.95187  0.73435  0.05015     C
C      0.95187  0.76575  0.44995     C
O      0.97037  0.00654  0.79354     O
O      0.97037  0.49354  0.70654     O
C      0.97267  0.66265  0.49014     C
C      0.97267  0.83745  0.00994     C
C      0.97278  0.20555  0.63065     C
C      0.97278  0.29455  0.86945     C
C      0.99718  0.11477  0.66785     C
C      0.99718  0.38537  0.83225     C
