data_I
_chemical_name_common  'val_36'
_cell_length_a 10.27454
_cell_length_b 11.23214
_cell_length_c 11.99014
_cell_angle_alpha 74.88020
_cell_angle_beta  77.19320
_cell_angle_gamma 86.94720
_space_group_name_H-M_alt      'P 1'


loop_
_space_group_symop_operation_xyz
  'x, y, z' 

loop_
_atom_site_label
_atom_site_fract_x
_atom_site_fract_y
_atom_site_fract_z
_atom_site_type_symbol
U          0.0      0.5      0.0     U
O       0.0172   0.2892   0.2902     O
O     0.023716 0.314618 0.951316     O
O       0.0642 0.166118 0.101615     O
C       0.0672   0.2083   0.0022     C
H       0.0875   0.2544    0.759     H
C       0.1182   0.1382   0.9082     C
C       0.1202   0.1742 0.789718     C
O       0.1372   0.3172 0.471218     O
O     0.141313 0.564916 0.866611     O
H       0.1619   0.1337   0.6336     H
C       0.1642   0.1042 0.715118     C
O     0.164911 0.454713  0.07851     O
C       0.1702   0.0182   0.9512     C
H       0.1707   0.9873   0.0326     H
H       0.1857    0.908   0.6285     H
O     0.188716 0.542016 0.273913     O
H       0.2022   0.7371   0.3682     H
N     0.211718 0.989117 0.757416     N
C       0.2202   0.9462   0.8722     C
U     0.242726 0.395976 0.251714     U
H       0.2485   0.6726   0.5603     H
C       0.2573   0.9112   0.6722     C
H       0.2593    0.868   0.8984     H
H        0.272   0.8253    0.716     H
H        0.273   0.7904   0.1673     H
C       0.2912 0.727116 0.379114     C
H       0.2918   0.0383   0.4449     H
O     0.292518 0.242414 0.245515     O
C       0.3202 0.686918 0.492514     C
O     0.340314 0.684913 0.944911     O
H       0.3557   0.3145   0.5859     H
U     0.356725 0.529425 0.927634     U
H       0.3605   0.0096   0.1806     H
O     0.365414 0.380514 0.900413     O
C       0.3702 0.780816 0.161314     C
C       0.3752   0.0232   0.4682     C
C       0.3812   0.9582   0.5862     C
O     0.387013 0.619714  0.71601     O
N     0.398614 0.751214 0.285013     N
H       0.3994   0.7104   0.1263     H
O     0.402315 0.405017 0.369013     O
H       0.4077   0.2456   0.7759     H
C     0.416218 0.004817 0.107315     C
O     0.417511 0.465213  0.10671     O
C       0.4382   0.8932 0.082115     C
C       0.4462   0.3052 0.593615     C
C       0.4502 0.668115 0.506713     C
H       0.4563   0.1921   0.0441     H
C       0.4752 0.114618 0.026216     C
C       0.4772   0.2632 0.706715     C
C       0.4822 0.626618 0.629616     C
H       0.4877   0.1101   0.3098     H
C       0.4932   0.0642 0.387417     C
C       0.5072   0.9362 0.612617     C
H       0.5123   0.8899   0.6902     H
C       0.5182 0.373418 0.370416     C
C       0.5232   0.7372 0.293315     C
C       0.5252 0.885418 0.973816     C
H       0.5437   0.8079   0.9559     H
C       0.5502 0.331915 0.493313     C
C       0.5542   0.6952 0.406415     C
C       0.5622   0.1072 0.917915     C
O     0.582511 0.534813  0.89331     O
C     0.583818 0.995217 0.892715     C
H       0.5923   0.7544   0.2241     H
O     0.597715 0.595017 0.631013     O
H       0.6006   0.2896   0.8737     H
N     0.601414 0.248814 0.715013     N
O     0.613013 0.380314  0.28401     O
C       0.6192   0.0422   0.4142     C
C       0.6252   0.9772   0.5322     C
C       0.6302 0.219216 0.838714     C
O     0.634614 0.619514 0.099613     O
H       0.6395   0.9904   0.8194     H
U     0.643285 0.470585 0.072374     U
H       0.6443   0.6855   0.4141     H
O     0.659714 0.315113 0.055111     O
C       0.6802 0.313118 0.507514     C
O     0.707518 0.757614 0.754515     O
H       0.7082   0.9617   0.5551     H
C       0.7092 0.272916 0.620914     C
H        0.727   0.2096   0.8327     H
H        0.728   0.1747    0.284     H
H       0.7407    0.132   0.1016     H
C       0.7433   0.0892   0.3282     C
H       0.7515   0.3274   0.4397     H
U     0.757286 0.604036 0.748294     U
C       0.7802   0.0542   0.1282     C
N     0.788318 0.010917 0.242616     N
H       0.7978   0.2629   0.6318     H
O     0.811316 0.458016 0.726113     O
H       0.8143    0.092   0.3715     H
H       0.8293   0.0127   0.9674     H
C       0.8302   0.9822   0.0492     C
O     0.835111 0.545313  0.92151     O
C       0.8362   0.8962 0.284918     C
H       0.8381   0.8663   0.3664     H
O     0.858713 0.435116 0.133411     O
O       0.8632   0.6832 0.528818     O
C       0.8802   0.8262 0.210318     C
C       0.8822   0.8622   0.0922     C
H       0.9125   0.7456    0.241     H
C       0.9332   0.7923   0.9982     C
O       0.9362 0.833918 0.898415     O
O     0.976316 0.685418 0.048716     O
O       0.9832   0.7112   0.7102     O
