data_I
_chemical_name_common  'val_6'
_cell_length_a 10.61584
_cell_length_b 15.61405
_cell_length_c 17.48065
_cell_angle_alpha 88.96620
_cell_angle_beta  73.96501
_cell_angle_gamma 77.50001
_space_group_name_H-M_alt      'P 1'


loop_
_space_group_symop_operation_xyz
  'x, y, z' 

loop_
_atom_site_label
_atom_site_fract_x
_atom_site_fract_y
_atom_site_fract_z
_atom_site_type_symbol
Cd    -0.234623 0.911932 0.287732    Cd
O     -0.15754  1.03752 0.2608018     O
Cd    -0.086083 1.010662 0.770542    Cd
H     -0.0725632 0.725477  0.39971     H
H     -0.0541902 0.772714 0.00844099     H
O     -0.04844  1.08102  0.33822     O
O     -0.03205  0.85504  0.31584     O
H     -0.00227653 0.589991 0.467477     H
O      0.03205  0.14504  0.68424     O
C      0.03325  0.70064  0.39584     C
O      0.04844  0.91902  0.66182     O
C     0.051015  0.77079 -0.02179     C
H     0.0551758 0.440693 0.693279     H
H     0.0623781 0.345037 0.892323     H
H     0.0655788 0.770845 -0.0858576     H
H     0.0706266  0.97142 -0.0433335     H
C      0.07345  0.62344  0.43284     C
H     0.0794061 0.00172127 0.453652     H
C      0.08179  0.86487  0.07967     C
O     0.086013  0.90318  0.13077     O
Cd    0.086083 -0.010662 0.229462    Cd
Cd    0.086083 0.989342 0.229462    Cd
C      0.08767  0.82914  0.31364     C
H     0.0888389 0.475659 0.958539     H
N     0.089511  0.84877  0.00457     N
H     0.112214 0.560623 0.579062     H
H     0.113339 0.711261 -0.00692355     H
H     0.119896 0.694916   1.1724     H
H     0.123034 0.580897  1.18141     H
H     0.128554 0.0957642 0.559537     H
C      0.12875  0.74554  0.35404     C
H     0.134545 0.880893 -0.113822     H
C       0.1363 0.906216 -0.056513     C
H     0.142005 0.0926279 0.408253     H
O      0.14454  0.10084  0.14022     O
C      0.15495  0.91504  0.68074     C
O      0.15754 -0.03752 0.7392018     O
C      0.16125  0.36024  0.88074     C
C      0.16257  0.43584  0.68304     C
O      0.16494  0.19022  0.81572     O
C     0.169313 0.023711  0.42127     C
C      0.17675  0.43294  0.91894     C
H     0.178348 0.491884 0.712344     H
O      0.17954  0.86942  0.28132     O
H     0.183923 0.500478  1.06065     H
C      0.18445  0.62934  1.16342     C
H      0.18621 0.810942 0.552176     H
C      0.19125  0.50514  0.54934     C
H     0.206073 0.375397 0.707128     H
C      0.20815  0.58864  0.42612     C
H     0.216268 -0.0152967  0.36561     H
H     0.221272 0.220051 0.0524042     H
H     0.227118 0.447419 0.311058     H
C      0.22891  0.05397  0.53935     C
C      0.22935  0.43504  0.59414     C
Cd    0.234623 0.088072 0.712272    Cd
Cd    0.234623 1.088072 0.712272    Cd
H     0.238168 0.909986 -0.0587036     H
C      0.23894  0.10534  0.16954     C
C      0.24854  0.54414  1.03192     C
C      0.25025  0.50714  0.46774     C
H     0.254908 0.623981   1.1991     H
C      0.25595  0.23174  0.78264     C
O      0.26114  0.05722  0.22522     O
C      0.26124  0.61284  1.07642     C
N      0.26298  0.01317  0.46934     N
C      0.26345  0.71194  0.34822     C
H     0.265818 0.0793238 0.910966     H
C      0.27135  0.30694  0.82784     C
C      0.27537  0.79844  0.57364     C
C      0.27934  0.84914  0.63744     C
H     0.281622 0.581761 0.794145     H
O     0.302016 0.048513  0.58411     O
C      0.30244  0.45204  0.90742     C
C      0.30325  0.63344  0.38232     C
C      0.30445  0.22264  0.07684     C
C      0.31734  0.52964  0.95042     C
C      0.32654  0.16814  0.13824     C
C      0.32945  0.36464  0.55524     C
H     0.332842 0.435777 0.165532     H
O      0.33424  0.20842 0.7149018     O
C      0.33564  0.43904  0.28802     C
H     0.336973 0.925082   0.1367     H
H     0.338471  0.74747  0.31661     H
C      0.34744  0.66624  1.03892     C
C      0.35005  0.43524  0.42882     C
H     0.360856 0.719029  1.07361     H
H     0.361376 0.309037 0.589176     H
C      0.36327  0.04905  0.91954     C
H     0.366983 0.0694493 0.977906     H
H     0.368943 0.321368 -0.00153727     H
H     0.377713 -0.0221656 0.915605     H
H     0.380208 0.694408  0.48726     H
C      0.38397  0.73264  0.53784     C
H     0.386806 0.573125 0.648862     H
C      0.38724  0.27984  0.04672     C
C      0.38944  0.57704  0.77132     C
C      0.39005  0.36354  0.47344     C
C     0.391613 -0.04621  0.43798     C
C      0.39424  0.83334  0.66324     C
C      0.39504  0.43324  0.20612     C
H     0.398022 -0.0723927 0.379294     H
C      0.39855  0.32514  0.81572     C
H     0.399266 0.873694 0.711938     H
C      0.40024  0.58594  0.91242     C
H     0.402531 -0.0999598 0.477799     H
H     0.405098 0.765153 0.833999     H
H     0.407294  0.24575 0.352203     H
H     0.409634 0.606402 0.374868     H
O      0.41164  0.01852  0.75822     O
C      0.41374  0.39644  0.85572     C
C      0.41414  0.43414  0.34072     C
C      0.41724  0.65394  0.95792     C
C      0.43065  0.17364  0.16994     C
H     0.435886 0.919512 0.261083     H
H     0.436833 0.819501  0.14356     H
C      0.43737  0.88314  0.11704     C
H     0.447567 0.132337 0.218567     H
C      0.44854  0.57214  0.68952     C
C      0.46634  0.57594  0.82452     C
H     0.467479 0.874197 0.0523387     H
N      0.46834  0.07614  0.85844     N
H     0.471387 -0.0110061 0.432908     H
C      0.48385  0.05874  0.78284     C
H     0.485767 0.283211 0.774796     H
C      0.48634  0.76874  0.85984     C
H     0.486577 0.590681   0.1532     H
C      0.49424  0.28504  0.07742     C
C      0.49705  0.23404  0.37304     C
C      0.49915  0.71344  0.56462     C
C      0.50095  0.28664  0.43542     C
C      0.50305  0.76604  0.62704     C
C      0.50584  0.71504  0.92262     C
H     0.513423 0.409319   0.8468     H
C      0.51374  0.23134  0.14024     C
H     0.514233 0.716789 0.225204     H
C      0.51625  0.94134  0.21724     C
H     0.528613  1.01101 0.567092     H
N      0.53174  0.92394  0.14164     N
H     0.532521 0.125803 0.947661     H
C      0.53374  0.42414  0.17552     C
C      0.55154  0.42794  0.31052     C
H     0.552433 0.867663 0.781433     H
C      0.56277  0.11694  0.88304     C
H     0.563167 0.180499  0.85644     H
H     0.564114 0.0804881 0.738917     H
C      0.56945  0.82644  0.83014     C
C      0.58284  0.34614  0.04212     C
C      0.58594  0.56594  0.65932     C
C      0.58634  0.60364  0.14432     C
O      0.58844  0.98152  0.24182     O
H     0.590366 0.393598 0.625132     H
H     0.592706  0.75425 0.647797     H
H     0.594902 0.234847 0.166001     H
H     0.597469  1.09996 0.522201     H
C      0.59984  0.41414  0.08762     C
H     0.600734 0.126306 0.288062     H
C      0.60155  0.67494  0.18432     C
H     0.601978  1.07239 0.620706     H
C      0.60504  0.56684  0.79392     C
C      0.60584  0.16674  0.33684     C
C     0.608413  1.04621  0.56218     C
C      0.61005  0.63654  0.52664     C
C      0.61064  0.42304  0.22872     C
C      0.61284  0.72024  0.95332     C
H     0.613194 0.426875 0.351138     H
C      0.61617  0.26744  0.46224     C
H     0.619792 0.305592  0.51274     H
H     0.622287  1.02217 0.0843952     H
H     0.631057 0.678632  1.00154     H
H     0.633017 0.930551 0.0220937     H
C      0.63687  0.95105  0.08054     C
H     0.638624 0.690963 0.410824     H
H     0.639144 0.280971 -0.0736094     H
C      0.65005  0.56484  0.57122     C
C      0.65264  0.33384 -0.03892     C
H     0.661529  0.25253  0.68339     H
H     0.663027 0.0749179   0.8633     H
C      0.66444  0.56104  0.71202     C
O      0.66584  0.79162 0.2851018     O
H     0.667158 0.564223 0.834468     H
C      0.67065  0.63544  0.44484     C
C      0.67354  0.83194  0.86184     C
C      0.68274  0.47044  0.04962     C
C      0.69565  0.77744  0.92324     C
C      0.69685  0.36664  0.61772     C
C      0.69764  0.54804  0.09262     C
O     0.698016 0.951513  0.41591     O
H     0.718378 0.418239 0.205855     H
C      0.72074  0.15094  0.36264     C
C      0.72477  0.20164  0.42644     C
C      0.72875  0.69314  0.17224     C
H     0.734182 0.920676 0.0890339     H
C      0.73665  0.28814  0.65182     C
N      0.73718  0.98697  0.53074     N
C      0.73884  0.38724 -0.07642     C
O      0.73894 -0.05722  0.77482     O
C      0.74415  0.76834  0.21744     C
H     0.745092 0.376019 -0.199102     H
C      0.74985  0.49294  0.53234     C
C      0.75154  0.45594 -0.03192     C
C      0.76114  0.89474  0.83054     C
H     0.761832 0.0900135   1.0587     H
Cd    0.765383 -0.088072 0.287732    Cd
Cd    0.765383 0.911932 0.287732    Cd
C      0.77075  0.56504  0.40594     C
C      0.77111  0.94617  0.46075     C
H     0.772882 0.552581 0.688942     H
H     0.778728 0.779949 0.947596     H
H     0.783732   1.0153  0.63439     H
C      0.79195  0.41144  0.57392     C
H     0.793927 0.624603 0.292872     H
C      0.80885  0.49494  0.45074     C
H      0.81379 0.189058 0.447824     H
C      0.81565  0.37074 -0.16342     C
H     0.816077 0.499522 -0.0606533     H
O      0.82054  0.13062  0.71872     O
H     0.821652 0.508116 0.287656     H
C      0.82335  0.56714  0.08114     C
C     0.830713 0.976311  0.57887     C
O      0.83514  0.80982  0.18432     O
C      0.83757  0.56424  0.31704     C
C      0.83885  0.63984  0.11934     C
C      0.84515  0.08504  0.31934     C
O      0.85554 -0.10084  0.85982     O
H     0.857995 0.907372 0.591747     H
C       0.8643 0.093816 1.056513     C
H     0.865455 0.119107  1.11382     H
C      0.87135  0.25454  0.64604     C
H     0.871446 0.904236 0.440463     H
H     0.876966 0.419103 -0.181409     H
H     0.880104 0.305084 -0.172404     H
H     0.886661 0.288739  1.00692     H
H     0.887786 0.439377 0.420938     H
N     0.910511  0.15137  0.99557     N
H     0.911161 0.524341 0.0414611     H
C      0.91247  0.17094  0.68644     C
Cd    0.913923 0.010662 0.770542    Cd
Cd    0.913923 1.010662 0.770542    Cd
O     0.914013  0.09698  0.86937     O
C      0.91839  0.13527  0.92047     C
H     0.920594 0.998279 0.546348     H
C      0.92665  0.37664  0.56724     C
H     0.929373 0.0285798  1.04333     H
H     0.934421 0.229155  1.08586     H
H     0.937622 0.654963 0.107677     H
H     0.944824 0.559307 0.306721     H
C     0.949015  0.22939  1.02179     C
C      0.96685  0.29944  0.60424     C
H      1.00228 0.410009 0.532523     H
H      1.05419 0.227286 0.991559     H
H      1.07256 0.274523  0.60029     H
Cd    1.086083 -0.010662 0.229462    Cd
Cd    1.234623 0.088072 0.712272    Cd
