data_I
_chemical_name_common  'val_35'
_cell_length_a 10.06530
_cell_length_b 10.89742
_cell_length_c 10.93952
_cell_angle_alpha 90.67611
_cell_angle_beta  91.72916
_cell_angle_gamma 92.72516
_space_group_name_H-M_alt      'P 1'


loop_
_space_group_symop_operation_xyz
  'x, y, z' 

loop_
_atom_site_label
_atom_site_fract_x
_atom_site_fract_y
_atom_site_fract_z
_atom_site_type_symbol
H     0.143555  1.54825 0.0167419     H
H     0.188154 0.948196 0.539421     H
H     0.214833  1.52859 -0.174714     H
H     0.229061 0.967568 0.697972     H
H     0.237439  1.68889 0.0435097     H
H     0.240614 0.756452 0.573427     H
C     0.241314 1.594613 0.010213     C
H     0.243107  1.07522 0.404733     H
H       0.2584  1.68828 -0.160223     H
C       0.2692 0.951918   0.6082     C
H     0.269288  1.34385 0.0384733     H
C     0.277611 1.597613 -0.124913     C
C       0.3172   0.8212   0.6122     C
H     0.324977 0.844824 0.367754     H
C     0.334211 1.099911  0.45749     C
C     0.337911  1.52939  0.09071     C
H     0.341156 0.795871 0.705844     H
C     0.349711 1.069111  0.58139     C
C      0.35241  1.40298  0.07379     C
H     0.364306   1.3942 -0.228666     H
O      0.36879  1.04107 -0.17107     O
Cu     0.37312 0.9846711 0.001311    Cu
Cu     0.37312 0.9846711 1.001311    Cu
Cu     0.37312 1.9846711 0.001311    Cu
O      0.37629  1.15877  0.05825     O
O      0.40801  0.81897 -0.05765     O
O      0.41169  0.93345  0.17145     O
H     0.414096  1.68467 0.192121     H
C      0.41961  1.57238 -0.14559     C
C     0.422111  0.85451  0.41448     C
H     0.425117  1.20126 0.315697     H
C      0.43491  1.59389  0.15728     C
C     0.438611  0.82121  0.53699     C
C     0.439611  1.16261  0.40629     C
C     0.442411  1.45119 -0.18199     C
C      0.46691  1.09979  0.64627     C
C      0.47451  1.35417  0.10258     C
C     0.476513  1.06829  0.78268     C
C     0.478914  1.21829  0.06788     C
C     0.521114  1.78189 -0.06788     C
C     0.523513  0.93189  0.21748     C
C      0.52551  1.64597 -0.10258     C
C      0.53311  0.90039  0.35387     C
C     0.557611  1.54899  0.18199     C
C     0.560411  0.83741  0.59389     C
C     0.561411  1.17881  0.46319     C
C      0.56511  1.40629 -0.15728     C
H     0.574883  0.79874 0.684303     H
C     0.577911  1.14551  0.58568     C
C      0.58041  1.42778  0.14559     C
H     0.585904  1.31533 -0.192121     H
O      0.58849  1.06665 -0.17145     O
O      0.59201  1.18117  0.05765     O
O      0.62389  0.84137 -0.05825     O
Cu     0.62692 1.0153311 -0.001311    Cu
Cu     0.62692 1.0153311 0.998691    Cu
Cu     0.62692 2.0153311 -0.001311    Cu
O      0.63139  0.95907  0.17107     O
H     0.635694   1.6058 0.228666     H
C      0.64761  1.59718 -0.07379     C
C     0.650311 0.930911  0.41879     C
H     0.658844  1.20413 0.294156     H
C     0.662111  1.47079 -0.09071     C
C     0.665811 0.900111  0.54269     C
H     0.675023  1.15518 0.632246     H
C       0.6832   1.1792   0.3882     C
C     0.722411 1.402413 0.124913     C
H     0.730712  1.65615 -0.0384733     H
C       0.7312 1.048118   0.3922     C
H       0.7416  1.31172 0.160223     H
H     0.756893 0.924778 0.595267     H
C     0.758714 1.405413 -0.010213     C
H     0.759386  1.24355 0.426573     H
H     0.762561  1.31111 -0.0435097     H
H     0.770939  1.03243 0.302028     H
H     0.785167  1.47141 0.174714     H
H     0.811846   1.0518 0.460579     H
H     0.856445  1.45175 -0.0167419     H
