data_I
_chemical_name_common  'val_17'
_cell_length_a 30.34501
_cell_length_b 10.00884
_cell_length_c 22.75079
_cell_angle_alpha 90.00000
_cell_angle_beta  124.31301
_cell_angle_gamma 90.00000
_space_group_name_H-M_alt      'P 1'


loop_
_space_group_symop_operation_xyz
  'x, y, z' 

loop_
_atom_site_label
_atom_site_fract_x
_atom_site_fract_y
_atom_site_fract_z
_atom_site_type_symbol
H       0.0166   0.2361   0.3642     H
H       0.0166   0.7639   0.8642     H
C     0.0246214  0.03714  0.37312     C
C     0.0246214  0.96294  0.87312     C
N     0.0246916  0.01374  0.19432     N
N     0.0246916  0.98634  0.69432     N
N     0.0345716  0.10134 0.7101318     N
N     0.0345716  0.89874 0.2101318     N
C     0.0386418  0.16705  0.39342     C
C     0.0386418  0.83305  0.89342     C
H       0.0491   0.1534   0.9045     H
H       0.0491   0.8466   0.4045     H
C     0.0577816  0.06424  0.91732     C
C     0.0577816  0.93584  0.41732     C
H       0.0716   0.3246    0.769     H
H       0.0716   0.6754    0.269     H
C     0.0842914  0.12614  0.77752     C
C     0.0842914  0.87394  0.27752     C
C     0.0858816  0.19454  0.45772     C
C     0.0858816  0.80554  0.95772     C
C     0.0953217  0.25754  0.79772     C
C     0.0953217  0.74254  0.29772     C
H       0.0955   0.2832   0.4709     H
H       0.0955   0.7168   0.9709     H
C     0.1041914  0.02904  0.98112     C
C     0.1041914  0.97104  0.48112     C
H       0.1133   0.0622   0.3084     H
H       0.1133   0.9378   0.8084     H
N     0.1182911  0.09804 0.5015913     N
N     0.1182911  0.90204 0.0015913     N
C     0.1202314  0.02754 0.8209518     C
C     0.1202314  0.97254 0.3209518     C
H       0.1267   0.0966   0.0111     H
H       0.1267   0.9034   0.5111     H
H       0.1327   0.0883   0.6388     H
H       0.1327   0.9117   0.1388     H
H       0.1385   0.2325   0.6442     H
H       0.1385   0.7675   0.1442     H
O     0.142511  0.36824 0.0182014     O
O     0.142511  0.63184 0.5182014     O
C     0.1425514  0.28814 0.8618718     C
C     0.1425514  0.71194 0.3618718     C
H         0.15   0.3772   0.8757     H
H         0.15   0.6228   0.3757     H
N     0.1564711  0.15522 0.6538013     N
N     0.1564711  0.84482 0.1538013     N
C     0.1666913  0.06744 0.8836316     C
C     0.1666913  0.93264 0.3836316     C
N     0.177891  0.19534 0.9046512     N
N     0.177891  0.80474 0.4046512     N
O     0.184571  0.35752 0.5790713     O
O     0.184571  0.64252 0.0790713     O
C     0.1896011  0.38804 0.0430614     C
C     0.1896011  0.61204 0.5430614     C
Ni    0.19061115 0.149873 0.59365418    Ni
Ni    0.19061115 0.850133 0.09365418    Ni
H       0.1914   0.0023   0.9127     H
H       0.1914   0.9977   0.4127     H
C     0.1933912  0.14414 0.7292616     C
C     0.1933912  0.85594 0.2292616     C
H       0.1984   0.0575   0.2322     H
H       0.1984   0.9425   0.7322     H
H       0.2015   0.3415    0.751     H
H       0.2015   0.6585    0.251     H
O     0.209299  0.41242 0.007051     O
O     0.209299  0.58762 0.507051     O
C     0.2118312  0.01884 0.7602914     C
C     0.2118312  0.98124 0.2602914     C
C     0.2131012  0.25744 0.7715116     C
C     0.2131012  0.74264 0.2715116     C
O     0.218901  0.03362 0.1340111     O
O     0.218901  0.96642 0.6340111     O
O     0.2235611  0.13832 0.5338613     O
O     0.2235611  0.86172 0.0338613     O
O     0.228669  0.12642 0.0532611     O
O     0.228669  0.87362 0.5532611     O
C     0.2297212  0.37084 0.6373616     C
C     0.2297212  0.62924 0.1373616     C
C     0.2300311  0.37954 0.1234014     C
C     0.2300311  0.62054 0.6234014     C
C     0.2312011  0.12974 0.1107514     C
C     0.2312011  0.87034 0.6107514     C
O     0.243589  0.23152 0.3285512     O
O     0.243589  0.76852 0.8285512     O
C     0.2496412  0.25442 0.1550516     C
C     0.2496412  0.74562 0.6550516     C
C     0.2498711  0.49314 0.1669414     C
C     0.2498711  0.50694 0.6669414     C
Ni        0.25     0.25      0.0    Ni
Ni        0.25     0.75      0.5    Ni
C     0.2501311  0.00694 0.8330614     C
C     0.2501311  0.99314 0.3330614     C
C     0.2503612  0.24562 0.8449516     C
C     0.2503612  0.75442 0.3449516     C
O     0.256429  0.26852 0.6714512     O
O     0.256429  0.73152 0.1714512     O
C     0.2688011  0.37034 0.8892514     C
C     0.2688011  0.62974 0.3892514     C
C     0.2699711  0.12054 0.8766014     C
C     0.2699711  0.87954 0.3766014     C
C     0.2702812  0.12924 0.3626416     C
C     0.2702812  0.87084 0.8626416     C
O     0.271349  0.37362 0.9467411     O
O     0.271349  0.62642 0.4467411     O
O     0.2764411  0.36172 0.4661413     O
O     0.2764411  0.63832 0.9661413     O
O     0.281101  0.46642 0.8659911     O
O     0.281101  0.53362 0.3659911     O
C     0.2869012  0.24264 0.2284916     C
C     0.2869012  0.75744 0.7284916     C
C     0.2881712  0.48124 0.2397114     C
C     0.2881712  0.51884 0.7397114     C
O     0.290719  0.08762 0.992951     O
O     0.290719  0.91242 0.492951     O
H       0.2985   0.1585    0.249     H
H       0.2985   0.8415    0.749     H
H       0.3016   0.4425   0.7678     H
H       0.3016   0.5575   0.2678     H
C     0.3066112  0.35594 0.2707416     C
C     0.3066112  0.64414 0.7707416     C
H       0.3086   0.4977   0.0873     H
H       0.3086   0.5023   0.5873     H
Ni    0.30938915 0.350133 0.40634618    Ni
Ni    0.30938915 0.649873 0.90634618    Ni
C     0.3104011  0.11204 0.9569414     C
C     0.3104011  0.88804 0.4569414     C
O     0.315431  0.14252 0.4209313     O
O     0.315431  0.85752 0.9209313     O
N     0.322111  0.30474 0.0953512     N
N     0.322111  0.69534 0.5953512     N
C     0.3333113  0.43264 0.1163716     C
C     0.3333113  0.56744 0.6163716     C
N     0.3435311  0.34482 0.3462013     N
N     0.3435311  0.65522 0.8462013     N
H         0.35   0.1228   0.1243     H
H         0.35   0.8772   0.6243     H
C     0.3574514  0.21194 0.1381318     C
C     0.3574514  0.78814 0.6381318     C
O     0.357491  0.13184 0.9818014     O
O     0.357491  0.86824 0.4818014     O
H       0.3615   0.2675   0.3558     H
H       0.3615   0.7325   0.8558     H
H       0.3673   0.4117   0.3612     H
H       0.3673   0.5883   0.8612     H
H       0.3733   0.4034   0.9889     H
H       0.3733   0.5966   0.4889     H
C     0.3797714  0.47254 0.1790518     C
C     0.3797714  0.52754 0.6790518     C
N     0.3817111  0.40204 0.4984113     N
N     0.3817111  0.59804 0.9984113     N
H       0.3867   0.4378   0.6916     H
H       0.3867   0.5622   0.1916     H
C     0.3958114  0.47104  0.01892     C
C     0.3958114  0.52904  0.51892     C
H       0.4045   0.2168   0.5291     H
H       0.4045   0.7832   0.0291     H
C     0.4046817  0.24254  0.20232     C
C     0.4046817  0.75754  0.70232     C
C     0.4141216  0.30554  0.54232     C
C     0.4141216  0.69454  0.04232     C
C     0.4157114  0.37394  0.22252     C
C     0.4157114  0.62614  0.72252     C
H       0.4284   0.1754    0.231     H
H       0.4284   0.8246    0.731     H
C     0.4422216  0.43584  0.08272     C
C     0.4422216  0.56424  0.58272     C
H       0.4509   0.3466   0.0955     H
H       0.4509   0.6534   0.5955     H
C     0.4613618  0.33305  0.60662     C
C     0.4613618  0.66705  0.10662     C
N     0.4654316  0.39874 0.2898718     N
N     0.4654316  0.60134 0.7898718     N
N     0.4753116  0.48634  0.80572     N
N     0.4753116  0.51374  0.30572     N
C     0.4753814  0.46294  0.62692     C
C     0.4753814  0.53714  0.12692     C
H       0.4834   0.2639   0.6358     H
H       0.4834   0.7361   0.1358     H
H       0.5166   0.2639   0.8642     H
H       0.5166   0.7361   0.3642     H
C     0.5246214  0.46294  0.87312     C
C     0.5246214  0.53714  0.37312     C
N     0.5246916  0.48634  0.69432     N
N     0.5246916  0.51374  0.19432     N
N     0.5345716  0.39874 0.2101318     N
N     0.5345716  0.60134 0.7101318     N
C     0.5386418  0.33305  0.89342     C
C     0.5386418  0.66705  0.39342     C
H       0.5491   0.3466   0.4045     H
H       0.5491   0.6534   0.9045     H
C     0.5577816  0.43584  0.41732     C
C     0.5577816  0.56424  0.91732     C
H       0.5716   0.1754    0.269     H
H       0.5716   0.8246    0.769     H
C     0.5842914  0.37394  0.27752     C
C     0.5842914  0.62614  0.77752     C
C     0.5858816  0.30554  0.95772     C
C     0.5858816  0.69454  0.45772     C
C     0.5953217  0.24254  0.29772     C
C     0.5953217  0.75754  0.79772     C
H       0.5955   0.2168   0.9709     H
H       0.5955   0.7832   0.4709     H
C     0.6041914  0.47104  0.48112     C
C     0.6041914  0.52904  0.98112     C
H       0.6133   0.4378   0.8084     H
H       0.6133   0.5622   0.3084     H
N     0.6182911  0.40204 0.0015913     N
N     0.6182911  0.59804 0.5015913     N
C     0.6202314  0.47254 0.3209518     C
C     0.6202314  0.52754 0.8209518     C
H       0.6267   0.4034   0.5111     H
H       0.6267   0.5966   0.0111     H
H       0.6327   0.4117   0.1388     H
H       0.6327   0.5883   0.6388     H
H       0.6385   0.2675   0.1442     H
H       0.6385   0.7325   0.6442     H
O     0.642511  0.13184 0.5182014     O
O     0.642511  0.86824 0.0182014     O
C     0.6425514  0.21194 0.3618718     C
C     0.6425514  0.78814 0.8618718     C
H         0.65   0.1228   0.3757     H
H         0.65   0.8772   0.8757     H
N     0.6564711  0.34482 0.1538013     N
N     0.6564711  0.65522 0.6538013     N
C     0.6666913  0.43264 0.3836316     C
C     0.6666913  0.56744 0.8836316     C
N     0.677891  0.30474 0.4046512     N
N     0.677891  0.69534 0.9046512     N
O     0.684571  0.14252 0.0790713     O
O     0.684571  0.85752 0.5790713     O
C     0.6896011  0.11204 0.5430614     C
C     0.6896011  0.88804 0.0430614     C
Ni    0.69061115 0.350133 0.09365418    Ni
Ni    0.69061115 0.649873 0.59365418    Ni
H       0.6914   0.4977   0.4127     H
H       0.6914   0.5023   0.9127     H
C     0.6933912  0.35594 0.2292616     C
C     0.6933912  0.64414 0.7292616     C
H       0.6984   0.4425   0.7322     H
H       0.6984   0.5575   0.2322     H
H       0.7015   0.1585    0.251     H
H       0.7015   0.8415    0.751     H
O     0.709299  0.08762 0.507051     O
O     0.709299  0.91242 0.007051     O
C     0.7118312  0.48124 0.2602914     C
C     0.7118312  0.51884 0.7602914     C
C     0.7131012  0.24264 0.2715116     C
C     0.7131012  0.75744 0.7715116     C
O     0.718901  0.46642 0.6340111     O
O     0.718901  0.53362 0.1340111     O
O     0.7235611  0.36172 0.0338613     O
O     0.7235611  0.63832 0.5338613     O
O     0.728669  0.37362 0.5532611     O
O     0.728669  0.62642 0.0532611     O
C     0.7297212  0.12924 0.1373616     C
C     0.7297212  0.87084 0.6373616     C
C     0.7300311  0.12054 0.6234014     C
C     0.7300311  0.87954 0.1234014     C
C     0.7312011  0.37034 0.6107514     C
C     0.7312011  0.62974 0.1107514     C
O     0.743589  0.26852 0.8285512     O
O     0.743589  0.73152 0.3285512     O
C     0.7496412  0.24562 0.6550516     C
C     0.7496412  0.75442 0.1550516     C
C     0.7498711  0.00694 0.6669414     C
C     0.7498711  0.99314 0.1669414     C
Ni        0.75     0.25      0.5    Ni
Ni        0.75     0.75      0.0    Ni
C     0.7501311  0.49314 0.3330614     C
C     0.7501311  0.50694 0.8330614     C
C     0.7503612  0.25442 0.3449516     C
C     0.7503612  0.74562 0.8449516     C
O     0.756429  0.23152 0.1714512     O
O     0.756429  0.76852 0.6714512     O
C     0.7688011  0.12974 0.3892514     C
C     0.7688011  0.87034 0.8892514     C
C     0.7699711  0.37954 0.3766014     C
C     0.7699711  0.62054 0.8766014     C
C     0.7702812  0.37084 0.8626416     C
C     0.7702812  0.62924 0.3626416     C
O     0.771349  0.12642 0.4467411     O
O     0.771349  0.87362 0.9467411     O
O     0.7764411  0.13832 0.9661413     O
O     0.7764411  0.86172 0.4661413     O
O     0.781101  0.03362 0.3659911     O
O     0.781101  0.96642 0.8659911     O
C     0.7869012  0.25744 0.7284916     C
C     0.7869012  0.74264 0.2284916     C
C     0.7881712  0.01884 0.7397114     C
C     0.7881712  0.98124 0.2397114     C
O     0.790719  0.41242 0.492951     O
O     0.790719  0.58762 0.992951     O
H       0.7985   0.3415    0.749     H
H       0.7985   0.6585    0.249     H
H       0.8016   0.0575   0.2678     H
H       0.8016   0.9425   0.7678     H
C     0.8066112  0.14414 0.7707416     C
C     0.8066112  0.85594 0.2707416     C
H       0.8086   0.0023   0.5873     H
H       0.8086   0.9977   0.0873     H
Ni    0.80938915 0.149873 0.90634618    Ni
Ni    0.80938915 0.850133 0.40634618    Ni
C     0.8104011  0.38804 0.4569414     C
C     0.8104011  0.61204 0.9569414     C
O     0.815431  0.35752 0.9209313     O
O     0.815431  0.64252 0.4209313     O
N     0.822111  0.19534 0.5953512     N
N     0.822111  0.80474 0.0953512     N
C     0.8333113  0.06744 0.6163716     C
C     0.8333113  0.93264 0.1163716     C
N     0.8435311  0.15522 0.8462013     N
N     0.8435311  0.84482 0.3462013     N
H         0.85   0.3772   0.6243     H
H         0.85   0.6228   0.1243     H
C     0.8574514  0.28814 0.6381318     C
C     0.8574514  0.71194 0.1381318     C
O     0.857491  0.36824 0.4818014     O
O     0.857491  0.63184 0.9818014     O
H       0.8615   0.2325   0.8558     H
H       0.8615   0.7675   0.3558     H
H       0.8673   0.0883   0.8612     H
H       0.8673   0.9117   0.3612     H
H       0.8733   0.0966   0.4889     H
H       0.8733   0.9034   0.9889     H
C     0.8797714  0.02754 0.6790518     C
C     0.8797714  0.97254 0.1790518     C
N     0.8817111  0.09804 0.9984113     N
N     0.8817111  0.90204 0.4984113     N
H       0.8867   0.0622   0.1916     H
H       0.8867   0.9378   0.6916     H
C     0.8958114  0.02904  0.51892     C
C     0.8958114  0.97104  0.01892     C
H       0.9045   0.2832   0.0291     H
H       0.9045   0.7168   0.5291     H
C     0.9046817  0.25754  0.70232     C
C     0.9046817  0.74254  0.20232     C
C     0.9141216  0.19454  0.04232     C
C     0.9141216  0.80554  0.54232     C
C     0.9157114  0.12614  0.72252     C
C     0.9157114  0.87394  0.22252     C
H       0.9284   0.3246    0.731     H
H       0.9284   0.6754    0.231     H
C     0.9422216  0.06424  0.58272     C
C     0.9422216  0.93584  0.08272     C
H       0.9509   0.1534   0.5955     H
H       0.9509   0.8466   0.0955     H
C     0.9613618  0.16705  0.10662     C
C     0.9613618  0.83305  0.60662     C
N     0.9654316  0.10134 0.7898718     N
N     0.9654316  0.89874 0.2898718     N
N     0.9753116  0.01374  0.30572     N
N     0.9753116  0.98634  0.80572     N
C     0.9753814  0.03714  0.12692     C
C     0.9753814  0.96294  0.62692     C
H       0.9834   0.2361   0.1358     H
H       0.9834   0.7639   0.6358     H
