data_I
_chemical_name_common  'val_10'
_cell_length_a  7.85567
_cell_length_b 10.76471
_cell_length_c 22.54120
_cell_angle_alpha 90.00000
_cell_angle_beta  97.52490
_cell_angle_gamma 90.00000
_space_group_name_H-M_alt      'P 1'


loop_
_space_group_symop_operation_xyz
  'x, y, z' 

loop_
_atom_site_label
_atom_site_fract_x
_atom_site_fract_y
_atom_site_fract_z
_atom_site_type_symbol
Cu    -0.517026 1.862924 -0.485482    Cu
Cu    -0.482986 1.137084 -0.514522    Cu
O     -0.35224  1.27982 -0.4792913     O
O     -0.35114  1.73752 -0.4569316     O
H     -0.309937 1.512191 -0.459281     H
C     -0.19795  1.27774 -0.4574817     C
C     -0.19395  1.73944 -0.4391517     C
C     -0.19345  1.50944 -0.4451316     C
O     -0.14894  1.23752 -0.0430716     O
Cu    -0.129706 1.006024 -0.453462    Cu
Cu    -0.129706 2.006024 -0.453462    Cu
O     -0.12374  1.50872 -0.0425912     O
C     -0.10755  1.39674 -0.4396316     C
O     -0.10504  1.18342 -0.4491913     O
O     -0.10434  1.83492 -0.4285514     O
C     -0.10315  1.61874 -0.4292016     C
Cu    -0.017026 0.637084 0.014522    Cu
Cu    0.017026 0.362924 -0.014522    Cu
Cu    0.017026 1.362924 -0.014522    Cu
H     0.018682   1.1857 -0.262322     H
H     0.061662 1.140983 -0.358365     H
C      0.06635  1.39424 -0.4184116     C
C      0.06885  1.61384 -0.4080716     C
C      0.07445  1.11254 -0.2702218     C
H     0.094648 1.027116 -0.084326     H
O      0.09764  1.07144 -0.1689512     O
C      0.09975  1.08564 -0.3278118     C
H       0.1056   0.4734   0.0692     H
H     0.118759 0.912593 -0.125266     H
H     0.123721 1.318498 -0.415013     H
O      0.12374  0.49132 0.0425912     O
O      0.12524  1.00572 -0.4469611     O
H      0.12773  1.68708 -0.397526     H
Cu    0.129706 0.993984 -0.546542    Cu
C      0.13015  1.03264 -0.2235218     C
O      0.14784  1.22022 0.0207113     O
O      0.14894  0.76252 0.0430716     O
C      0.15295  0.99814 -0.1171117     C
C      0.15595  1.50224 -0.4021816     C
O      0.15904  1.38282 -0.0899912     O
C      0.18155  0.97674 -0.3410917     C
H     0.190063 0.987809 0.040719     H
C      0.20905  0.92184 -0.2365818     C
H     0.210578 1.323058 -0.19706     H
C      0.21885  0.95114 -0.4033017     C
C      0.23465  0.89654 -0.2947718     C
H     0.244157 0.865255 -0.206262     H
H     0.255843 1.365255 -0.293738     H
C      0.26545  1.39654 -0.2052318     C
C      0.28125  1.45114 -0.0967017     C
H     0.289422 0.823058 -0.30294     H
C      0.29105  1.42184 -0.2634218     C
C      0.30215  1.22234 0.0425217     C
C      0.30615  0.76064 0.0608517     C
C      0.30665  0.99064 0.0548716     C
C      0.31855  1.47674 -0.1589117     C
O      0.34104  0.88282 -0.4100112     O
C      0.34415  1.00224 -0.0978216     C
C      0.34715  1.49814 -0.3828917     C
C      0.36995  1.53264 -0.2764818     C
Cu    0.370306 0.493984 0.046542    Cu
Cu    0.370306 1.493984 0.046542    Cu
H      0.37227  1.18708 -0.102474     H
O      0.37484  0.50572 -0.0530411     O
H     0.376279 0.818498 -0.084987     H
H     0.381241 1.412593 -0.374734     H
C      0.39255  1.10334 0.0603716     C
O      0.39504  0.31662 0.0508113     O
O      0.39574  0.66512 0.0714514     O
C      0.39695  0.88134 0.0708016     C
C      0.40035  1.58564 -0.1721918     C
O      0.40244  1.57144 -0.3310512     O
H     0.405352 1.527116 -0.415674     H
C      0.42565  1.61254 -0.2297818     C
C      0.43125  1.11384 -0.0919316     C
C      0.43375  0.89424 -0.0815916     C
H     0.438338 1.640983 -0.141635     H
H     0.481318   1.6857 -0.237678     H
Cu    0.482986 0.862924 -0.485482    Cu
Cu    0.517026 1.137084 0.485482    Cu
H     0.518682   0.3143 0.237678     H
H     0.561662 0.359017 0.141635     H
C      0.56635  1.10584 0.0815916     C
C      0.56885  0.88624 0.0919316     C
C      0.57445  0.38754 0.2297818     C
H     0.594648 0.472884 0.415674     H
O      0.59764  0.42864 0.3310512     O
C      0.59975  0.41444 0.1721918     C
C      0.60315  1.11874 -0.0708016     C
O      0.60434  1.33492 -0.0714514     O
O      0.60504  0.68342 -0.0508113     O
C      0.60755  0.89674 -0.0603716     C
H     0.618759 0.587407 0.374734     H
H     0.623721 1.181502 0.084987     H
O      0.62524  0.49432 0.0530411     O
H      0.62773  0.81292 0.102474     H
Cu    0.629706 0.506024 -0.046542    Cu
Cu    0.629706 1.506024 -0.046542    Cu
C      0.63015  0.46744 0.2764818     C
C      0.65295  0.50194 0.3828917     C
C      0.65595  0.99784 0.0978216     C
O      0.65904  1.11722 0.4100112     O
C      0.68155  0.52334 0.1589117     C
C      0.69345  1.00944 -0.0548716     C
C      0.69395  1.23944 -0.0608517     C
C      0.69795  0.77774 -0.0425217     C
C      0.70905  0.57824 0.2634218     C
H     0.710578 1.176942  0.30294     H
C      0.71885  0.54894 0.0967017     C
C      0.73465  0.60354 0.2052318     C
H     0.744157 0.634745 0.293738     H
H     0.755843 1.134745 0.206262     H
C      0.76545  1.10354 0.2947718     C
C      0.78125  1.04894 0.4033017     C
H     0.789422 0.676942  0.19706     H
C      0.79105  1.07824 0.2365818     C
H     0.809937 1.012191 -0.040719     H
C      0.81855  1.02334 0.3410917     C
O      0.84104  0.61722 0.0899912     O
C      0.84415  0.49784 0.4021816     C
C      0.84715  1.00194 0.1171117     C
O      0.85224  0.77982 -0.0207113     O
C      0.86995  0.96744 0.2235218     C
Cu    0.870306 1.006024 0.546542    Cu
H      0.87227  0.31292 0.397526     H
O      0.87484 -0.00572 0.4469611     O
H     0.876279 0.681502 0.415013     H
H     0.881241 1.087407 0.125266     H
H       0.8956   1.5274  -0.0692     H
C      0.90035  0.91444 0.3278118     C
O      0.90244  0.92864 0.1689512     O
H     0.905352 0.972884 0.084326     H
C      0.92565  0.88754 0.2702218     C
C      0.93125  0.38624 0.4080716     C
C      0.93375  0.60584 0.4184116     C
H     0.938338 0.859017 0.358365     H
H     0.981318   0.8143 0.262322     H
Cu    0.982986 0.637084 0.014522    Cu
Cu    0.982986 1.637084 0.014522    Cu
Cu    1.017026 1.362924 -0.014522    Cu
C      1.10315  0.38134 0.4292016     C
O      1.10434  0.16512 0.4285514     O
O      1.10504 -0.18342 0.4491913     O
C      1.10755  0.60334 0.4396316     C
Cu    1.129706 -0.006024 0.453462    Cu
Cu    1.129706 0.993984 0.453462    Cu
C      1.19345  0.49064 0.4451316     C
C      1.19395  0.26064 0.4391517     C
C      1.19795  0.72234 0.4574817     C
H     1.309937 0.487809 0.459281     H
O      1.35114  0.26252 0.4569316     O
O      1.35224 -0.27982 0.4792913     O
O      1.37634 -0.00872 0.4574112     O
H       1.3956  -0.0274   0.4312     H
Cu    1.482986 -0.137084 0.514522    Cu
Cu    1.482986 0.862924 0.514522    Cu
Cu    1.517026 0.137084 0.485482    Cu
H       1.6056   0.0274   0.5692     H
O      1.62374  0.00872 0.5425912     O
O      1.64784  0.27982 0.5207113     O
O      1.64894 -0.26252 0.5430716     O
Cu    1.870306 0.006024 0.546542    Cu
O      1.89504  0.18342 0.5508113     O
O      1.89574 -0.16512 0.5714514     O
O      2.12524  0.00572 0.5530411     O
