data_I
_chemical_name_common  'val_34'
_cell_length_a  7.26855
_cell_length_b 14.69541
_cell_length_c 19.35752
_cell_angle_alpha 78.96260
_cell_angle_beta  79.28050
_cell_angle_gamma 75.78850
_space_group_name_H-M_alt      'P 1'


loop_
_space_group_symop_operation_xyz
  'x, y, z' 

loop_
_atom_site_label
_atom_site_fract_x
_atom_site_fract_y
_atom_site_fract_z
_atom_site_type_symbol
H     -0.564801  1.35999 0.289858     H
H     -0.554258  1.50888 0.329089     H
C     -0.52038  1.35874  0.34084     C
C     -0.51311  1.44084  0.36254     C
H     -0.491366   1.0241 0.355385     H
O     -0.48695  1.19114  0.36544     O
Eu    -0.480002 0.758182 0.289502    Eu
C     -0.47007  1.27484  0.38494     C
C     -0.45378  1.43734  0.42674     C
H     -0.440021  1.50281 0.441703     H
C     -0.42107  1.27444  0.45044     C
N     -0.41211  1.35544  0.47144     N
H     -0.388814  1.20734 0.485924     H
O     -0.35064 0.8385016 0.3697512     O
C     -0.34705  1.03744  0.34362     C
C     -0.31885  1.12594  0.34774     C
C     -0.25064  0.87632 0.3192716     C
O     -0.22834 0.6747113 0.212131     O
H     -0.222125 0.834619 0.123036     H
O     -0.21454 0.8471313 0.258141     O
C     -0.19244  0.96552 0.3245617     C
C     -0.13655  1.14344  0.33324     C
H     -0.114754  1.21345  0.33542     H
O     -0.08674 0.8032218 0.1083112     O
H     -0.083204 0.750409 0.082523     H
Eu    -0.067342 0.257842 0.789422    Eu
O     -0.05194 0.4226216 0.7989614     O
H     -0.0509953 0.584544 0.807334     H
C     -0.00584  0.98192 0.3118318     C
H     -0.00128207  1.00251 0.940203     H
O      0.01154 0.6661014 0.3328211     O
C      0.01785  1.07172  0.31592     C
O      0.05194 0.5773816 0.2010414     O
Eu    0.067342 0.742162 0.210582    Eu
H     0.0684764 0.712025  0.83859     H
N      0.08818  0.85554  0.97222     N
C      0.09338  0.93664  0.92644     C
C      0.09625  0.57054  0.81792     C
C      0.12474  0.40632 0.7984616     C
O      0.15854 0.8257413 0.2878511     O
H      0.16162  1.08564 0.305158     H
C      0.16187  0.64204  0.83604     C
C      0.17194  0.90692 0.2977416     C
H     0.182846  1.20447 0.173216     H
H     0.198162 0.707499 0.988318     H
C      0.19927  0.77404  0.95214     C
C      0.21334  0.48092  0.81282     C
C      0.21438  0.93874  0.86284     C
O      0.21454 0.1528713 0.741861     O
O      0.21564 0.8645816 0.1391211     O
H     0.222565  1.00639 0.829039     H
O      0.22834 0.3252913 0.787871     O
H     0.232247 0.750733 0.412341     H
H     0.253448  1.31452 0.0632372     H
C     0.256614  1.17537  0.12534     C
H     0.265186  1.03386 0.177154     H
O      0.28144 0.3633516 0.6385611     O
C     0.301413  1.07975  0.12774     C
C     0.301514  1.23827  0.06355     C
C      0.31347  0.77304  0.88714     C
O      0.32424 0.6972518 0.3917612     O
C      0.32437  0.85634  0.84174     C
O      0.33154 0.9232116 0.2982114     O
C      0.34735  0.62374  0.85084     C
O      0.35064 0.1615016 0.6302512     O
O      0.35634 0.6629916 0.1299111     O
C      0.38494  0.87412 0.1274716     C
H      0.38594 0.478101 0.142217     H
O      0.39054 0.6531913 0.241391     O
C      0.40235  1.03602 0.0614718     C
C      0.40344  0.46432 0.8258118     C
C     0.405211  1.20435  0.00364     C
H      0.40625 0.659834 0.427596     H
H     0.417441 0.856618 0.790646     H
O      0.43235  0.68874  0.86964     O
C      0.44404  0.62482 0.1802916     C
C      0.44504  0.93902 0.0613316     C
H     0.451662  1.25387 -0.0419387     H
C      0.45665  1.09852 -0.0003917     C
C      0.46825  0.53554  0.84592     C
Eu    0.480002 0.241822 0.710502    Eu
Eu    0.480002 1.241822 -0.289502    Eu
O      0.48914 0.1665314 0.8330511     O
O      0.51094 0.8334714 0.1669511     O
Eu    0.520002 0.758182 0.289502    Eu
C      0.53185  0.46454  0.15412     C
C      0.54345  0.90152 0.0003917     C
C      0.55504  1.06102 -0.0613316     C
C      0.55604  0.37522 0.8197116     C
O      0.56775  0.31134  0.13044     O
H     0.578141 0.825089 0.000311764     H
H     0.582559 0.143382 0.209354     H
C      0.59664  0.53572 0.1741918     C
C      0.59775  0.96402 -0.0614718     C
O      0.60954 0.3468113 0.758611     O
H      0.61406 0.521899 0.857783     H
C      0.61514  1.12592 -0.1274716     C
O      0.64374 0.3370116 0.8700911     O
C      0.65275  0.37634  0.14924     C
O      0.66854 0.0767916 0.7017914     O
H     0.673509 0.935372 -0.109373     H
C      0.67577  0.14374  0.15834     C
O      0.67584 0.3027518 0.6082412     O
C      0.68667  0.22704  0.11294     C
O      0.71864 0.6366516 0.3614411     O
H     0.747734 0.344283 0.621916     H
H     0.767753 0.249267 0.587659     H
H     0.777435 -0.0063869 0.170961     H
O      0.78444 0.1354216 0.8608811     O
C      0.78578  0.06134  0.13724     C
C      0.78674  0.51912  0.18722     C
C      0.80087  0.22604  0.04794     C
H     0.801838 0.292501 0.0116819     H
C      0.82814  0.09312 0.7022616     C
C      0.83827  0.35804  0.16404     C
H      0.83838 -0.0856381 0.694842     H
O      0.84154 0.1742613 0.7121511     O
C      0.87534  0.59372 0.2015416     C
C      0.88684  0.62612 0.3725516     C
H     0.897088 0.674449 0.500454     H
C      0.90385  0.42954  0.18212     C
C      0.90678  0.06344  0.07364     C
N      0.91198  0.14454  0.02782     N
H     0.931524 0.287975  0.16141     H
Eu    0.932662 0.257842 0.789422    Eu
Eu    0.932662 1.257842 -0.210582    Eu
C      0.94205  0.59822 0.4999017     C
C      0.94544  0.56132 0.4387316     C
C      0.98225 -0.07172  0.68412     C
H     0.982606 0.467446 0.321753     H
O      0.98854 0.3339014 0.6671811     O
H     0.995358 0.564245 0.610006     H
C      0.99765  0.53572 0.5618518     C
H      1.00128 -0.00250896 0.0597973     H
C      1.00245  0.46432 0.4381518     C
C      1.00584  0.01812 0.6881718     C
C     1.014913  0.42125  0.37114     C
H      1.01924 0.149812 0.923433     H
H        1.051 0.415456 0.192666     H
C      1.05464  0.43872 0.5612716     C
C      1.05805  0.40182 0.5001017     C
C     1.066415  0.32497  0.37275     C
Eu    1.067342 0.742162 0.210582    Eu
H      1.07131 0.295454   0.3247     H
O      1.08674 0.1967818 0.8916912     O
C      1.11324  0.37392 0.6274516     C
C     1.113715  0.26247  0.43585     C
H      1.11475 -0.213451  0.66458     H
C     1.117913  0.29605  0.49554     C
C      1.13655 -0.14344  0.66684     C
H      1.14715 0.185972 0.435886     H
H      1.16523 0.246325 0.541502     H
C      1.19244  0.03452 0.6754417     C
H      1.22213 0.165381 0.876964     H
C      1.25064  0.12372 0.6807316     C
C      1.31885 -0.12594  0.65234     C
C      1.34705 -0.03744  0.65642     C
H      1.38881 -0.20734 0.514076     H
N      1.41211 -0.35544  0.52864     N
C      1.42107 -0.27444  0.54964     C
H      1.44002 -0.502813 0.558297     H
C      1.45378 -0.43734  0.57334     C
C      1.47007 -0.27484  0.61514     C
Eu    1.480002 0.241822 0.710502    Eu
O      1.48695 -0.19114  0.63464     O
H      1.49137 -0.0240988 0.644615     H
C      1.51311 -0.44084  0.63754     C
C      1.52038 -0.35874  0.65924     C
H      1.55426 -0.508879 0.670911     H
H       1.5648 -0.359987 0.710142     H
