data_I
_chemical_name_common  'val_43'
_cell_length_a  9.24772
_cell_length_b 10.11922
_cell_length_c 21.71505
_cell_angle_alpha 90.00000
_cell_angle_beta  100.54220
_cell_angle_gamma 90.00000
_space_group_name_H-M_alt      'P 1'


loop_
_space_group_symop_operation_xyz
  'x, y, z' 

loop_
_atom_site_label
_atom_site_fract_x
_atom_site_fract_y
_atom_site_fract_z
_atom_site_type_symbol
O      0.00594  0.02994 0.3869811     O
O      0.00594  0.47014 0.8869811     O
H     0.041436 0.101115 0.265585     H
H     0.041436 0.398885 0.765585     H
O      0.05664  0.24964 0.1486911     O
O      0.05664  0.25044 0.6486911     O
C      0.09964  0.17204 0.2852117     C
C      0.09964  0.32804 0.7852117     C
C      0.10404  0.11694 0.4024516     C
C      0.10404  0.38314 0.9024516     C
O      0.10904  0.13744 0.0352211     O
O      0.10904  0.36264 0.5352211     O
O      0.11274  0.62684 0.0032012     O
O      0.11274  0.87324 0.5032012     O
Tb    0.116572 0.125402 0.559702    Tb
Tb    0.116572 0.374602 0.059702    Tb
H     0.141797 0.616875 0.525516     H
H     0.141797 0.883125 0.025516     H
C      0.14234  0.19494 0.3487016     C
C      0.14234  0.30514 0.8487016     C
C      0.15284  0.19144 0.6891316     C
C      0.15284  0.30864 0.1891316     C
C      0.16074  0.22424 0.7562216     C
C      0.16074  0.27584 0.2562216     C
O      0.16964  0.14104 0.4564711     O
O      0.16964  0.35904 0.9564711     O
N      0.22164  0.19294 0.8543713     N
N      0.22164  0.30714 0.3543713     N
N      0.23574  0.14084 0.7988213     N
N      0.23574  0.35924 0.2988213     N
H     0.237012 0.147655 0.945994     H
H     0.237012 0.352345 0.445994     H
O      0.23874  0.10722 0.6728011     O
O      0.23874  0.39282 0.1728011     O
C      0.24284  0.63364 0.0339616     C
C      0.24284  0.86644 0.5339616     C
C      0.24494  0.12924 0.0564416     C
C      0.24494  0.37084 0.5564416     C
C      0.24554  0.61874 0.5389416     C
C      0.24554  0.88134 0.0389416     C
H     0.247402 0.021222 0.902697     H
H     0.247402 0.478778 0.402697     H
C      0.27904  0.11424 0.9101916     C
C      0.27904  0.38584 0.4101916     C
O      0.30534  0.53514 0.0619512     O
O      0.30534  0.96494 0.5619512     O
O      0.32104  0.22794 0.0774912     O
O      0.32104  0.27214 0.5774912     O
C      0.32304  0.73824 0.5419116     C
C      0.32304  0.76184 0.0419116     C
C      0.32344  0.50244 0.5560516     C
C      0.32344  0.99764 0.0560516     C
C      0.44544  0.11964 0.9266716     C
C      0.44544  0.38044 0.4266716     C
H     0.467934 0.183059 0.441415     H
H     0.467934 0.316941 0.941415     H
H      0.47223 0.576916 0.415504     H
H      0.47223 0.923084 0.915504     H
C      0.47674  0.50344 0.5730316     C
C      0.47674  0.99664 0.0730316     C
C      0.47894  0.73654 0.5581516     C
C      0.47894  0.76354 0.0581516     C
C      0.52114  0.23654 0.9418516     C
C      0.52114  0.26354 0.4418516     C
C      0.52334  0.00344 0.9269716     C
C      0.52334  0.49664 0.4269716     C
H      0.52777 0.076916 0.084496     H
H      0.52777 0.423084 0.584496     H
H     0.532066 0.683059 0.058585     H
H     0.532066 0.816941 0.558585     H
C      0.55464  0.61964 0.5733316     C
C      0.55464  0.88044 0.0733316     C
C      0.67664  0.00244 0.9439516     C
C      0.67664  0.49764 0.4439516     C
C      0.67704  0.23824 0.9580916     C
C      0.67704  0.26184 0.4580916     C
O      0.67904  0.72794 0.4225112     O
O      0.67904  0.77214 0.9225112     O
O      0.69474  0.03514 0.4380512     O
O      0.69474  0.46494 0.9380512     O
C      0.72104  0.61424 0.5898116     C
C      0.72104  0.88584 0.0898116     C
H     0.752598 0.521222 0.597303     H
H     0.752598 0.978778 0.097303     H
C      0.75454  0.11874 0.9610616     C
C      0.75454  0.38134 0.4610616     C
C      0.75514  0.62924 0.4435616     C
C      0.75514  0.87084 0.9435616     C
C      0.75724  0.13364 0.4660416     C
C      0.75724  0.36644 0.9660416     C
O      0.76134  0.60722 0.8272011     O
O      0.76134  0.89282 0.3272011     O
H     0.762988 0.647655 0.554006     H
H     0.762988 0.852345 0.054006     H
N      0.76434  0.64084 0.7011813     N
N      0.76434  0.85924 0.2011813     N
N      0.77844  0.69294 0.6456313     N
N      0.77844  0.80714 0.1456313     N
O      0.83044  0.64104 0.0435311     O
O      0.83044  0.85904 0.5435311     O
C      0.83934  0.72424 0.7437816     C
C      0.83934  0.77584 0.2437816     C
C      0.84724  0.69144 0.8108716     C
C      0.84724  0.80864 0.3108716     C
C      0.85774  0.69494 0.1513016     C
C      0.85774  0.80514 0.6513016     C
H     0.858203 0.116875 0.974484     H
H     0.858203 0.383125 0.474484     H
Tb    0.883432 0.625402 0.940302    Tb
Tb    0.883432 0.874602 0.440302    Tb
O      0.88734  0.12684 0.4968012     O
O      0.88734  0.37324 0.9968012     O
O      0.89104  0.63744 0.4647811     O
O      0.89104  0.86264 0.9647811     O
C      0.89604  0.61694 0.0975516     C
C      0.89604  0.88314 0.5975516     C
C      0.90044  0.67204 0.2147917     C
C      0.90044  0.82804 0.7147917     C
O      0.94344  0.74964 0.3513111     O
O      0.94344  0.75044 0.8513111     O
H     0.958564 0.601115 0.234415     H
H     0.958564 0.898885 0.734415     H
O      0.99414  0.52994 0.1130211     O
O      0.99414  0.97014 0.6130211     O
