data_I
_chemical_name_common  'val_32'
_cell_length_a 17.79155
_cell_length_b 22.19587
_cell_length_c 12.52104
_cell_angle_alpha 90.00000
_cell_angle_beta  108.91730
_cell_angle_gamma 90.00000
_space_group_name_H-M_alt      'P 1'


loop_
_space_group_symop_operation_xyz
  'x, y, z' 

loop_
_atom_site_label
_atom_site_fract_x
_atom_site_fract_y
_atom_site_fract_z
_atom_site_type_symbol
O       0.0142 0.252111   0.6573     O
O       0.0142 0.747911   0.1573     O
H       0.0201   0.4445   0.4116     H
H       0.0201   0.5555   0.9116     H
C       0.0283   0.2572   0.7684     C
C       0.0283   0.7432   0.2684     C
H       0.0294    0.273   0.9755     H
H       0.0294    0.727   0.4755     H
O     0.029415 0.152411   0.5132     O
O     0.029415 0.847611   0.0132     O
O     0.031316 0.347911   0.5132     O
O     0.031316 0.652111   0.0132     O
C     0.044114  0.06648   0.6292     C
C     0.044114  0.93368   0.1292     C
O     0.054514  0.24378   0.3572     O
O     0.054514  0.75638   0.8572     O
C     0.054713  0.01009 0.270216     C
C     0.054713  0.99009 0.770216     C
C       0.0662 0.131113   0.5963     C
C       0.0662 0.868913   0.0963     C
C     0.067313  0.46179   0.4572     C
C     0.067313  0.53839   0.9572     C
H       0.0676   0.4681   0.8542     H
H       0.0676   0.5319   0.3542     H
H       0.0811   0.0263   0.3408     H
H       0.0811   0.9737   0.8408     H
C     0.083613  0.04209   0.7352     C
C     0.083613  0.95809   0.2352     C
C       0.0872 0.375014   0.5773     C
C       0.0872 0.625014   0.0773     C
O     0.093716  0.26071   0.8392     O
O     0.093716  0.73931   0.3392     O
C     0.095813  0.48609 0.922617     C
C     0.095813  0.51409 0.422617     C
C     0.109514  0.43508   0.5592     C
C     0.109514  0.56508   0.0592     C
C       0.1282 0.242713   0.4224     C
C       0.1282 0.757313   0.9224     C
O     0.128916 0.155011   0.6762     O
O     0.128916 0.845011   0.1762     O
H       0.1291   0.2493   0.2094     H
H       0.1291   0.7507   0.7094     H
H       0.1293   0.0604   0.7821     H
H       0.1293   0.9396   0.2821     H
O     0.132014 0.346111   0.6762     O
O     0.132014 0.653911   0.1762     O
O     0.141217  0.24889   0.5252     O
O     0.141217  0.75129   0.0252     O
C     0.166411  0.46037 0.990615     C
C     0.166411  0.53977 0.490615     C
H       0.1666   0.3902   0.8877     H
H       0.1666   0.6098   0.3877     H
H       0.1773   0.0066   0.0683     H
H       0.1773   0.9934   0.5683     H
H       0.1786   0.1023   0.9944     H
H       0.1786   0.8977   0.4944     H
C     0.180114  0.46068   0.6272     C
C     0.180114  0.53948   0.1272     C
C      0.18131  0.24599 0.257317     C
C      0.18131  0.75419 0.757317     C
Th    0.193544 0.250345 0.730234    Th
Th    0.193544 0.749665 0.230234    Th
C     0.194814  0.40808   0.9562     C
C     0.194814  0.59208   0.4562     C
C      0.19701  0.24119 0.373217     C
C      0.19701  0.75899 0.873217     C
H       0.2083   0.4428   0.6958     H
H       0.2083   0.5572   0.1958     H
C     0.208511  0.48707 0.092915     C
C     0.208511  0.51307 0.592915     C
C     0.224115  0.02209   0.0612     C
C     0.224115  0.97809   0.5612     C
C     0.224815  0.07949   0.0172     C
C     0.224815  0.92069   0.5172     C
H        0.233   0.2488   0.1354     H
H        0.233   0.7512   0.6354     H
O     0.236815 0.185313   0.8943     O
O     0.236815 0.814713   0.3943     O
C     0.243511  0.24569 0.213017     C
C     0.243511  0.75449 0.713017     C
H       0.2457    0.085   0.6464     H
H       0.2457    0.915   0.1464     H
O     0.259516 0.308211   0.8812     O
O     0.259516 0.691811   0.3812     O
C     0.265414  0.38248   0.0242     C
C     0.265414  0.61768   0.5242     C
C      0.27491  0.23619 0.444817     C
C      0.27491  0.76399 0.944817     C
C     0.279113  0.46149 0.160818     C
C     0.279113  0.53869 0.660818     C
O     0.282817  0.31531   0.6612     O
O     0.282817  0.68471   0.1612     O
H       0.2854   0.2329   0.5223     H
H       0.2854   0.7671   0.0223     H
C     0.292515  0.06959   0.6392     C
C     0.292515  0.93059   0.1392     C
C     0.293215  0.01229   0.5952     C
C     0.293215  0.98789   0.0952     C
C     0.294715  0.10259   0.0072     C
C     0.294715  0.89759   0.5072     C
O     0.294815  0.18901   0.7122     O
O     0.294815  0.81101   0.2122     O
C       0.2983   0.1622   0.9604     C
C       0.2983   0.8382   0.4604     C
H        0.304   0.3892    0.512     H
H        0.304   0.6108    0.012     H
C       0.3052 0.332718   0.9723     C
C       0.3052 0.667318   0.4723     C
H       0.3073   0.4793   0.2293     H
H       0.3073   0.5207   0.7293     H
C     0.307613  0.40919   0.1262     C
C     0.307613  0.59099   0.6262     C
C      0.32141  0.24065 0.284517     C
C      0.32141  0.75945 0.784517     C
C      0.33711  0.23585 0.400417     C
C      0.33711  0.76425 0.900417     C
C     0.349713  0.40761   0.5592     C
C     0.349713  0.59241   0.0592     C
H       0.3522   0.4758   0.4533     H
H       0.3522   0.5242   0.9533     H
H       0.3548   0.3919   0.1719     H
H       0.3548   0.6081   0.6719     H
C       0.3552 0.334517   0.7143     C
C       0.3552 0.665517   0.2143     C
C     0.361616  0.10379   0.6732     C
C     0.361616  0.89639   0.1732     C
O     0.362418 0.188613   0.9733     O
O     0.362418 0.811413   0.4733     O
C     0.363115  0.01109   0.0852     C
C     0.363115  0.98909   0.5852     C
C       0.3632 0.162915   0.7313     C
C       0.3632 0.837115   0.2313     C
C     0.363915  0.06839   0.0412     C
C     0.363915  0.93179   0.5412     C
H       0.3731   0.2435   0.1627     H
H       0.3731   0.7565   0.6627     H
O     0.374015 0.318911   0.0192     O
O     0.374015 0.681111   0.5192     O
C     0.378613  0.45959 0.523917     C
C     0.378613  0.54059 0.023917     C
C     0.383611  0.24031 0.240218     C
C     0.383611  0.75971 0.740218     C
C     0.389214  0.38319   0.6652     C
C     0.389214  0.61699   0.1652     C
O     0.397418 0.309511   0.8042     O
O     0.397418 0.690511   0.3042     O
H       0.4107   0.0838   0.0337     H
H       0.4107   0.9162   0.5337     H
C      0.41501  0.23079 0.472017     C
C      0.41501  0.76939 0.972017     C
H       0.4255   0.2275   0.5495     H
H       0.4255   0.7725   0.0495     H
O     0.428913  0.18309   0.7902     O
O     0.428913  0.81709   0.2902     O
C     0.431515  0.08069   0.6632     C
C     0.431515  0.91949   0.1632     C
C     0.432315  0.02339   0.6192     C
C     0.432315  0.97679   0.1192     C
C     0.446911  0.48707 0.594315     C
C     0.446911  0.51307 0.094315     C
H       0.4493   0.4448   0.9884     H
H       0.4493   0.5552   0.4884     H
C     0.457514  0.41068 0.735018     C
C     0.457514  0.58948 0.235018     C
C     0.461511  0.23521   0.3122     C
C     0.461511  0.76481   0.8122     C
Th    0.465873 0.250405 0.959274    Th
Th    0.465873 0.749605 0.459274    Th
C     0.475714  0.46118 0.059118     C
C     0.475714  0.53898 0.559118     C
C      0.47721  0.23049   0.4282     C
C      0.47721  0.76969   0.9282     C
H       0.4778   0.1035   0.6856     H
H       0.4778   0.8965   0.1856     H
H       0.4791   0.0078   0.6118     H
H       0.4791   0.9922   0.1118     H
H       0.4839   0.3943   0.8056     H
H       0.4839   0.6057   0.3056     H
C     0.486411  0.46257 0.699815     C
C     0.486411  0.53757 0.199815     C
O       0.5142 0.247911   0.1573     O
O       0.5142 0.752111   0.6573     O
H       0.5201   0.0555   0.9116     H
H       0.5201   0.9445   0.4116     H
C       0.5283   0.2432   0.2684     C
C       0.5283   0.7572   0.7684     C
H       0.5294    0.227   0.4755     H
H       0.5294    0.773   0.9755     H
O     0.529415 0.347611   0.0132     O
O     0.529415 0.652411   0.5132     O
O     0.531316 0.152111   0.0132     O
O     0.531316 0.847911   0.5132     O
C     0.544114  0.43368   0.1292     C
C     0.544114  0.56648   0.6292     C
O     0.554514  0.25638   0.8572     O
O     0.554514  0.74378   0.3572     O
C     0.554713  0.49009 0.770216     C
C     0.554713  0.51009 0.270216     C
C       0.5662 0.368913   0.0963     C
C       0.5662 0.631113   0.5963     C
C     0.567313  0.03839   0.9572     C
C     0.567313  0.96179   0.4572     C
H       0.5676   0.0319   0.3542     H
H       0.5676   0.9681   0.8542     H
H       0.5811   0.4737   0.8408     H
H       0.5811   0.5263   0.3408     H
C     0.583613  0.45809   0.2352     C
C     0.583613  0.54209   0.7352     C
C       0.5872 0.125014   0.0773     C
C       0.5872 0.875014   0.5773     C
O     0.593716  0.23931   0.3392     O
O     0.593716  0.76071   0.8392     O
C     0.595813  0.01409 0.422617     C
C     0.595813  0.98609 0.922617     C
C     0.609514  0.06508   0.0592     C
C     0.609514  0.93508   0.5592     C
C       0.6282 0.257313   0.9224     C
C       0.6282 0.742713   0.4224     C
O     0.628916 0.345011   0.1762     O
O     0.628916 0.655011   0.6762     O
H       0.6291   0.2507   0.7094     H
H       0.6291   0.7493   0.2094     H
H       0.6293   0.4396   0.2821     H
H       0.6293   0.5604   0.7821     H
O     0.632014 0.153911   0.1762     O
O     0.632014 0.846111   0.6762     O
O     0.641217  0.25129   0.0252     O
O     0.641217  0.74889   0.5252     O
C     0.666411  0.03977 0.490615     C
C     0.666411  0.96037 0.990615     C
H       0.6666   0.1098   0.3877     H
H       0.6666   0.8902   0.8877     H
H       0.6773   0.4934   0.5683     H
H       0.6773   0.5066   0.0683     H
H       0.6786   0.3977   0.4944     H
H       0.6786   0.6023   0.9944     H
C     0.680114  0.03948   0.1272     C
C     0.680114  0.96068   0.6272     C
C      0.68131  0.25419 0.757317     C
C      0.68131  0.74599 0.257317     C
Th    0.693544 0.249665 0.230234    Th
Th    0.693544 0.750345 0.730234    Th
C     0.694814  0.09208   0.4562     C
C     0.694814  0.90808   0.9562     C
C      0.69701  0.25899 0.873217     C
C      0.69701  0.74119 0.373217     C
H       0.7083   0.0572   0.1958     H
H       0.7083   0.9428   0.6958     H
C     0.708511  0.01307 0.592915     C
C     0.708511  0.98707 0.092915     C
C     0.724115  0.47809   0.5612     C
C     0.724115  0.52209   0.0612     C
C     0.724815  0.42069   0.5172     C
C     0.724815  0.57949   0.0172     C
H        0.733   0.2512   0.6354     H
H        0.733   0.7488   0.1354     H
O     0.736815 0.314713   0.3943     O
O     0.736815 0.685313   0.8943     O
C     0.743511  0.25449 0.713017     C
C     0.743511  0.74569 0.213017     C
H       0.7457    0.415   0.1464     H
H       0.7457    0.585   0.6464     H
O     0.759516 0.191811   0.3812     O
O     0.759516 0.808211   0.8812     O
C     0.765414  0.11768   0.5242     C
C     0.765414  0.88248   0.0242     C
C      0.77491  0.26399 0.944817     C
C      0.77491  0.73619 0.444817     C
C     0.779113  0.03869 0.660818     C
C     0.779113  0.96149 0.160818     C
O     0.782817  0.18471   0.1612     O
O     0.782817  0.81531   0.6612     O
H       0.7854   0.2671   0.0223     H
H       0.7854   0.7329   0.5223     H
C     0.792515  0.43059   0.1392     C
C     0.792515  0.56959   0.6392     C
C     0.793215  0.48789   0.0952     C
C     0.793215  0.51229   0.5952     C
C     0.794715  0.39759   0.5072     C
C     0.794715  0.60259   0.0072     C
O     0.794815  0.31101   0.2122     O
O     0.794815  0.68901   0.7122     O
C       0.7983   0.3382   0.4604     C
C       0.7983   0.6622   0.9604     C
H        0.804   0.1108    0.012     H
H        0.804   0.8892    0.512     H
C       0.8052 0.167318   0.4723     C
C       0.8052 0.832718   0.9723     C
H       0.8073   0.0207   0.7293     H
H       0.8073   0.9793   0.2293     H
C     0.807613  0.09099   0.6262     C
C     0.807613  0.90919   0.1262     C
C      0.82141  0.25945 0.784517     C
C      0.82141  0.74065 0.284517     C
C      0.83711  0.26425 0.900417     C
C      0.83711  0.73585 0.400417     C
C     0.849713  0.09241   0.0592     C
C     0.849713  0.90761   0.5592     C
H       0.8522   0.0242   0.9533     H
H       0.8522   0.9758   0.4533     H
H       0.8548   0.1081   0.6719     H
H       0.8548   0.8919   0.1719     H
C       0.8552 0.165517   0.2143     C
C       0.8552 0.834517   0.7143     C
C     0.861616  0.39639   0.1732     C
C     0.861616  0.60379   0.6732     C
O     0.862418 0.311413   0.4733     O
O     0.862418 0.688613   0.9733     O
C     0.863115  0.48909   0.5852     C
C     0.863115  0.51109   0.0852     C
C       0.8632 0.337115   0.2313     C
C       0.8632 0.662915   0.7313     C
C     0.863915  0.43179   0.5412     C
C     0.863915  0.56839   0.0412     C
H       0.8731   0.2565   0.6627     H
H       0.8731   0.7435   0.1627     H
O     0.874015 0.181111   0.5192     O
O     0.874015 0.818911   0.0192     O
C     0.878613  0.04059 0.023917     C
C     0.878613  0.95959 0.523917     C
C     0.883611  0.25971 0.740218     C
C     0.883611  0.74031 0.240218     C
C     0.889214  0.11699   0.1652     C
C     0.889214  0.88319   0.6652     C
O     0.897418 0.190511   0.3042     O
O     0.897418 0.809511   0.8042     O
H       0.9107   0.4162   0.5337     H
H       0.9107   0.5838   0.0337     H
C      0.91501  0.26939 0.972017     C
C      0.91501  0.73079 0.472017     C
H       0.9255   0.2725   0.0495     H
H       0.9255   0.7275   0.5495     H
O     0.928913  0.31709   0.2902     O
O     0.928913  0.68309   0.7902     O
C     0.931515  0.41949   0.1632     C
C     0.931515  0.58069   0.6632     C
C     0.932315  0.47679   0.1192     C
C     0.932315  0.52339   0.6192     C
C     0.946911  0.01307 0.094315     C
C     0.946911  0.98707 0.594315     C
H       0.9493   0.0552   0.4884     H
H       0.9493   0.9448   0.9884     H
C     0.957514  0.08948 0.235018     C
C     0.957514  0.91068 0.735018     C
C     0.961511  0.26481   0.8122     C
C     0.961511  0.73521   0.3122     C
Th    0.965873 0.249605 0.459274    Th
Th    0.965873 0.750405 0.959274    Th
C     0.975714  0.03898 0.559118     C
C     0.975714  0.96118 0.059118     C
C      0.97721  0.26969   0.9282     C
C      0.97721  0.73049   0.4282     C
H       0.9778   0.3965   0.1856     H
H       0.9778   0.6035   0.6856     H
H       0.9791   0.4922   0.1118     H
H       0.9791   0.5078   0.6118     H
H       0.9839   0.1057   0.3056     H
H       0.9839   0.8943   0.8056     H
C     0.986411  0.03757 0.199815     C
C     0.986411  0.96257 0.699815     C
