data_I
_chemical_name_common  '/home/zhangsd/repos/MofS-CGCNN/ML/data/WS24/clean_cifs/AFEJUQ'
_cell_length_a 11.16110
_cell_length_b 13.17860
_cell_length_c 22.19720
_cell_angle_alpha 90.00000
_cell_angle_beta  92.56900
_cell_angle_gamma 90.00000
_space_group_name_H-M_alt      'P 1'


loop_
_space_group_symop_operation_xyz
  'x, y, z' 

loop_
_atom_site_label
_atom_site_fract_x
_atom_site_fract_y
_atom_site_fract_z
_atom_site_type_symbol
N       0.0031   0.7384   0.4237     N
N       0.0031   0.7616   0.9237     N
H       0.0132   0.1179   0.0238     H
H       0.0132   0.3821   0.5238     H
H       0.0197   0.1379   0.6253     H
H       0.0197   0.3621   0.1253     H
H       0.0359   0.1285   0.8559     H
H       0.0359   0.3715   0.3559     H
H       0.0525    0.652   0.2117     H
H       0.0525    0.848   0.7117     H
H       0.0537   0.6471   0.3157     H
H       0.0537   0.8529   0.8157     H
C       0.0578   0.1684   0.0456     C
C       0.0578   0.3316   0.5456     C
C        0.061   0.1889   0.6041     C
C        0.061   0.3111   0.1041     C
C       0.1077   0.6927   0.2348     C
C       0.1077   0.8073   0.7348     C
C       0.1087   0.6904   0.2967     C
C       0.1087   0.8096   0.7967     C
C       0.1202   0.1182   0.8587     C
C       0.1202   0.3818   0.3587     C
H       0.1223   0.6183   0.1231     H
H       0.1223   0.8817   0.6231     H
H       0.1235   0.6267   0.0191     H
H       0.1235   0.8733   0.5191     H
C       0.1476   0.0223   0.8919     C
C       0.1476   0.4777   0.3919     C
H       0.1498   0.1137   0.8192     H
H       0.1498   0.3863   0.3192     H
C       0.1508   0.6779   0.1042     C
C       0.1508   0.8221   0.6042     C
C       0.1522   0.6832   0.0422     C
C       0.1522   0.8168   0.5422     C
H       0.1576   0.1734   0.8795     H
H       0.1576   0.3266   0.3795     H
N       0.1691   0.5493   0.4166     N
N       0.1691   0.9507   0.9166     N
C       0.1813    0.166   0.0442     C
C       0.1813    0.334   0.5442     C
N       0.1837   0.7463    0.331     N
N       0.1837   0.7537    0.831     N
C       0.1852   0.1841   0.6037     C
C       0.1852   0.3159   0.1037     C
Cu     0.18678   0.7305  0.42206    Cu
Cu     0.18678   0.7695  0.92206    Cu
C       0.1887   0.7446    0.706     C
C       0.1887   0.7554    0.206     C
C        0.191    0.741   0.6389     C
C        0.191    0.759   0.1389     C
N       0.1925   0.7347   0.5131     N
N       0.1925   0.7653   0.0131     N
H       0.2206   0.1141   0.0229     H
H       0.2206   0.3859   0.5229     H
H       0.2273   0.1298   0.6235     H
H       0.2273   0.3702   0.1235     H
C       0.2347    0.657   0.6086     C
C       0.2347    0.843   0.1086     C
C       0.2356   0.6581   0.5468     C
C       0.2356   0.8419   0.0468     C
C       0.2468   0.2414   0.0746     C
C       0.2468   0.2586   0.5746     C
C        0.261   0.6932   0.8034     C
C        0.261   0.8068   0.3034     C
H       0.2635   0.5994   0.6306     H
H       0.2635   0.9006   0.1306     H
C        0.265   0.6864   0.7416     C
C        0.265   0.8136   0.2416     C
H       0.2686   0.6012    0.527     H
H       0.2686   0.8988    0.027     H
H       0.3154   0.6533   0.8276     H
H       0.3154   0.8467   0.3276     H
H       0.3201   0.6417   0.7238     H
H       0.3201   0.8583   0.2238     H
N       0.3697   0.7322   0.4247     N
N       0.3697   0.7678   0.9247     N
C       0.3808    0.239   0.0754     C
C       0.3808    0.261   0.5754     C
H        0.386   0.6257    0.954     H
H        0.386   0.8743    0.454     H
H       0.3889   0.5925   0.3946     H
H       0.3889   0.9075   0.8946     H
H        0.401   0.0923   0.1027     H
H        0.401   0.4077   0.6027     H
H       0.4069   0.1155   0.5471     H
H       0.4069   0.3845   0.0471     H
C       0.4301   0.6832   0.9416     C
C       0.4301   0.8168   0.4416     C
C       0.4312   0.6517   0.4076     C
C       0.4312   0.8483   0.9076     C
C       0.4432   0.1518   0.0918     C
C       0.4432   0.3482   0.5918     C
C       0.4466   0.1768   0.5585     C
C       0.4466   0.3232   0.0585     C
C       0.5534   0.6768   0.9415     C
C       0.5534   0.8232   0.4415     C
C       0.5568   0.6518   0.4082     C
C       0.5568   0.8482   0.9082     C
C       0.5688   0.1517   0.0924     C
C       0.5688   0.3483   0.5924     C
C       0.5699   0.1832   0.5584     C
C       0.5699   0.3168   0.0584     C
H       0.5931   0.6155   0.9529     H
H       0.5931   0.8845   0.4529     H
H        0.599   0.5923   0.3973     H
H        0.599   0.9077   0.8973     H
H       0.6111   0.0925   0.1054     H
H       0.6111   0.4075   0.6054     H
H        0.614   0.1257    0.546     H
H        0.614   0.3743    0.046     H
C       0.6192    0.739   0.4246     C
C       0.6192    0.761   0.9246     C
N       0.6303   0.2322   0.0753     N
N       0.6303   0.2678   0.5753     N
H       0.6799   0.1417   0.7762     H
H       0.6799   0.3583   0.2762     H
H       0.6846   0.1533   0.6724     H
H       0.6846   0.3467   0.1724     H
H       0.7314   0.1012    0.973     H
H       0.7314   0.3988    0.473     H
C        0.735   0.1864   0.7584     C
C        0.735   0.3136   0.2584     C
H       0.7365   0.0994   0.8694     H
H       0.7365   0.4006   0.3694     H
C        0.739   0.1932   0.6966     C
C        0.739   0.3068   0.1966     C
C       0.7532   0.7414   0.4254     C
C       0.7532   0.7586   0.9254     C
C       0.7644   0.1581   0.9532     C
C       0.7644   0.3419   0.4532     C
C       0.7653    0.157   0.8914     C
C       0.7653    0.343   0.3914     C
H       0.7727   0.6298   0.8765     H
H       0.7727   0.8702   0.3765     H
H       0.7794   0.6141   0.4771     H
H       0.7794   0.8859   0.9771     H
N       0.8075   0.2347   0.9869     N
N       0.8075   0.2653   0.4869     N
C        0.809    0.241   0.8611     C
C        0.809    0.259   0.3611     C
C       0.8113   0.2446    0.794     C
C       0.8113   0.2554    0.294     C
Cu     0.81322   0.2305  0.07794    Cu
Cu     0.81322   0.2695  0.57794    Cu
C       0.8148   0.6841   0.8963     C
C       0.8148   0.8159   0.3963     C
N       0.8163   0.2463    0.169     N
N       0.8163   0.2537    0.669     N
C       0.8187    0.666   0.4558     C
C       0.8187    0.834   0.9558     C
N       0.8309   0.0493   0.0834     N
N       0.8309   0.4507   0.5834     N
H       0.8424   0.6734   0.6205     H
H       0.8424   0.8266   0.1205     H
C       0.8478   0.1832   0.4578     C
C       0.8478   0.3168   0.9578     C
C       0.8492   0.1779   0.3958     C
C       0.8492   0.3221   0.8958     C
H       0.8502   0.6137   0.6808     H
H       0.8502   0.8863   0.1808     H
C       0.8524   0.5223   0.6081     C
C       0.8524   0.9777   0.1081     C
H       0.8765   0.1267   0.4809     H
H       0.8765   0.3733   0.9809     H
H       0.8777   0.1183   0.3769     H
H       0.8777   0.3817   0.8769     H
C       0.8798   0.6182   0.6413     C
C       0.8798   0.8818   0.1413     C
C       0.8913   0.1904   0.2033     C
C       0.8913   0.3096   0.7033     C
C       0.8923   0.1927   0.2652     C
C       0.8923   0.3073   0.7652     C
C        0.939   0.6889   0.8959     C
C        0.939   0.8111   0.3959     C
C       0.9422   0.6684   0.4544     C
C       0.9422   0.8316   0.9544     C
H       0.9463   0.1471   0.1843     H
H       0.9463   0.3529   0.6843     H
H       0.9475    0.152   0.2883     H
H       0.9475    0.348   0.7883     H
H       0.9641   0.6285   0.6441     H
H       0.9641   0.8715   0.1441     H
H       0.9803   0.6379   0.8747     H
H       0.9803   0.8621   0.3747     H
H       0.9868   0.6179   0.4762     H
H       0.9868   0.8821   0.9762     H
N       0.9969   0.2384   0.0763     N
N       0.9969   0.2616   0.5763     N
