data_I
_chemical_name_common  '/home/zhangsd/repos/MofS-CGCNN/ML/data/WS24/clean_cifs/AGUBUA'
_cell_length_a 10.08900
_cell_length_b 13.98800
_cell_length_c 14.78900
_cell_angle_alpha 90.00000
_cell_angle_beta  90.00000
_cell_angle_gamma 90.00000
_space_group_name_H-M_alt      'P 1'


loop_
_space_group_symop_operation_xyz
  'x, y, z' 

loop_
_atom_site_label
_atom_site_fract_x
_atom_site_fract_y
_atom_site_fract_z
_atom_site_type_symbol
Zn         0.0     0.25  0.78297    Zn
Zn         0.0     0.75  0.21703    Zn
P      0.01889  0.38962  0.62314     P
P      0.01889  0.88962  0.37686     P
Zn     0.04048    0.106  0.41273    Zn
Zn     0.04048    0.606  0.58727    Zn
O        0.059   0.1463   0.7044     O
O        0.059   0.6463   0.2956     O
O       0.0689   0.1055   0.5409     O
O       0.0689   0.6055   0.4591     O
O       0.0862   0.4846   0.6432     O
O       0.0862   0.9846   0.3568     O
H        0.117    0.333    0.607     H
H        0.117    0.833    0.393     H
O       0.1422    0.303   0.8498     O
O       0.1422    0.803   0.1502     O
O       0.1445     0.37   0.3863     O
O       0.1445     0.87   0.6137     O
O        0.163   0.1918   0.3549     O
O        0.163   0.6918   0.6451     O
P        0.205   0.2861   0.3325     P
P        0.205   0.7861   0.6675     P
P      0.26875  0.28128  0.89303     P
P      0.26875  0.78128  0.10697     P
O        0.337   0.1918   0.8549     O
O        0.337   0.6918   0.1451     O
O       0.3555     0.37   0.8863     O
O       0.3555     0.87   0.1137     O
O       0.3578    0.303   0.3498     O
O       0.3578    0.803   0.6502     O
H        0.383    0.333    0.107     H
H        0.383    0.833    0.893     H
O       0.4138   0.4846   0.1432     O
O       0.4138   0.9846   0.8568     O
O       0.4311   0.1055   0.0409     O
O       0.4311   0.6055   0.9591     O
O        0.441   0.1463   0.2044     O
O        0.441   0.6463   0.7956     O
Zn     0.45952    0.106  0.91273    Zn
Zn     0.45952    0.606  0.08727    Zn
P      0.48111  0.38962  0.12314     P
P      0.48111  0.88962  0.87686     P
Zn         0.5     0.25  0.28297    Zn
Zn         0.5     0.75  0.71703    Zn
P      0.51889  0.11038  0.12314     P
P      0.51889  0.61038  0.87686     P
Zn     0.54048    0.394  0.91273    Zn
Zn     0.54048    0.894  0.08727    Zn
O        0.559   0.3537   0.2044     O
O        0.559   0.8537   0.7956     O
O       0.5689   0.3945   0.0409     O
O       0.5689   0.8945   0.9591     O
O       0.5862   0.0154   0.1432     O
O       0.5862   0.5154   0.8568     O
H        0.617    0.167    0.107     H
H        0.617    0.667    0.893     H
O       0.6422    0.197   0.3498     O
O       0.6422    0.697   0.6502     O
O       0.6445     0.13   0.8863     O
O       0.6445     0.63   0.1137     O
O        0.663   0.3082   0.8549     O
O        0.663   0.8082   0.1451     O
P        0.705   0.2139   0.8325     P
P        0.705   0.7139   0.1675     P
P      0.76875  0.21872  0.39303     P
P      0.76875  0.71872  0.60697     P
O        0.837   0.3082   0.3549     O
O        0.837   0.8082   0.6451     O
O       0.8555     0.13   0.3863     O
O       0.8555     0.63   0.6137     O
O       0.8578    0.197   0.8498     O
O       0.8578    0.697   0.1502     O
H        0.883    0.167    0.607     H
H        0.883    0.667    0.393     H
O       0.9138   0.0154   0.6432     O
O       0.9138   0.5154   0.3568     O
O       0.9311   0.3945   0.5409     O
O       0.9311   0.8945   0.4591     O
O        0.941   0.3537   0.7044     O
O        0.941   0.8537   0.2956     O
Zn     0.95952    0.394  0.41273    Zn
Zn     0.95952    0.894  0.58727    Zn
P      0.98111  0.11038  0.62314     P
P      0.98111  0.61038  0.37686     P
