data_I
_chemical_name_common  '/home/zhangsd/repos/MofS-CGCNN/ML/data/WS24/clean_cifs/Al_OH_1-4-NDC'
_cell_length_a 21.10127
_cell_length_b 21.10127
_cell_length_c  6.60954
_cell_angle_alpha 90.00000
_cell_angle_beta  90.00000
_cell_angle_gamma 90.00000
_space_group_name_H-M_alt      'P 1'


loop_
_space_group_symop_operation_xyz
  'x, y, z' 

loop_
_atom_site_label
_atom_site_fract_x
_atom_site_fract_y
_atom_site_fract_z
_atom_site_type_symbol
C       0.0342   0.2892   0.9038     C
C       0.0342   0.3502   0.2289     C
C       0.0342   0.6502   0.2289     C
C       0.0342   0.7112   0.9038     C
C       0.0343   0.2303   0.5901     C
C       0.0343   0.7703   0.5901     C
H       0.0601    0.372    0.356     H
H       0.0601    0.632    0.356     H
H        0.063    0.212    0.476     H
H        0.063    0.792    0.476     H
C       0.0683   0.2573   0.7401     C
C       0.0683   0.3222   0.0619     C
C       0.0683   0.6782   0.0619     C
C       0.0683   0.7433   0.7401     C
H        0.122   0.3222   0.0619     H
H        0.122   0.6782   0.0619     H
H        0.132   0.4401    0.356     H
H        0.132   0.5601    0.356     H
C       0.1393   0.2533   0.7301     C
C       0.1393   0.7473   0.7301     C
C       0.1502   0.4662   0.2289     C
C       0.1502   0.5342   0.2289     C
O       0.1652   0.2512   0.5535     O
O       0.1652   0.7492   0.5535     O
O       0.1712   0.2482   0.8836     O
O       0.1712   0.7522   0.8836     O
H       0.1782    0.382   0.0619     H
C       0.1782   0.4323   0.0619     C
C       0.1782   0.5683   0.0619     C
H       0.1782    0.622   0.0619     H
C       0.2112   0.4662   0.9038     C
C       0.2112   0.5342   0.9038     C
H        0.212    0.063    0.536     H
H        0.212    0.943    0.536     H
O      0.21901  0.28101   0.2858     O
O      0.21901  0.71901   0.2858     O
C       0.2303   0.0343   0.4101     C
C       0.2303   0.9663   0.4101     C
C       0.2433   0.4323   0.7401     C
C       0.2433   0.5683   0.7401     C
C       0.2473   0.3613   0.7301     C
C       0.2473   0.6393   0.7301     C
O       0.2482   0.1712   0.1176     O
O       0.2482   0.8292   0.1176     O
O       0.2492   0.3352   0.5535     O
O       0.2492   0.6652   0.5535     O
Al        0.25     0.25      0.0    Al
Al        0.25     0.25      0.5    Al
Al        0.25     0.75      0.0    Al
Al        0.25     0.75      0.5    Al
O       0.2512   0.1652   0.4475     O
O       0.2512   0.8352   0.4475     O
O       0.2522   0.3292   0.8836     O
O       0.2522   0.6712   0.8836     O
C       0.2533   0.1393   0.2701     C
C       0.2533   0.8613   0.2701     C
C       0.2573   0.0683   0.2601     C
C       0.2573   0.9323   0.2601     C
C       0.2703   0.4663   0.5901     C
C       0.2703   0.5343   0.5901     C
O      0.28101  0.21901   0.7158     O
O      0.28101  0.78101   0.7158     O
C       0.2892   0.0342   0.0978     C
C       0.2892   0.9662   0.0978     C
H        0.292    0.443    0.476     H
H        0.292    0.563    0.476     H
C       0.3222   0.0683   0.9399     C
H       0.3222    0.122   0.9399     H
H       0.3222    0.882   0.9399     H
C       0.3222   0.9323   0.9399     C
O       0.3292   0.2522   0.1176     O
O       0.3292   0.7482   0.1176     O
O       0.3352   0.2492   0.4475     O
O       0.3352   0.7512   0.4475     O
C       0.3502   0.0342   0.7729     C
C       0.3502   0.9662   0.7729     C
C       0.3613   0.2473   0.2701     C
C       0.3613   0.7533   0.2701     C
H        0.372   0.0601    0.656     H
H        0.372   0.9401    0.656     H
H        0.382   0.1782   0.9399     H
H        0.382   0.8222   0.9399     H
C       0.4323   0.1782   0.9399     C
C       0.4323   0.2433   0.2601     C
C       0.4323   0.7573   0.2601     C
C       0.4323   0.8222   0.9399     C
H       0.4401    0.132    0.656     H
H       0.4401    0.872    0.656     H
H        0.443    0.292    0.536     H
H        0.443    0.712    0.536     H
C       0.4662   0.1502   0.7729     C
C       0.4662   0.2112   0.0978     C
C       0.4662   0.7892   0.0978     C
C       0.4662   0.8502   0.7729     C
C       0.4663   0.2703   0.4101     C
C       0.4663   0.7303   0.4101     C
C       0.5342   0.1502   0.7729     C
C       0.5342   0.2112   0.0978     C
C       0.5342   0.7892   0.0978     C
C       0.5342   0.8502   0.7729     C
C       0.5343   0.2703   0.4101     C
C       0.5343   0.7303   0.4101     C
H       0.5601    0.132    0.656     H
H       0.5601    0.872    0.656     H
H        0.563    0.292    0.536     H
H        0.563    0.712    0.536     H
C       0.5683   0.1782   0.9399     C
C       0.5683   0.2433   0.2601     C
C       0.5683   0.7573   0.2601     C
C       0.5683   0.8222   0.9399     C
H        0.622   0.1782   0.9399     H
H        0.622   0.8222   0.9399     H
H        0.632   0.0601    0.656     H
H        0.632   0.9401    0.656     H
C       0.6393   0.2473   0.2701     C
C       0.6393   0.7533   0.2701     C
C       0.6502   0.0342   0.7729     C
C       0.6502   0.9662   0.7729     C
O       0.6652   0.2492   0.4475     O
O       0.6652   0.7512   0.4475     O
O       0.6712   0.2522   0.1176     O
O       0.6712   0.7482   0.1176     O
C       0.6782   0.0683   0.9399     C
H       0.6782    0.122   0.9399     H
H       0.6782    0.882   0.9399     H
C       0.6782   0.9323   0.9399     C
C       0.7112   0.0342   0.0978     C
C       0.7112   0.9662   0.0978     C
H        0.712    0.443    0.476     H
H        0.712    0.563    0.476     H
O      0.71901  0.21901   0.7158     O
O      0.71901  0.78101   0.7158     O
C       0.7303   0.4663   0.5901     C
C       0.7303   0.5343   0.5901     C
C       0.7433   0.0683   0.2601     C
C       0.7433   0.9323   0.2601     C
C       0.7473   0.1393   0.2701     C
C       0.7473   0.8613   0.2701     C
O       0.7482   0.3292   0.8836     O
O       0.7482   0.6712   0.8836     O
O       0.7492   0.1652   0.4475     O
O       0.7492   0.8352   0.4475     O
Al        0.75     0.25      0.0    Al
Al        0.75     0.25      0.5    Al
Al        0.75     0.75      0.0    Al
Al        0.75     0.75      0.5    Al
O       0.7512   0.3352   0.5535     O
O       0.7512   0.6652   0.5535     O
O       0.7522   0.1712   0.1176     O
O       0.7522   0.8292   0.1176     O
C       0.7533   0.3613   0.7301     C
C       0.7533   0.6393   0.7301     C
C       0.7573   0.4323   0.7401     C
C       0.7573   0.5683   0.7401     C
C       0.7703   0.0343   0.4101     C
C       0.7703   0.9663   0.4101     C
O      0.78101  0.28101   0.2858     O
O      0.78101  0.71901   0.2858     O
C       0.7892   0.4662   0.9038     C
C       0.7892   0.5342   0.9038     C
H        0.792    0.063    0.536     H
H        0.792    0.943    0.536     H
H       0.8222    0.382   0.0619     H
C       0.8222   0.4323   0.0619     C
C       0.8222   0.5683   0.0619     C
H       0.8222    0.622   0.0619     H
O       0.8292   0.2482   0.8836     O
O       0.8292   0.7522   0.8836     O
O       0.8352   0.2512   0.5535     O
O       0.8352   0.7492   0.5535     O
C       0.8502   0.4662   0.2289     C
C       0.8502   0.5342   0.2289     C
C       0.8613   0.2533   0.7301     C
C       0.8613   0.7473   0.7301     C
H        0.872   0.4401    0.356     H
H        0.872   0.5601    0.356     H
H        0.882   0.3222   0.0619     H
H        0.882   0.6782   0.0619     H
C       0.9323   0.2573   0.7401     C
C       0.9323   0.3222   0.0619     C
C       0.9323   0.6782   0.0619     C
C       0.9323   0.7433   0.7401     C
H       0.9401    0.372    0.356     H
H       0.9401    0.632    0.356     H
H        0.943    0.212    0.476     H
H        0.943    0.792    0.476     H
C       0.9662   0.2892   0.9038     C
C       0.9662   0.3502   0.2289     C
C       0.9662   0.6502   0.2289     C
C       0.9662   0.7112   0.9038     C
C       0.9663   0.2303   0.5901     C
C       0.9663   0.7703   0.5901     C
