data_I
_chemical_name_common  '/home/zhangsd/repos/MofS-CGCNN/ML/data/WS24/clean_cifs/ALAMUW'
_cell_length_a 18.79400
_cell_length_b 18.79400
_cell_length_c 19.93510
_cell_angle_alpha 61.87610
_cell_angle_beta  61.87610
_cell_angle_gamma 60.00000
_space_group_name_H-M_alt      'P 1'


loop_
_space_group_symop_operation_xyz
  'x, y, z' 

loop_
_atom_site_label
_atom_site_fract_x
_atom_site_fract_y
_atom_site_fract_z
_atom_site_type_symbol
O      0.00085  0.47765  0.89785     O
O      0.00085  0.62365  0.89785     O
C       0.0032   0.4804   0.5692     C
C       0.0032   0.9472   0.5692     C
C       0.0061   0.1158   0.3417     C
C       0.0061   0.5364   0.3417     C
H       0.0208   0.2406   0.2064     H
H       0.0208   0.5322   0.2064     H
O         0.05     0.47     0.67     O
O         0.05     0.81     0.67     O
C       0.0528   0.5196   0.4308     C
C       0.0528   0.9968   0.4308     C
Cu     0.06767  0.49914  0.93405    Cu
C      0.07392  0.33982  0.06024     C
C      0.07392  0.52602  0.06024     C
C       0.0768      0.5      0.5     C
C       0.0768   0.9232      0.5     C
C      0.07684  0.21054  0.18018     C
C      0.07684  0.53244  0.18018     C
N       0.0846   0.0846   0.3081     N
N       0.0846   0.5227   0.3081     N
O      0.11467  0.37517  0.98929     O
O      0.11467  0.52087  0.98929     O
C       0.1158   0.0061   0.3417     C
C       0.1158   0.5364   0.3417     C
C      0.12093  0.24593  0.10101     C
C      0.12093  0.53213  0.10101     C
C        0.125    0.125   0.2172     C
C        0.125   0.5328   0.2172     C
H       0.1263      0.5      0.5     H
H       0.1263   0.8737      0.5     H
O         0.19     0.53     0.33     O
O         0.19     0.95     0.33     O
C      0.20444  0.20444  0.05838     C
C      0.20444  0.53274  0.05838     C
C      0.21054  0.07684  0.18018     C
C      0.21054  0.53244  0.18018     C
H       0.2306   0.2306   0.0051     H
H       0.2306   0.5337   0.0051     H
H       0.2406   0.0208   0.2064     H
H       0.2406   0.5322   0.2064     H
C      0.24593  0.12093  0.10101     C
C      0.24593  0.53213  0.10101     C
C      0.33982  0.07392  0.06024     C
C      0.33982  0.52602  0.06024     C
O      0.37517  0.11467  0.98929     O
O      0.37517  0.52087  0.98929     O
O      0.37635  0.52235  0.10215     O
O      0.37635  0.99915  0.10215     O
C       0.4636   0.8842   0.6583     C
C       0.4636   0.9939   0.6583     C
H       0.4663   0.7694   0.9949     H
C       0.4672    0.875   0.7828     C
C      0.46726  0.79556  0.94162     C
C      0.46756  0.78946  0.81982     C
C      0.46756  0.92316  0.81982     C
H       0.4678   0.7594   0.7936     H
H       0.4678   0.9792   0.7936     H
C      0.46787  0.75407  0.89899     C
C      0.46787  0.87907  0.89899     C
O         0.47     0.05     0.67     O
O         0.47     0.81     0.67     O
C      0.47398  0.66018  0.93976     C
C      0.47398  0.92608  0.93976     C
N       0.4773   0.9154   0.6919     N
O      0.47765  0.00085  0.89785     O
O      0.47765  0.62365  0.89785     O
O      0.47913  0.62483  0.01071     O
O      0.47913  0.88533  0.01071     O
C       0.4804   0.0032   0.5692     C
C       0.4804   0.9472   0.5692     C
Cu     0.49914  0.06767  0.93405    Cu
Cu     0.49914  0.49914  0.93405    Cu
C          0.5   0.0768      0.5     C
H          0.5   0.1263      0.5     H
H          0.5   0.8737      0.5     H
C          0.5   0.9232      0.5     C
Cu     0.50086  0.50086  0.06595    Cu
Cu     0.50086  0.93233  0.06595    Cu
C       0.5196   0.0528   0.4308     C
C       0.5196   0.9968   0.4308     C
O      0.52087  0.11467  0.98929     O
O      0.52087  0.37517  0.98929     O
O      0.52235  0.37635  0.10215     O
O      0.52235  0.99915  0.10215     O
N       0.5227   0.0846   0.3081     N
C      0.52602  0.07392  0.06024     C
C      0.52602  0.33982  0.06024     C
O         0.53     0.19     0.33     O
O         0.53     0.95     0.33     O
C      0.53213  0.12093  0.10101     C
C      0.53213  0.24593  0.10101     C
H       0.5322   0.0208   0.2064     H
H       0.5322   0.2406   0.2064     H
C      0.53244  0.07684  0.18018     C
C      0.53244  0.21054  0.18018     C
C      0.53274  0.20444  0.05838     C
C       0.5328    0.125   0.2172     C
H       0.5337   0.2306   0.0051     H
C       0.5364   0.0061   0.3417     C
C       0.5364   0.1158   0.3417     C
O      0.62365  0.00085  0.89785     O
O      0.62365  0.47765  0.89785     O
O      0.62483  0.47913  0.01071     O
O      0.62483  0.88533  0.01071     O
C      0.66018  0.47398  0.93976     C
C      0.66018  0.92608  0.93976     C
C      0.75407  0.46787  0.89899     C
C      0.75407  0.87907  0.89899     C
H       0.7594   0.4678   0.7936     H
H       0.7594   0.9792   0.7936     H
H       0.7694   0.4663   0.9949     H
H       0.7694   0.7694   0.9949     H
C      0.78946  0.46756  0.81982     C
C      0.78946  0.92316  0.81982     C
C      0.79556  0.46726  0.94162     C
C      0.79556  0.79556  0.94162     C
O         0.81     0.05     0.67     O
O         0.81     0.47     0.67     O
H       0.8737   0.1263      0.5     H
H       0.8737      0.5      0.5     H
C        0.875   0.4672   0.7828     C
C        0.875    0.875   0.7828     C
C      0.87907  0.46787  0.89899     C
C      0.87907  0.75407  0.89899     C
C       0.8842   0.4636   0.6583     C
C       0.8842   0.9939   0.6583     C
O      0.88533  0.47913  0.01071     O
O      0.88533  0.62483  0.01071     O
N       0.9154   0.4773   0.6919     N
N       0.9154   0.9154   0.6919     N
C      0.92316  0.46756  0.81982     C
C      0.92316  0.78946  0.81982     C
C       0.9232   0.0768      0.5     C
C       0.9232      0.5      0.5     C
C      0.92608  0.47398  0.93976     C
C      0.92608  0.66018  0.93976     C
Cu     0.93233  0.50086  0.06595    Cu
C       0.9472   0.0032   0.5692     C
C       0.9472   0.4804   0.5692     C
O         0.95     0.19     0.33     O
O         0.95     0.53     0.33     O
H       0.9792   0.4678   0.7936     H
H       0.9792   0.7594   0.7936     H
C       0.9939   0.4636   0.6583     C
C       0.9939   0.8842   0.6583     C
C       0.9968   0.0528   0.4308     C
C       0.9968   0.5196   0.4308     C
O      0.99915  0.37635  0.10215     O
O      0.99915  0.52235  0.10215     O
