data_I
_chemical_name_common  '/home/zhangsd/repos/MofS-CGCNN/ML/data/WS24/clean_cifs/AlaZnCl'
_cell_length_a 17.45872
_cell_length_b 17.45872
_cell_length_c 10.24475
_cell_angle_alpha 90.00000
_cell_angle_beta  90.00000
_cell_angle_gamma 120.00000
_space_group_name_H-M_alt      'P 1'


loop_
_space_group_symop_operation_xyz
  'x, y, z' 

loop_
_atom_site_label
_atom_site_fract_x
_atom_site_fract_y
_atom_site_fract_z
_atom_site_type_symbol
O     0.0224014  0.51353  0.18452     O
H       0.0306    0.393 0.376233     H
H       0.0497   0.3977 0.526433     H
N     0.0576318  0.50883  0.45624     N
C      0.06012  0.53713  0.68914     C
C      0.06852  0.43093  0.44554     C
H       0.0729   0.6616 0.518033     H
H       0.0741   0.5386 0.379133     H
Zn    0.075032 0.533134 0.987644    Zn
H       0.1031   0.6784 0.180833     H
O     0.1054917  0.56633  0.79132     O
C      0.11012  0.56964  0.56034     C
Cl    0.125898 0.4383811 0.0036016    Cl
C      0.12804  0.66295  0.53114     C
C      0.15382  0.70694  0.12984     C
H        0.159   0.7012 0.603233     H
C      0.16325  0.45524  0.41714     C
H       0.1634   0.6848 0.453633     H
N     0.1646918  0.66163  0.03224     N
H     0.166667 0.570767 0.567333     H
H       0.1767    0.381 0.557267     H
H       0.1846   0.5394 0.265367     H
H       0.2043   0.8233 0.223933     H
C      0.20635  0.42104  0.49044     C
C      0.21094  0.51484  0.31634     C
C      0.21474  0.79375  0.15704     C
C      0.23912  0.70304  0.96094     C
H       0.2471    0.672 0.893533     H
C      0.29204  0.83685  0.08374     C
C      0.29314  0.44694  0.46324     C
C      0.29704  0.53614  0.29434     C
H       0.2988   0.4578 0.936567     H
C      0.30392  0.78914  0.98294     C
Cl    0.312497 0.874118 0.6702716    Cl
H       0.3152   0.4786 0.786967     H
H       0.3216   0.4247 0.514167     H
H        0.328   0.5751 0.226867     H
C      0.33715  0.46514  0.86454     C
H       0.3384   0.4113 0.851367     H
N      0.33843  0.50312  0.36564     N
H        0.348   0.9503   0.1931     H
H       0.3548   0.8154 0.932033     H
H       0.3624   0.9694   0.0429     H
C      0.36242  0.93152  0.11224     C
H        0.381   0.2043   0.3906     H
H        0.393   0.3624 0.209567     H
H       0.3977    0.348 0.359767     H
H       0.4041 0.833333    0.234     H
H       0.4113   0.0729   0.6847     H
C      0.42104  0.21474  0.32374     C
H       0.4247   0.1031   0.3475     H
H       0.4249   0.7529   0.5602     H
H     0.429233   0.5959 0.900667     H
C      0.43044  0.54054  0.89374     C
C      0.43093  0.36242  0.27894     C
O      0.43373  0.53922  0.12472     O
Cl    0.4383811 0.312497 0.8369416    Cl
C      0.44694  0.15382  0.29654     C
N      0.45122 0.9423718  0.12294     N
C      0.45524  0.29204  0.25044     C
H       0.4578    0.159   0.7699     H
Zn    0.458103 0.924972 0.654314    Zn
C      0.45954  0.88992  0.22704     C
H       0.4606   0.6452   0.5987     H
O      0.46082 0.8945117  0.45802     O
H       0.4614   0.5355 0.712467     H
C      0.46293  0.52302  0.02254     C
C      0.46394  0.76092  0.62764     C
H       0.4645   0.9259   0.0458     H
C      0.46514  0.12804  0.69784     C
Zn    0.466874 0.541903 0.320984    Zn
C      0.47702  0.93992  0.35584     C
H       0.4786   0.1634   0.6203     H
C      0.48524  0.69612  0.64964     C
O      0.48653 0.5088617  0.51792     O
O     0.4911417 0.9776014  0.85122     O
N      0.49123  0.54882  0.78964     N
N      0.49692 0.8353118  0.69894     N
N      0.50312 0.1646918  0.19894     N
N      0.50883  0.45122  0.28964     N
O     0.5088617 0.0224014  0.35122     O
O      0.51353 0.4911417  0.01792     O
C      0.51484  0.30392  0.14964     C
H       0.5214   0.8366   0.1203     H
C      0.52302  0.06012  0.85584     C
Zn    0.533134 0.458103 0.820984    Zn
C      0.53494  0.87204  0.19784     C
H       0.5355   0.0741   0.5458     H
C      0.53614  0.23912  0.12764     C
C      0.53713  0.47702  0.52254     C
H       0.5386   0.4645 0.212467     H
O      0.53922 0.1054917  0.95802     O
H       0.5394   0.3548   0.0987     H
C      0.54054  0.11012  0.72704     C
Zn    0.541903 0.075032 0.154314    Zn
H       0.5422    0.841   0.2699     H
C      0.54484  0.70804  0.75044     C
N      0.54882 0.0576318  0.62294     N
C      0.55314  0.84622  0.79654     C
Cl    0.5616211 0.687517 0.3369416    Cl
O      0.56633  0.46082  0.62472     O
C      0.56913  0.63762  0.77894     C
C      0.56964  0.45954  0.39374     C
H     0.570767   0.4041 0.400667     H
H       0.5751   0.2471   0.0602     H
H       0.5753   0.8969   0.8475     H
C      0.57904  0.78534  0.82374     C
H       0.5887   0.9271   0.1847     H
H       0.5959 0.166667    0.734     H
H       0.6023    0.652 0.859767     H
H        0.607   0.6376 0.709567     H
H        0.619   0.7957   0.8906     H
H       0.6376   0.0306   0.5429     H
C      0.63762  0.06852  0.61224     C
H       0.6452   0.1846 0.432033     H
H        0.652   0.0497   0.6931     H
H       0.6616   0.5887 0.351367     H
N      0.66163  0.49692  0.86564     N
C      0.66295  0.53494  0.36454     C
H        0.672   0.4249 0.726867     H
H       0.6784   0.5753 0.014167     H
H       0.6848   0.5214 0.286967     H
Cl    0.687517 0.125898 0.1702716    Cl
C      0.69612  0.21094  0.48294     C
H       0.7012   0.5422 0.436567     H
C      0.70304  0.46394  0.79434     C
C      0.70694  0.55314  0.96324     C
C      0.70804  0.16325  0.58374     C
H       0.7529    0.328 0.393533     H
C      0.76092  0.29704  0.46094     C
C      0.78534  0.20635  0.65704     C
C      0.78914  0.48524  0.81634     C
C      0.79375  0.57904  0.99044     C
H       0.7957   0.1767 0.723933     H
H       0.8154   0.4606 0.765367     H
H       0.8233    0.619 0.057267     H
H     0.833333 0.429233 0.067333     H
N     0.8353118  0.33843  0.53224     N
H       0.8366   0.3152 0.953633     H
C      0.83685  0.54484  0.91714     C
H        0.841   0.2988 0.103233     H
C      0.84622  0.29314  0.62984     C
C      0.87204  0.33715  0.03114     C
Cl    0.874118 0.5616211 0.5036016    Cl
C      0.88992  0.43044  0.06034     C
O     0.8945117  0.43373  0.29132     O
H       0.8969   0.3216 0.680833     H
Zn    0.924972 0.466874 0.487644    Zn
H       0.9259   0.4614 0.879133     H
H       0.9271   0.3384 0.018033     H
C      0.93152  0.56913  0.94554     C
C      0.93992  0.46293  0.18914     C
N     0.9423718  0.49123  0.95624     N
H       0.9503   0.6023 0.026433     H
H       0.9694    0.607 0.876233     H
O     0.9776014  0.48653  0.68452     O
