data_I
_chemical_name_common  '/home/zhangsd/repos/MofS-CGCNN/ML/data/WS24/clean_cifs/AlaZnOA'
_cell_length_a 17.58067
_cell_length_b 17.58067
_cell_length_c 10.14862
_cell_angle_alpha 90.00000
_cell_angle_beta  90.00000
_cell_angle_gamma 120.00000
_space_group_name_H-M_alt      'P 1'


loop_
_space_group_symop_operation_xyz
  'x, y, z' 

loop_
_atom_site_label
_atom_site_fract_x
_atom_site_fract_y
_atom_site_fract_z
_atom_site_type_symbol
H        0.021   0.6555 0.795767     H
O      0.02336  0.52014  0.01215     O
O     0.037519 0.663213   0.3342     O
H     0.046067 0.666667 0.645567     H
N      0.05588  0.56685  0.73177     N
C      0.05868  0.52095  0.50698     C
C     0.061811  0.65507  0.73181     C
Zn    0.073679 0.533156 0.206491    Zn
H       0.0996   0.8101 0.186567     H
O      0.10436  0.53184  0.40315     O
C       0.1072 0.707414   0.2652     C
H       0.1081   0.4346 0.983267     H
H       0.1102   0.4623 0.745767     H
C      0.11229  0.56097  0.63141     C
O      0.13879  0.66385  0.19298     O
C       0.1433 0.803118   0.2352     C
C     0.148216 0.501613 0.679011     C
H       0.1508   0.4682 0.606067     H
C      0.15199  0.44477  0.04379     C
C     0.154812  0.72497  0.76649     C
N      0.15521  0.48717  0.16007     N
H       0.1559   0.8354 0.316067     H
H       0.1607   0.6758 0.943833     H
H       0.1611   0.6197 0.611967     H
H       0.1646   0.3205   0.6494     H
H        0.175   0.3703   0.5166     H
H       0.1862   0.7966 0.599933     H
H       0.1899   0.2895   0.5199     H
C      0.19348 0.720415  0.88381     C
H       0.1953    0.825 0.183267     H
C     0.196918 0.339618   0.5682     C
H       0.2034   0.3896 0.933267     H
H       0.2061   0.5374 0.714667     H
C      0.20871  0.41747  0.01359     C
C      0.20877  0.79131  0.68019     C
C     0.217513  0.49879 0.246014     C
H         0.22   0.5245 0.326967     H
C      0.27517  0.42999  0.09979     C
C     0.279615 0.473013  0.21721     C
C      0.28129 0.782513 0.912614     C
H       0.2895   0.0996 0.353233     H
C     0.292614 0.400014   0.5982     C
C      0.29287  0.84819  0.71039     C
H       0.3045     0.78 0.993633     H
H       0.3174   0.8492 0.272733     H
H       0.3205   0.1559 0.482733     H
H       0.3242   0.4849 0.277167     H
H       0.3265   0.8919 0.649933     H
H       0.3313   0.7939 0.381333     H
N      0.33197  0.84481  0.82667     N
H     0.333333   0.3794   0.9789     H
O      0.33625  0.47497  0.52628     O
O     0.336813 0.374313   0.6672     O
C     0.339618   0.1433   0.4012     C
H       0.3445   0.3655   0.1291     H
C      0.34507  0.40688  0.06511     C
H       0.3521   0.8898 0.412433     H
C      0.35348 0.851816 0.345611     C
H       0.3655    0.021 0.962433     H
H       0.3703   0.1953 0.349933     H
O     0.374313 0.037519   0.5002     O
H       0.3794 0.046067 0.812233     H
H       0.3803   0.5414   0.9453     H
H       0.3896   0.1862   0.7666     H
C     0.400014   0.1072   0.4312     C
C      0.40688 0.061811  0.89841     C
C      0.41747  0.20877  0.84689     C
O      0.42754  0.89576  0.06975     O
C      0.42999 0.154812  0.93309     C
N      0.43325  0.48905  0.06507     N
H       0.4346   0.3265   0.8166     H
C      0.43917  0.55137  0.96471     C
C      0.44477  0.29287  0.87709     C
C      0.44877  0.88789  0.29801     C
H       0.4586   0.8389 0.278633     H
Zn    0.459486 0.926339 0.873151    Zn
H       0.4623   0.3521   0.5791     H
C      0.46235  0.94148  0.17358     C
H       0.4626   0.6687    0.048     H
Zn    0.466856 0.540526 0.539821    Zn
H       0.4682   0.3174   0.4394     H
O      0.46824  0.57254  0.73645     O
C     0.473013  0.19348  0.05051     C
O      0.47497  0.13879  0.35958     O
H       0.4755   0.6955   0.6603     H
C      0.47915  0.53775  0.84028     C
O      0.47994  0.50324  0.34545     O
H       0.4849   0.1607   0.1105     H
N      0.48717  0.33197  0.99337     N
N      0.48905  0.05588  0.89837     N
O      0.49684  0.97676  0.67875     O
C     0.498413  0.64668 0.012311     C
C      0.49879  0.28129 0.079314     C
C      0.50139  0.71889 0.579314     C
C     0.501613  0.35348 0.512311     C
O      0.50324  0.02336  0.17875     O
N      0.51105  0.94428  0.39837     N
N      0.51297  0.66817  0.49337     N
H       0.5151   0.8393   0.6105     H
O      0.52014  0.49684  0.84545     O
C      0.52095  0.46235  0.34028     C
H       0.5245   0.3045   0.1603     H
O      0.52517  0.86139  0.85958     O
C     0.527013  0.80668  0.55051     C
H       0.5318   0.6826   0.9394     H
O      0.53184  0.42754  0.23645     O
Zn    0.533156 0.459486 0.039821    Zn
H       0.5374   0.3313    0.548     H
H       0.5377   0.6479   0.0791     H
C      0.53775  0.05868  0.67358     C
Zn    0.540526 0.073679 0.373151    Zn
H       0.5414   0.1611 0.778633     H
C      0.55137  0.11229  0.79801     C
C      0.55537  0.70727  0.37709     C
C      0.56097  0.44877  0.46471     C
H       0.5654   0.6735   0.3166     H
N      0.56685  0.51105  0.56507     N
C      0.57019 0.845212  0.43309     C
O      0.57254  0.10436  0.56975     O
C      0.58267  0.79137  0.34689     C
C      0.59328 0.938211  0.39841     C
C     0.600014   0.8932   0.9312     C
H       0.6104   0.8138   0.2666     H
H       0.6197   0.4586   0.4453     H
H       0.6206 0.953933 0.312233     H
O     0.625713 0.962519   0.0002     O
H       0.6297   0.8047 0.849933     H
H       0.6345    0.979 0.462433     H
C      0.64668 0.148216 0.845611     C
H       0.6479   0.1102 0.912433     H
C      0.65507  0.59328  0.56511     C
H       0.6555   0.6345   0.6291     H
C     0.660418   0.8573   0.9012     C
O     0.663213 0.625713   0.1672     O
O      0.66385  0.52517  0.02628     O
H     0.666667   0.6206   0.4789     H
N      0.66817  0.15521  0.32667     N
H       0.6687   0.2061 0.881333     H
H       0.6735   0.1081 0.149933     H
H       0.6758   0.5151 0.777167     H
H       0.6795   0.8441 0.982733     H
H       0.6826   0.1508 0.772733     H
H       0.6955     0.22 0.493633     H
C      0.70727  0.15199  0.21039     C
C     0.707414 0.600014   0.0982     C
H       0.7105   0.9004 0.853233     H
C      0.71889 0.217513 0.412614     C
C     0.720415 0.527013  0.71721     C
C      0.72497  0.57019  0.59979     C
H         0.78   0.4755 0.826967     H
C     0.782513  0.50139 0.746014     C
C      0.79131  0.58267  0.51359     C
C      0.79137  0.20871  0.18019     C
H       0.7939   0.4626 0.214667     H
H       0.7966   0.6104 0.433267     H
C     0.803118 0.660418   0.0682     C
H       0.8047    0.175 0.683267     H
C      0.80668 0.279615  0.38381     C
H       0.8101   0.7105   0.0199     H
H       0.8138   0.2034 0.099933     H
H        0.825   0.6297   0.0166     H
H       0.8354   0.6795   0.1494     H
H       0.8389   0.3803 0.111967     H
H       0.8393   0.3242 0.443833     H
H       0.8441   0.1646 0.816067     H
N      0.84481  0.51297  0.66007     N
C     0.845212  0.27517  0.26649     C
C      0.84819  0.55537  0.54379     C
H       0.8492   0.5318 0.106067     H
C     0.851816 0.498413 0.179011     C
C       0.8573 0.196918   0.7352     C
O      0.86139  0.33625  0.69298     O
C      0.88789  0.43917  0.13141     C
H       0.8898   0.5377 0.245767     H
H       0.8919   0.5654 0.483267     H
C       0.8932 0.292614   0.7652     C
O      0.89576  0.46824  0.90315     O
H       0.9004   0.1899 0.686567     H
Zn    0.926339 0.466856 0.706491    Zn
C     0.938211  0.34507  0.23181     C
C      0.94148  0.47915  0.00698     C
N      0.94428  0.43325  0.23177     N
H     0.953933 0.333333 0.145567     H
O     0.962519 0.336813   0.8342     O
O      0.97676  0.47994  0.51215     O
H        0.979   0.3445 0.295767     H
