data_I
_chemical_name_common  '/home/zhangsd/repos/MofS-CGCNN/ML/data/WS24/clean_cifs/AMEJIM'
_cell_length_a 12.56300
_cell_length_b 12.56300
_cell_length_c 12.56300
_cell_angle_alpha 95.11630
_cell_angle_beta  95.11630
_cell_angle_gamma 95.11630
_space_group_name_H-M_alt      'P 1'


loop_
_space_group_symop_operation_xyz
  'x, y, z' 

loop_
_atom_site_label
_atom_site_fract_x
_atom_site_fract_y
_atom_site_fract_z
_atom_site_type_symbol
Fe         0.0      0.0      0.0    Fe
C      0.00051  0.84719  0.98575     C
N       0.0014  0.24513  0.01914     N
C       0.0052   0.7399   0.6655     C
Cu     0.00803  0.95708  0.60716    Cu
H       0.0111   0.2413   0.2599     H
C      0.01425  0.99949  0.15281     C
N      0.01914   0.0014  0.24513     N
O      0.02898  0.69901  0.20854     O
H       0.0362   0.6701   0.6632     H
O      0.04049  0.92195  0.46199     O
Cu     0.04292  0.39284  0.99197    Cu
H       0.0558   0.2225   0.6907     H
H         0.06   0.6504   0.2366     H
C        0.067   0.2867   0.7437     C
H       0.0725   0.5126   0.8009     H
O      0.07805  0.53801  0.95951     O
H       0.0821   0.2925   0.4821     H
H       0.0836   0.7227   0.4969     H
N      0.08568  0.82238  0.63688     N
H       0.0871   0.3498   0.7052     H
C       0.0972   0.2721   0.4073     C
C        0.126   0.5389   0.8624     C
C       0.1304    0.785   0.5339     C
C       0.1376    0.874   0.4611     C
H       0.1382   0.2058   0.8608     H
H       0.1392   0.8618   0.7942     H
O      0.14589  0.17352  0.40226     O
H       0.1473   0.3298   0.3856     H
H       0.1476   0.8446   0.3872     H
C      0.15281  0.01425  0.99949     C
H       0.1554   0.6128   0.8524     H
C       0.1562    0.273   0.8278     C
H       0.1623   0.4026   0.2198     H
C       0.1722   0.8438    0.727     C
O      0.17352  0.40226  0.14589     O
N      0.17762  0.36312  0.91432     N
H       0.1991   0.9275   0.4874     H
H       0.2027   0.7617   0.5506     H
H       0.2058   0.8608   0.1382     H
H       0.2076   0.7772   0.7351     H
O      0.20854  0.02898  0.69901     O
C        0.215   0.4661   0.8696     C
H       0.2198   0.1623   0.4026     H
H       0.2225   0.6907   0.0558     H
H       0.2228   0.2649   0.7924     H
H       0.2366     0.06   0.6504     H
H       0.2383   0.4494   0.7973     H
H       0.2413   0.2599   0.0111     H
N      0.24513  0.01914   0.0014     N
C       0.2563    0.933   0.7133     C
H       0.2599   0.0111   0.2413     H
C       0.2601   0.3345   0.9948     C
H       0.2649   0.7924   0.2228     H
C       0.2721   0.4073   0.0972     C
C        0.273   0.8278   0.1562     C
H       0.2773   0.5031   0.9164     H
C       0.2867   0.7437    0.067     C
H       0.2925   0.4821   0.0821     H
H       0.2948   0.9129   0.6502     H
O      0.30099  0.79146  0.97102     O
H       0.3093   0.9442   0.7775     H
H       0.3298   0.3856   0.1473     H
H       0.3299   0.3368   0.9638     H
C       0.3345   0.9948   0.2601     C
H       0.3368   0.9638   0.3299     H
H       0.3496   0.7634     0.94     H
H       0.3498   0.7052   0.0871     H
N      0.36312  0.91432  0.17762     N
H       0.3856   0.1473   0.3298     H
H       0.3872   0.1476   0.8446     H
Cu     0.39284  0.99197  0.04292    Cu
O      0.40226  0.14589  0.17352     O
H       0.4026   0.2198   0.1623     H
C       0.4073   0.0972   0.2721     C
H       0.4494   0.7973   0.2383     H
C       0.4611   0.1376    0.874     C
O      0.46199  0.04049  0.92195     O
C       0.4661   0.8696    0.215     C
H       0.4821   0.0821   0.2925     H
H       0.4874   0.1991   0.9275     H
H       0.4969   0.0836   0.7227     H
H       0.5031   0.9164   0.2773     H
H       0.5126   0.8009   0.0725     H
H       0.5179   0.9179   0.7075     H
C       0.5339   0.1304    0.785     C
O      0.53801  0.95951  0.07805     O
C       0.5389   0.8624    0.126     C
H       0.5506   0.2027   0.7617     H
C       0.5927   0.9028   0.7279     C
H       0.5974   0.7802   0.8377     H
O      0.59774  0.85411  0.82648     O
Cu     0.60716  0.00803  0.95708    Cu
H       0.6128   0.8524   0.1554     H
H       0.6144   0.8527   0.6702     H
N      0.63688  0.08568  0.82238     N
H       0.6502   0.2948   0.9129     H
H       0.6504   0.2366     0.06     H
H       0.6632   0.0362   0.6701     H
C       0.6655   0.0052   0.7399     C
H       0.6701   0.6632   0.0362     H
H       0.6702   0.6144   0.8527     H
H       0.6907   0.0558   0.2225     H
O      0.69901  0.20854  0.02898     O
H       0.7052   0.0871   0.3498     H
H       0.7075   0.5179   0.9179     H
C       0.7133   0.2563    0.933     C
H       0.7227   0.4969   0.0836     H
C        0.727   0.1722   0.8438     C
C       0.7279   0.5927   0.9028     C
H       0.7351   0.2076   0.7772     H
C       0.7399   0.6655   0.0052     C
H       0.7401   0.9889   0.7587     H
C       0.7437    0.067   0.2867     C
N      0.75487  0.98086   0.9986     N
H       0.7587   0.7401   0.9889     H
H       0.7617   0.5506   0.2027     H
H       0.7634     0.94   0.3496     H
H       0.7772   0.7351   0.2076     H
H       0.7775   0.3093   0.9442     H
H       0.7802   0.8377   0.5974     H
C        0.785   0.5339   0.1304     C
O      0.79146  0.97102  0.30099     O
H       0.7924   0.2228   0.2649     H
H       0.7942   0.1392   0.8618     H
H       0.7973   0.2383   0.4494     H
H       0.8009   0.0725   0.5126     H
N      0.82238  0.63688  0.08568     N
O      0.82648  0.59774  0.85411     O
C       0.8278   0.1562    0.273     C
H       0.8377   0.5974   0.7802     H
C       0.8438    0.727   0.1722     C
H       0.8446   0.3872   0.1476     H
C      0.84719  0.98575  0.00051     C
H       0.8524   0.1554   0.6128     H
H       0.8527   0.6702   0.6144     H
O      0.85411  0.82648  0.59774     O
H       0.8608   0.1382   0.2058     H
H       0.8618   0.7942   0.1392     H
C       0.8624    0.126   0.5389     C
C       0.8696    0.215   0.4661     C
C        0.874   0.4611   0.1376     C
C       0.9028   0.7279   0.5927     C
H       0.9129   0.6502   0.2948     H
N      0.91432  0.17762  0.36312     N
H       0.9164   0.2773   0.5031     H
H       0.9179   0.7075   0.5179     H
O      0.92195  0.46199  0.04049     O
H       0.9275   0.4874   0.1991     H
C        0.933   0.7133   0.2563     C
H         0.94   0.3496   0.7634     H
H       0.9442   0.7775   0.3093     H
Cu     0.95708  0.60716  0.00803    Cu
O      0.95951  0.07805  0.53801     O
H       0.9638   0.3299   0.3368     H
O      0.97102  0.30099  0.79146     O
N      0.98086   0.9986  0.75487     N
C      0.98575  0.00051  0.84719     C
H       0.9889   0.7587   0.7401     H
Cu     0.99197  0.04292  0.39284    Cu
C       0.9948   0.2601   0.3345     C
N       0.9986  0.75487  0.98086     N
C      0.99949  0.15281  0.01425     C
