data_I
_chemical_name_common  '/home/zhangsd/repos/MofS-CGCNN/ML/data/WS24/clean_cifs/APUVIS'
_cell_length_a 14.78430
_cell_length_b 15.95390
_cell_length_c 15.95390
_cell_angle_alpha 120.00000
_cell_angle_beta  90.00000
_cell_angle_gamma 90.00000
_space_group_name_H-M_alt      'P 1'


loop_
_space_group_symop_operation_xyz
  'x, y, z' 

loop_
_atom_site_label
_atom_site_fract_x
_atom_site_fract_y
_atom_site_fract_z
_atom_site_type_symbol
C       0.0025   0.9954   0.4109     C
H       0.0128   0.2857   0.9299     H
N       0.0134   0.2429   0.6053     N
C     0.01886667    0.617   0.2489     C
O     0.01916667   0.6927   0.3288     O
C       0.0215   0.1759   0.4999     C
C       0.0311   0.9056   0.3868     C
H       0.0375   0.0822   0.6888     H
H     0.04223333   0.5046   0.5477     H
C       0.0425   0.1199    0.758     C
C       0.0448   0.2276   0.7893     C
C       0.0513   0.0751   0.4726     C
C       0.0626   0.2899   0.8936     C
H       0.0644   0.2027   0.4736     H
H        0.065    0.244    0.632     H
H       0.0697   0.3557   0.9084     H
H     0.07326667    0.457   0.2428     H
H       0.0952   0.2368   0.7549     H
H       0.0971   0.1028   0.7784     H
N       0.1075   0.8884   0.4193     N
H     0.10866667   0.5227    0.142     H
C     0.10946667   0.5629   0.2127     C
H     0.11546667   0.6179   0.0028     H
O     0.11663333    0.379   0.5772     O
H        0.117   0.2688   0.9105     H
C     0.12466667      0.5   0.2583     C
H     0.12586667   0.5417   0.3281     H
H     0.12996667   0.7019   0.1719     H
C       0.1304   0.0582   0.5089     C
Br    0.14602667  0.73356  0.52477    Br
Zn    0.15176667  0.75206  0.38554    Zn
C       0.1552   0.9665   0.4803     C
H     0.15806667   0.3201   0.1072     H
H     0.16196667   0.5077   0.8531     H
H        0.166   0.1097   0.5525     H
C     0.16916667   0.5845   0.9954     C
H     0.17946667   0.3558   0.2857     H
N     0.18006667   0.6376   0.2429     N
C     0.18553333   0.3681    0.617     C
O     0.18583333   0.3639   0.6927     O
C     0.18816667    0.676   0.1759     C
C     0.19776667   0.5188   0.9056     C
H     0.20416667   0.3934   0.0822     H
H       0.2089   0.9569   0.5046     H
C     0.20916667   0.3619   0.1199     C
C     0.21146667   0.4383   0.2276     C
C     0.21796667   0.6025   0.0751     C
C     0.22926667   0.3963   0.2899     C
H     0.23106667   0.7291   0.2027     H
H     0.23166667    0.612    0.244     H
H     0.23636667   0.4473   0.3557     H
H     0.23993333   0.2142    0.457     H
H     0.26186667   0.4819   0.2368     H
H     0.26376667   0.3244   0.1028     H
N     0.27416667   0.4691   0.8884     N
H     0.27533333   0.3807   0.5227     H
C     0.27613333   0.3502   0.5629     C
H     0.28213333   0.6151   0.6179     H
O       0.2833   0.8018    0.379     O
H     0.28366667   0.3583   0.2688     H
C     0.29133333   0.2417      0.5     C
H     0.29253333   0.2136   0.5417     H
H     0.29663333     0.53   0.7019     H
C     0.29706667   0.5493   0.0582     C
Br    0.31269333  0.20879  0.73356    Br
Zn    0.31843333  0.36652  0.75206    Zn
C     0.32186667   0.4862   0.9665     C
H     0.32473333   0.2129   0.3201     H
H     0.32863333   0.6546   0.5077     H
H     0.33266667   0.5572   0.1097     H
C     0.33583333   0.5891   0.5845     C
H     0.34613333   0.0701   0.3558     H
N     0.34673333   0.3947   0.6376     N
C       0.3522   0.7511   0.3681     C
O       0.3525   0.6712   0.3639     O
C     0.35483333   0.5001    0.676     C
C     0.36443333   0.6132   0.5188     C
H     0.37083333   0.3112   0.3934     H
H     0.37556667   0.4523   0.9569     H
C     0.37583333    0.242   0.3619     C
C     0.37813333   0.2107   0.4383     C
C     0.38463333   0.5274   0.6025     C
C     0.39593333   0.1064   0.3963     C
H     0.39773333   0.5264   0.7291     H
H     0.39833333    0.368    0.612     H
H     0.40303333   0.0916   0.4473     H
H       0.4066   0.7572   0.2142     H
H     0.42853333   0.2451   0.4819     H
H     0.43043333   0.2216   0.3244     H
N     0.44083333   0.5807   0.4691     N
H        0.442    0.858   0.3807     H
C       0.4428   0.7873   0.3502     C
H       0.4488   0.9972   0.6151     H
O     0.44996667   0.4228   0.8018     O
H     0.45033333   0.0895   0.3583     H
C        0.458   0.7417   0.2417     C
H       0.4592   0.6719   0.2136     H
H       0.4633   0.8281     0.53     H
C     0.46373333   0.4911   0.5493     C
Br     0.47936  0.47523  0.20879    Br
Zn      0.4851  0.61446  0.36652    Zn
C     0.48853333   0.5197   0.4862     C
H       0.4914   0.8928   0.2129     H
H       0.4953   0.1469   0.6546     H
H     0.49933333   0.4475   0.5572     H
C       0.5025   0.0046   0.5891     C
H       0.5128   0.7143   0.0701     H
N       0.5134   0.7571   0.3947     N
C     0.51886667    0.383   0.7511     C
O     0.51916667   0.3073   0.6712     O
C       0.5215   0.8241   0.5001     C
C       0.5311   0.0944   0.6132     C
H       0.5375   0.9178   0.3112     H
H     0.54223333   0.4954   0.4523     H
C       0.5425   0.8801    0.242     C
C       0.5448   0.7724   0.2107     C
C       0.5513   0.9249   0.5274     C
C       0.5626   0.7101   0.1064     C
H       0.5644   0.7973   0.5264     H
H        0.565    0.756    0.368     H
H       0.5697   0.6443   0.0916     H
H     0.57326667    0.543   0.7572     H
H       0.5952   0.7632   0.2451     H
H       0.5971   0.8972   0.2216     H
N       0.6075   0.1116   0.5807     N
H     0.60866667   0.4773    0.858     H
C     0.60946667   0.4371   0.7873     C
H     0.61546667   0.3821   0.9972     H
O     0.61663333    0.621   0.4228     O
H        0.617   0.7312   0.0895     H
C     0.62466667      0.5   0.7417     C
H     0.62586667   0.4583   0.6719     H
H     0.62996667   0.2981   0.8281     H
C       0.6304   0.9418   0.4911     C
Br    0.64602667  0.26644  0.47523    Br
Zn    0.65176667  0.24794  0.61446    Zn
C       0.6552   0.0335   0.5197     C
H     0.65806667   0.6799   0.8928     H
H     0.66196667   0.4923   0.1469     H
H        0.666   0.8903   0.4475     H
C     0.66916667   0.4155   0.0046     C
H     0.67946667   0.6442   0.7143     H
N     0.68006667   0.3624   0.7571     N
C     0.68553333   0.6319    0.383     C
O     0.68583333   0.6361   0.3073     O
C     0.68816667    0.324   0.8241     C
C     0.69776667   0.4812   0.0944     C
H     0.70416667   0.6066   0.9178     H
H       0.7089   0.0431   0.4954     H
C     0.70916667   0.6381   0.8801     C
C     0.71146667   0.5617   0.7724     C
C     0.71796667   0.3975   0.9249     C
C     0.72926667   0.6037   0.7101     C
H     0.73106667   0.2709   0.7973     H
H     0.73166667    0.388    0.756     H
H     0.73636667   0.5527   0.6443     H
H     0.73993333   0.7858    0.543     H
H     0.76186667   0.5181   0.7632     H
H     0.76376667   0.6756   0.8972     H
N     0.77416667   0.5309   0.1116     N
H     0.77533333   0.6193   0.4773     H
C     0.77613333   0.6498   0.4371     C
H     0.78213333   0.3849   0.3821     H
O       0.7833   0.1982    0.621     O
H     0.78366667   0.6417   0.7312     H
C     0.79133333   0.7583      0.5     C
H     0.79253333   0.7864   0.4583     H
H     0.79663333     0.47   0.2981     H
C     0.79706667   0.4507   0.9418     C
Br    0.81269333  0.79121  0.26644    Br
Zn    0.81843333  0.63348  0.24794    Zn
C     0.82186667   0.5138   0.0335     C
H     0.82473333   0.7871   0.6799     H
H     0.82863333   0.3454   0.4923     H
H     0.83266667   0.4428   0.8903     H
C     0.83583333   0.4109   0.4155     C
H     0.84613333   0.9299   0.6442     H
N     0.84673333   0.6053   0.3624     N
C       0.8522   0.2489   0.6319     C
O       0.8525   0.3288   0.6361     O
C     0.85483333   0.4999    0.324     C
C     0.86443333   0.3868   0.4812     C
H     0.87083333   0.6888   0.6066     H
H     0.87556667   0.5477   0.0431     H
C     0.87583333    0.758   0.6381     C
C     0.87813333   0.7893   0.5617     C
C     0.88463333   0.4726   0.3975     C
C     0.89593333   0.8936   0.6037     C
H     0.89773333   0.4736   0.2709     H
H     0.89833333    0.632    0.388     H
H     0.90303333   0.9084   0.5527     H
H       0.9066   0.2428   0.7858     H
H     0.92853333   0.7549   0.5181     H
H     0.93043333   0.7784   0.6756     H
N     0.94083333   0.4193   0.5309     N
H        0.942    0.142   0.6193     H
C       0.9428   0.2127   0.6498     C
H       0.9488   0.0028   0.3849     H
O     0.94996667   0.5772   0.1982     O
H     0.95033333   0.9105   0.6417     H
C        0.958   0.2583   0.7583     C
H       0.9592   0.3281   0.7864     H
H       0.9633   0.1719     0.47     H
C     0.96373333   0.5089   0.4507     C
Br     0.97936  0.52477  0.79121    Br
Zn      0.9851  0.38554  0.63348    Zn
C     0.98853333   0.4803   0.5138     C
H       0.9914   0.1072   0.7871     H
H       0.9953   0.8531   0.3454     H
H     0.99933333   0.5525   0.4428     H
