data_I
_chemical_name_common  '/home/zhangsd/repos/MofS-CGCNN/ML/data/WS24/clean_cifs/ATAHUA'
_cell_length_a 11.62740
_cell_length_b 19.66300
_cell_length_c 32.67800
_cell_angle_alpha 90.00000
_cell_angle_beta  90.00000
_cell_angle_gamma 90.00000
_space_group_name_H-M_alt      'P 1'


loop_
_space_group_symop_operation_xyz
  'x, y, z' 

loop_
_atom_site_label
_atom_site_fract_x
_atom_site_fract_y
_atom_site_fract_z
_atom_site_type_symbol
C       0.0008   0.3181   0.1738     C
C        0.001   0.2014    0.957     C
H       0.0015   0.0707   0.1509     H
H       0.0021   0.9781    0.478     H
C        0.003   0.3311   0.6815     C
C       0.0038   0.6151   0.0254     C
H       0.0044   0.9205    0.705     H
C       0.0083   0.5773   0.4531     C
C       0.0096    0.322   0.6394     C
C       0.0123   0.6759    0.048     C
H       0.0145   0.3793   0.9831     H
C       0.0146   0.3635   0.2075     C
C       0.0186   0.5496   0.8533     C
O        0.019   0.1993   0.9215     O
C       0.0233   0.1404   0.9847     C
C       0.0235    0.636   0.4762     C
C       0.0256   0.9618   0.6933     C
Cd     0.02593  0.84194  0.09827    Cd
O       0.0281   0.9583   0.0914     O
C       0.0287   0.1526   0.7789     C
C        0.031   0.9148   0.5268     C
C        0.033   0.9755   0.5042     C
Cd     0.03569  0.80645  0.59527    Cd
C       0.0378   0.0912   0.7998     C
C       0.0393   0.6138   0.2948     C
H       0.0396   0.5744    0.427     H
H       0.0404   0.5007    0.691     H
C       0.0405   0.4903   0.8362     C
H       0.0429   0.2735    0.097     H
C       0.0465   0.5417   0.7049     C
H       0.0489   0.8381   0.8774     H
O        0.053   0.7499   0.5282     O
H       0.0532   0.6791   0.8714     H
C       0.0538    0.023   0.0309     C
H        0.054   0.9328   0.2553     H
C       0.0548   0.5956   0.3356     C
H       0.0591    0.582   0.0305     H
C         0.06   0.9608    0.058     C
C       0.0636   0.0887    0.229     C
C       0.0647   0.6645   0.7466     C
H       0.0651   0.6723   0.4656     H
C       0.0665   0.9055   0.2781     C
H       0.0673   0.6829   0.0683     H
H       0.0708   0.7056   0.7606     H
C       0.0716   0.2259   0.4631     C
O       0.0729   0.3033   0.8399     O
C       0.0787   0.8592   0.7994     C
C       0.0795   0.0814   0.6593     C
C       0.0795   0.0997    0.504     C
N       0.0806   0.2878   0.4493     N
H       0.0851   0.1857   0.7821     H
C       0.0854   0.0861   0.9688     C
H       0.0857    0.364   0.2205     H
H       0.0861   0.3131   0.7348     H
C       0.0867   0.0336   0.5232     C
H       0.0873   0.4561   0.3434     H
N       0.0873    0.905    0.561     N
C       0.0905    0.307   0.7066     C
O       0.0929    0.117   0.2577     O
O       0.0954   0.9075   0.0399     O
C       0.0956   0.2747    0.158     C
N       0.0969    0.355   0.3464     N
C       0.0973    0.582   0.8847     C
C       0.0986   0.2596   0.1156     C
C       0.0995   0.6525   0.8882     C
C       0.1007   0.0274   0.9919     C
H        0.101   0.1226   0.6475     H
C       0.1037   0.2888   0.6224     C
C       0.1045    0.816   0.3449     C
H       0.1053   0.4666   0.8449     H
H       0.1082   0.2827   0.5942     H
O       0.1099   0.8611   0.7624     O
H       0.1132   0.6633   0.2474     H
H       0.1168   0.0891   0.9426     H
H       0.1202   0.7857    0.366     H
O       0.1204   0.0473    0.215     O
N        0.122   0.9935   0.7056     N
C       0.1224   0.4183   0.3317     C
O       0.1234   0.7775   0.1484     O
C       0.1235   0.6511   0.2746     C
H       0.1263   0.0341   0.8418     H
H       0.1352    0.357   0.4897     H
C       0.1375   0.9558   0.5781     C
H       0.1392   0.2647     0.34     H
C       0.1399   0.5536   0.7305     C
H       0.1422   0.9911   0.9812     H
C       0.1439   0.0735   0.8245     C
N       0.1442   0.2103   0.4937     N
O       0.1448   0.3491   0.8952     O
C       0.1464   0.0205   0.5596     C
C        0.147   0.1495   0.5126     C
C       0.1479   0.3317   0.8585     C
O       0.1483   0.9068   0.8184     O
C       0.1491    0.615   0.7513     C
C       0.1496   0.0517   0.6906     C
H        0.151   0.1677   0.8501     H
C        0.153   0.3084   0.3301     C
C       0.1545   0.6145    0.356     C
H       0.1558   0.7882   0.6861     H
H       0.1649   0.6023   0.3833     H
H       0.1651   0.4952   0.9074     H
C     0.16666667   0.5423   0.9098     C
H       0.1695   0.9497   0.6039     H
C       0.1709   0.3213   0.4731     C
C       0.1709   0.6832   0.9169     C
H       0.1723   0.7303   0.9192     H
C       0.1732    0.906   0.2998     C
C       0.1846   0.2738   0.6896     C
N       0.1854   0.8607   0.3309     N
H       0.1895   0.2686   0.2108     H
C       0.1912   0.2647   0.6475     C
H       0.1915   0.0541   0.5715     H
C       0.1917   0.2572   0.1832     C
H       0.1945   0.1982   0.0799     H
H       0.1963   0.5205   0.7336     H
C        0.197   0.1266   0.8502     C
H       0.1983   0.7379   0.9926     H
C       0.1985   0.2204    0.105     C
C       0.1993   0.4275   0.2997     C
H       0.2012   0.1431   0.5332     H
O       0.2034   0.7815    0.094     O
H       0.2053   0.1109   0.8782     H
N       0.2065   0.7887   0.6252     N
H        0.211    0.471   0.2894     H
H       0.2146   0.0744      0.7     H
C       0.2146   0.7656   0.1299     C
C       0.2146    0.775   0.6685     C
H       0.2157   0.4535   0.4553     H
H       0.2204    0.305   0.7816     H
H       0.2212   0.2873   0.5285     H
C        0.223    0.272   0.5003     C
C       0.2233     0.67   0.2951     C
H       0.2272   0.7242   0.7874     H
Cd     0.23556  0.95339  0.75982    Cd
C        0.236   0.3142   0.2976     C
N        0.237   0.0531   0.7939     N
C        0.238   0.5731   0.9385     C
C       0.2388   0.6518   0.3358     C
C       0.2401   0.6435    0.942     C
C       0.2412   0.6262   0.7829     C
H       0.2432   0.2577   0.7064     H
H       0.2568   0.7423   0.2064     H
C       0.2588   0.3738   0.2829     C
C       0.2599   0.3565    0.442     C
C       0.2612   0.3482   0.8358     C
C        0.262   0.4269   0.4385     C
N        0.263   0.9469   0.2939     N
C        0.264   0.6858   0.7976     C
Cd     0.26444  0.04661  0.25982    Cd
H       0.2728   0.2758   0.2874     H
C       0.2767     0.33   0.7951     C
C        0.277    0.728   0.0003     C
H       0.2788   0.7127   0.0285     H
H       0.2796    0.695   0.2816     H
H       0.2843   0.5465   0.9553     H
C       0.2854    0.225   0.1685     C
C       0.2854   0.2344   0.6299     C
H       0.2854   0.9256      0.2     H
H        0.289    0.529   0.7894     H
N       0.2935   0.2113   0.1252     N
H       0.2947   0.8891   0.3782     H
O       0.2966   0.2185    0.594     O
H       0.2988   0.8569   0.0332     H
C       0.3007   0.5725   0.7997     C
C       0.3015   0.7796    0.605     C
H       0.3017   0.2621   0.4926     H
C        0.303   0.8734   0.3502     C
H       0.3037   0.4795   0.2336     H
H       0.3055   0.8018   0.5799     H
C       0.3083   0.7428   0.6832     C
H       0.3085   0.9459   0.0715     H
C       0.3088   0.7353   0.1475     C
H       0.3105   0.7314   0.7108     H
N       0.3146   0.1393   0.8309     N
C       0.3154   0.7262   0.1896     C
C       0.3268    0.094   0.7998     C
H       0.3277   0.2697   0.4192     H
C       0.3291   0.3168   0.4169     C
C       0.3291   0.6787   0.9731     C
H       0.3305   0.0503   0.1039     H
C     0.33333333   0.4577   0.4098     C
H       0.3349   0.5048   0.4074     H
H       0.3351   0.3977   0.8833     H
H       0.3442   0.2118   0.1861     H
C       0.3455   0.3855    0.856     C
C        0.347   0.6916   0.8301     C
H        0.349   0.8323   0.3501     H
C       0.3504   0.9483   0.1906     C
C       0.3509    0.385   0.2513     C
O       0.3517   0.0932   0.3184     O
C       0.3521   0.6683   0.3585     C
C        0.353   0.8505   0.0126     C
C       0.3536   0.9795   0.0596     C
O       0.3552   0.6509   0.3952     O
N       0.3558   0.7897   0.9937     N
C       0.3561   0.9265   0.3245     C
H       0.3578   0.0089   0.4812     H
C       0.3601   0.4464   0.2305     C
H       0.3608   0.7353     0.84     H
C       0.3625   0.0442   0.0781     C
H       0.3648    0.643   0.9897     H
H       0.3737   0.9659   0.3418     H
C       0.3765   0.3489   0.7746     C
O       0.3766   0.2225   0.6484     O
C       0.3776   0.5817   0.8317     C
N        0.378   0.0065   0.2056     N
O       0.3796   0.9527    0.715     O
H       0.3798   0.2143    0.866     H
H       0.3832   0.9109   0.4426     H
H       0.3868   0.3367   0.7474     H
O       0.3901   0.1389   0.2624     O
H       0.3918   0.7173   0.0942     H
H       0.3947   0.5334   0.3449     H
C       0.3955    0.184   0.8449     C
C       0.3963   0.7112   0.1224     C
H        0.399   0.8774   0.1475     H
C       0.3993   0.9726   0.4919     C
C       0.4005   0.3475   0.3882     C
C       0.4014   0.7404   0.6156     C
C       0.4027    0.418   0.3847     C
N       0.4031    0.645   0.8464     N
C       0.4044   0.7253    0.658     C
O       0.4046   0.0925   0.5399     O
O       0.4071    0.883   0.7577     O
C       0.4095    0.693   0.2066     C
N       0.4127    0.095    0.061     N
H       0.4127   0.5439   0.8434     H
C       0.4133   0.9664   0.0232     C
H       0.4139   0.6869   0.2348     H
H       0.4143    0.636   0.7205     H
C       0.4146   0.9139   0.4688     C
H       0.4149   0.8143   0.2821     H
N       0.4194   0.7122   0.9493     N
C       0.4205   0.9003    0.004     C
C       0.4205   0.9186   0.1593     C
C       0.4213   0.1408   0.2994     C
O       0.4271   0.6967   0.3399     O
C       0.4284   0.7741   0.9631     C
H       0.4292   0.2944   0.2606     H
H       0.4327   0.3171   0.5683     H
C       0.4335   0.0945   0.7781     C
H       0.4349   0.3277   0.9656     H
C       0.4353   0.3355   0.2466     C
C       0.4364   0.9113    0.729     C
C         0.44   0.0392    0.558     C
H       0.4409    0.418   0.5305     H
C       0.4452   0.4044   0.8356     C
H        0.446   0.0672   0.7553     H
C       0.4462    0.977   0.5309     C
H       0.4468   0.3209   0.3714     H
O        0.447   0.2501   0.0282     O
H       0.4511   0.1619   0.3774     H
C       0.4535   0.4583   0.2049     C
H       0.4571   0.7265    0.597     H
C       0.4595   0.5097   0.3362     C
H       0.4596   0.4993    0.191     H
H       0.4604   0.4256    0.927     H
C       0.4607   0.3862   0.7948     C
C       0.4622   0.9088   0.2998     C
Cd     0.46431  0.19355  0.09527    Cd
C        0.467   0.0245   0.0042     C
C        0.469   0.0852   0.0268     C
C       0.4713   0.8474   0.2789     C
O       0.4719   0.0417   0.5914     O
Cd     0.47407  0.15806  0.59827    Cd
C       0.4744   0.0382   0.1933     C
C       0.4765    0.364   0.9762     C
C       0.4767   0.8596   0.4847     C
O        0.481   0.8007   0.4215     O
C       0.4814   0.4504   0.3533     C
C       0.4854   0.6365   0.7075     C
H       0.4855   0.6207   0.4831     H
C       0.4877   0.3241    0.548     C
C       0.4904    0.678   0.1394     C
C       0.4917   0.4227   0.9531     C
H       0.4956   0.0795    0.205     H
C       0.4962   0.3849   0.5254     C
C        0.497   0.6689   0.1815     C
H       0.4979   0.0219    0.978     H
H       0.4985   0.9293   0.6509     H
C        0.499   0.7986    0.457     C
C       0.4992   0.6819   0.6738     C
C       0.5008   0.1819   0.8262     C
C        0.501   0.2986    0.043     C
H       0.5015   0.4293   0.8491     H
H       0.5021   0.5219    0.522     H
C        0.503   0.1689   0.3185     C
C       0.5038   0.8849   0.9746     C
H       0.5044   0.5795    0.295     H
C       0.5083   0.9227   0.5469     C
C       0.5096    0.178   0.3606     C
C       0.5123   0.8241    0.952     C
H       0.5145   0.1207   0.0169     H
C       0.5146   0.1365   0.7925     C
C       0.5186   0.9504   0.1467     C
O        0.519   0.3007   0.0785     O
C       0.5233   0.3596   0.0153     C
C       0.5235    0.864   0.5238     C
C       0.5256   0.5382   0.3067     C
Cd     0.52593  0.65806  0.90173    Cd
O       0.5281   0.5417   0.9086     O
C       0.5287   0.3474   0.2211     C
C        0.531   0.5852   0.4732     C
C        0.533   0.5245   0.4958     C
Cd     0.53569  0.69355  0.40473    Cd
C       0.5378   0.4088   0.2002     C
C       0.5393   0.8862   0.7052     C
H       0.5396   0.9256    0.573     H
H       0.5404   0.9993    0.309     H
C       0.5405   0.0097   0.1638     C
H       0.5429   0.2265    0.903     H
C       0.5465   0.9583   0.2951     C
H       0.5489   0.6619   0.1226     H
O        0.553   0.7501   0.4718     O
H       0.5532   0.8209   0.1286     H
C       0.5538    0.477   0.9691     C
H        0.554   0.5672   0.7447     H
C       0.5548   0.9044   0.6644     C
H       0.5591    0.918   0.9695     H
C         0.56   0.5392    0.942     C
C       0.5636   0.4113    0.771     C
C       0.5647   0.8355   0.2534     C
H       0.5651   0.8277   0.5344     H
C       0.5665   0.5945   0.7219     C
H       0.5673   0.8171   0.9317     H
H       0.5708   0.7944   0.2394     H
C       0.5716   0.2741   0.5369     C
O       0.5729   0.1967   0.1601     O
C       0.5787   0.6408   0.2006     C
C       0.5795   0.4003    0.496     C
C       0.5795   0.4186   0.3407     C
N       0.5806   0.2122   0.5507     N
H       0.5851   0.3143   0.2179     H
C       0.5854   0.4139   0.0312     C
H       0.5857    0.136   0.7795     H
H       0.5861   0.1869   0.2652     H
C       0.5867   0.4664   0.4768     C
H       0.5873   0.0439   0.6566     H
N       0.5873    0.595    0.439     N
C       0.5905    0.193   0.2934     C
O       0.5929    0.383   0.7423     O
O       0.5954   0.5925   0.9601     O
C       0.5956   0.2253    0.842     C
N       0.5969    0.145   0.6536     N
C       0.5973    0.918   0.1153     C
C       0.5986   0.2404   0.8844     C
C       0.5995   0.8475   0.1118     C
C       0.6007   0.4726   0.0081     C
H        0.601   0.3774   0.3525     H
C       0.6037   0.2112   0.3776     C
C       0.6045    0.684   0.6551     C
H       0.6053   0.0334   0.1551     H
H       0.6082   0.2173   0.4058     H
O       0.6099   0.6389   0.2376     O
H       0.6132   0.8367   0.7526     H
H       0.6168   0.4109   0.0574     H
H       0.6202   0.7143    0.634     H
O       0.6204   0.4527    0.785     O
N        0.622   0.5065   0.2944     N
C       0.6224   0.0817   0.6683     C
O       0.6234   0.7225   0.8516     O
C       0.6235   0.8489   0.7254     C
H       0.6263   0.4659   0.1582     H
H       0.6352    0.143   0.5103     H
C       0.6375   0.5442   0.4219     C
H       0.6392   0.2353     0.66     H
C       0.6399   0.9464   0.2695     C
H       0.6422   0.5089   0.0188     H
C       0.6439   0.4265   0.1755     C
N       0.6442   0.2897   0.5063     N
O       0.6448   0.1509   0.1048     O
C       0.6464   0.4795   0.4404     C
C        0.647   0.3505   0.4874     C
C       0.6479   0.1683   0.1415     C
O       0.6483   0.5932   0.1816     O
C       0.6491    0.885   0.2487     C
C       0.6496   0.4483   0.3094     C
H        0.651   0.3323   0.1499     H
C        0.653   0.1916   0.6699     C
C       0.6545   0.8855    0.644     C
H       0.6558   0.7118   0.3139     H
H       0.6649   0.8977   0.6167     H
H       0.6651   0.0048   0.0926     H
C     0.66666667   0.9577   0.0902     C
H       0.6695   0.5503   0.3961     H
C       0.6709   0.1787   0.5269     C
C       0.6709   0.8168   0.0831     C
H       0.6723   0.7697   0.0808     H
C       0.6732    0.594   0.7002     C
C       0.6846   0.2262   0.3104     C
N       0.6854   0.6393   0.6691     N
H       0.6895   0.2314   0.7892     H
C       0.6912   0.2353   0.3525     C
H       0.6915   0.4459   0.4285     H
C       0.6917   0.2428   0.8168     C
H       0.6945   0.3018   0.9201     H
H       0.6963   0.9795   0.2664     H
C        0.697   0.3734   0.1498     C
H       0.6983   0.7621   0.0074     H
C       0.6985   0.2796    0.895     C
C       0.6993   0.0725   0.7003     C
H       0.7012   0.3569   0.4668     H
O       0.7034   0.7185    0.906     O
H       0.7053   0.3891   0.1218     H
N       0.7065   0.7113   0.3748     N
H        0.711    0.029   0.7106     H
H       0.7146   0.4256      0.3     H
C       0.7146    0.725   0.3315     C
C       0.7146   0.7344   0.8701     C
H       0.7157   0.0465   0.5447     H
H       0.7204    0.195   0.2184     H
H       0.7212   0.2127   0.4715     H
C        0.723    0.228   0.4997     C
C       0.7233     0.83   0.7049     C
H       0.7272   0.7758   0.2126     H
Cd     0.73556  0.54661  0.24018    Cd
C        0.736   0.1858   0.7024     C
N        0.737   0.4469   0.2061     N
C        0.738   0.9269   0.0615     C
C       0.7388   0.8482   0.6642     C
C       0.7401   0.8565    0.058     C
C       0.7412   0.8738   0.2171     C
H       0.7432   0.2423   0.2936     H
H       0.7568   0.7577   0.7936     H
C       0.7588   0.1262   0.7171     C
C       0.7599   0.1435    0.558     C
C       0.7612   0.1518   0.1642     C
C        0.762   0.0731   0.5615     C
N        0.763   0.5531   0.7061     N
C        0.764   0.8142   0.2024     C
Cd     0.76444  0.45339  0.74018    Cd
H       0.7728   0.2242   0.7126     H
C       0.7767     0.17   0.2049     C
C        0.777    0.772   0.9997     C
H       0.7788   0.7873   0.9715     H
H       0.7796    0.805   0.7184     H
H       0.7843   0.9535   0.0447     H
C       0.7854   0.2656   0.3701     C
C       0.7854    0.275   0.8315     C
H       0.7854   0.5744      0.8     H
H        0.789    0.971   0.2106     H
N       0.7935   0.2887   0.8748     N
H       0.7947   0.6109   0.6218     H
O       0.7966   0.2815    0.406     O
H       0.7988   0.6431   0.9668     H
C       0.8007   0.9275   0.2003     C
C       0.8015   0.7204    0.395     C
H       0.8017   0.2379   0.5074     H
C        0.803   0.6266   0.6498     C
H       0.8037   0.0205   0.7664     H
H       0.8055   0.6982   0.4201     H
C       0.8083   0.7572   0.3168     C
H       0.8085   0.5541   0.9285     H
C       0.8088   0.7647   0.8525     C
H       0.8105   0.7686   0.2892     H
N       0.8146   0.3607   0.1691     N
C       0.8154   0.7738   0.8104     C
C       0.8268    0.406   0.2002     C
H       0.8277   0.2303   0.5808     H
C       0.8291   0.1832   0.5831     C
C       0.8291   0.8213   0.0269     C
H       0.8305   0.4497   0.8961     H
C     0.83333333   0.0423   0.5902     C
H       0.8349   0.9952   0.5926     H
H       0.8351   0.1023   0.1167     H
H       0.8442   0.2882   0.8139     H
C       0.8455   0.1145    0.144     C
C        0.847   0.8084   0.1699     C
H        0.849   0.6677   0.6499     H
C       0.8504   0.5517   0.8094     C
C       0.8509    0.115   0.7487     C
O       0.8517   0.4068   0.6816     O
C       0.8521   0.8317   0.6415     C
C        0.853   0.6495   0.9874     C
C       0.8536   0.5205   0.9404     C
O       0.8552   0.8491   0.6048     O
N       0.8558   0.7103   0.0063     N
C       0.8561   0.5735   0.6755     C
H       0.8578   0.4911   0.5188     H
C       0.8601   0.0536   0.7695     C
H       0.8608   0.7647     0.16     H
C       0.8625   0.4558   0.9219     C
H       0.8648    0.857   0.0103     H
H       0.8737   0.5341   0.6582     H
C       0.8765   0.1511   0.2254     C
O       0.8766   0.2775   0.3516     O
C       0.8776   0.9183   0.1683     C
N        0.878   0.4935   0.7944     N
O       0.8796   0.5473    0.285     O
H       0.8798   0.2857    0.134     H
H       0.8832   0.5891   0.5574     H
H       0.8868   0.1633   0.2526     H
O       0.8901   0.3611   0.7376     O
H       0.8918   0.7827   0.9058     H
H       0.8947   0.9666   0.6551     H
C       0.8955    0.316   0.1551     C
C       0.8963   0.7888   0.8776     C
H        0.899   0.6226   0.8525     H
C       0.8993   0.5274   0.5081     C
C       0.9005   0.1525   0.6118     C
C       0.9014   0.7596   0.3844     C
C       0.9027    0.082   0.6153     C
N       0.9031    0.855   0.1536     N
C       0.9044   0.7747    0.342     C
O       0.9046   0.4075   0.4601     O
O       0.9071    0.617   0.2423     O
C       0.9095    0.807   0.7934     C
N       0.9127    0.405    0.939     N
H       0.9127   0.9561   0.1566     H
C       0.9133   0.5336   0.9768     C
H       0.9139   0.8131   0.7652     H
H       0.9143    0.864   0.2795     H
C       0.9146   0.5861   0.5312     C
H       0.9149   0.6857   0.7179     H
N       0.9194   0.7878   0.0507     N
C       0.9205   0.5814   0.8407     C
C       0.9205   0.5997    0.996     C
C       0.9213   0.3592   0.7006     C
O       0.9271   0.8033   0.6601     O
C       0.9284   0.7259   0.0369     C
H       0.9292   0.2056   0.7394     H
H       0.9327   0.1829   0.4317     H
C       0.9335   0.4055   0.2219     C
H       0.9349   0.1723   0.0344     H
C       0.9353   0.1645   0.7534     C
C       0.9364   0.5887    0.271     C
C         0.94   0.4608    0.442     C
H       0.9409    0.082   0.4695     H
C       0.9452   0.0956   0.1644     C
H        0.946   0.4328   0.2447     H
C       0.9462    0.523   0.4691     C
H       0.9468   0.1791   0.6286     H
O        0.947   0.2499   0.9718     O
H       0.9511   0.3381   0.6226     H
C       0.9535   0.0417   0.7951     C
H       0.9571   0.7735    0.403     H
C       0.9595   0.9903   0.6638     C
H       0.9596   0.0007    0.809     H
H       0.9604   0.0744    0.073     H
C       0.9607   0.1138   0.2052     C
C       0.9622   0.5912   0.7002     C
Cd     0.96431  0.30645  0.90473    Cd
C        0.967   0.4755   0.9958     C
C        0.969   0.4148   0.9732     C
C       0.9713   0.6526   0.7211     C
O       0.9719   0.4583   0.4086     O
Cd     0.97407  0.34194  0.40173    Cd
C       0.9744   0.4618   0.8067     C
C       0.9765    0.136   0.0238     C
C       0.9767   0.6404   0.5153     C
O        0.981   0.6993   0.5785     O
C       0.9814   0.0496   0.6467     C
C       0.9854   0.8635   0.2925     C
H       0.9855   0.8793   0.5169     H
C       0.9877   0.1759    0.452     C
C       0.9904    0.822   0.8606     C
C       0.9917   0.0773   0.0469     C
H       0.9956   0.4205    0.795     H
C       0.9962   0.1151   0.4746     C
C        0.997   0.8311   0.8185     C
H       0.9979   0.4781    0.022     H
H       0.9985   0.5707   0.3491     H
C        0.999   0.7014    0.543     C
C       0.9992   0.8181   0.3262     C
