data_I
_chemical_name_common  '/home/zhangsd/repos/MofS-CGCNN/ML/data/WS24/clean_cifs/ATAYAX'
_cell_length_a 18.55700
_cell_length_b 18.55700
_cell_length_c 24.18900
_cell_angle_alpha 90.00000
_cell_angle_beta  90.00000
_cell_angle_gamma 120.00000
_space_group_name_H-M_alt      'P 1'


loop_
_space_group_symop_operation_xyz
  'x, y, z' 

loop_
_atom_site_label
_atom_site_fract_x
_atom_site_fract_y
_atom_site_fract_z
_atom_site_type_symbol
O       0.0283   0.4374  0.07241     O
O       0.0283   0.4374  0.42759     O
O       0.0283   0.5909  0.07241     O
O       0.0283   0.5909  0.42759     O
F      0.05165   0.1033     0.25     F
F      0.05165  0.94835     0.25     F
Zn     0.05397  0.52698  0.55025    Zn
Zn     0.05397  0.52698  0.94975    Zn
H       0.0748   0.3668   0.1384     H
H       0.0748   0.3668   0.3616     H
H       0.0748    0.708   0.1384     H
H       0.0748    0.708   0.3616     H
C       0.0912   0.4498   0.0452     C
C       0.0912   0.4498   0.4548     C
C       0.0912   0.6414   0.0452     C
C       0.0912   0.6414   0.4548     C
C      0.09665   0.1933     0.25     C
C      0.09665  0.90335     0.25     C
H      0.10195   0.2039   0.1639     H
H      0.10195   0.2039   0.3361     H
H      0.10195  0.89805   0.1639     H
H      0.10195  0.89805   0.3361     H
F       0.1033  0.05165     0.75     F
O      0.10959   0.4807  0.50222     O
O      0.10959   0.4807  0.99778     O
O      0.10959  0.62889  0.50222     O
O      0.10959  0.62889  0.99778     O
C       0.1168   0.2336   0.1979     C
C       0.1168   0.2336   0.3021     C
C       0.1168   0.8832   0.1979     C
C       0.1168   0.8832   0.3021     C
C       0.1259   0.3806   0.1209     C
C       0.1259   0.3806   0.3791     C
C       0.1259   0.7453   0.1209     C
C       0.1259   0.7453   0.3791     C
C       0.1459   0.4226  0.07125     C
C       0.1459   0.4226  0.42875     C
C       0.1459   0.7233  0.07125     C
C       0.1459   0.7233  0.42875     C
C      0.15675   0.3135   0.2002     C
C      0.15675   0.3135   0.2998     C
C      0.15675  0.84325   0.2002     C
C      0.15675  0.84325   0.2998     C
C      0.17625   0.3525     0.25     C
C      0.17625  0.82375     0.25     C
C       0.1791   0.3582   0.1457     C
C       0.1791   0.3582   0.3543     C
C       0.1791   0.8209   0.1457     C
C       0.1791   0.8209   0.3543     C
C       0.1933  0.09665     0.75     C
H       0.2039  0.10195   0.6639     H
H       0.2039  0.10195   0.8361     H
N      0.22065   0.4413     0.25     N
N      0.22065  0.77935     0.25     N
C       0.2214   0.4428   0.0453     C
C       0.2214   0.4428   0.4547     C
C       0.2214   0.7786   0.0453     C
C       0.2214   0.7786   0.4547     C
C       0.2336   0.1168   0.6979     C
C       0.2336   0.1168   0.8021     C
H      0.23435   0.4687   0.2185     H
H      0.23435   0.4687   0.2815     H
H      0.23435  0.76565   0.2185     H
H      0.23435  0.76565   0.2815     H
H        0.235     0.47   0.0105     H
H        0.235     0.47   0.4895     H
H        0.235    0.765   0.0105     H
H        0.235    0.765   0.4895     H
C       0.2547   0.3806   0.1209     C
C       0.2547   0.3806   0.3791     C
C       0.2547   0.8741   0.1209     C
C       0.2547   0.8741   0.3791     C
C       0.2767   0.4226  0.07125     C
C       0.2767   0.4226  0.42875     C
C       0.2767   0.8541  0.07125     C
C       0.2767   0.8541  0.42875     C
H        0.292   0.3668   0.1384     H
H        0.292   0.3668   0.3616     H
H        0.292   0.9252   0.1384     H
H        0.292   0.9252   0.3616     H
C       0.3135  0.15675   0.7002     C
C       0.3135  0.15675   0.7998     C
C       0.3525  0.17625     0.75     C
C       0.3582   0.1791   0.6457     C
C       0.3582   0.1791   0.8543     C
C       0.3586   0.4498   0.0452     C
C       0.3586   0.4498   0.4548     C
C       0.3586   0.9088   0.0452     C
C       0.3586   0.9088   0.4548     C
H       0.3668   0.0748   0.6384     H
H       0.3668   0.0748   0.8616     H
H       0.3668    0.292   0.6384     H
H       0.3668    0.292   0.8616     H
O      0.37111   0.4807  0.50222     O
O      0.37111   0.4807  0.99778     O
O      0.37111  0.89041  0.50222     O
O      0.37111  0.89041  0.99778     O
C       0.3806   0.1259   0.6209     C
C       0.3806   0.1259   0.8791     C
C       0.3806   0.2547   0.6209     C
C       0.3806   0.2547   0.8791     C
O       0.4091   0.4374  0.07241     O
O       0.4091   0.4374  0.42759     O
O       0.4091   0.9717  0.07241     O
O       0.4091   0.9717  0.42759     O
C       0.4226   0.1459  0.57125     C
C       0.4226   0.1459  0.92875     C
C       0.4226   0.2767  0.57125     C
C       0.4226   0.2767  0.92875     C
O       0.4374   0.0283  0.57241     O
O       0.4374   0.0283  0.92759     O
O       0.4374   0.4091  0.57241     O
O       0.4374   0.4091  0.92759     O
N       0.4413  0.22065     0.75     N
C       0.4428   0.2214   0.5453     C
C       0.4428   0.2214   0.9547     C
C       0.4498   0.0912   0.5452     C
C       0.4498   0.0912   0.9548     C
C       0.4498   0.3586   0.5452     C
C       0.4498   0.3586   0.9548     C
H       0.4687  0.23435   0.7185     H
H       0.4687  0.23435   0.7815     H
H         0.47    0.235   0.5105     H
H         0.47    0.235   0.9895     H
Zn     0.47302  0.52698  0.94975    Zn
Zn     0.47302  0.52699  0.55025    Zn
Zn     0.47302  0.94603  0.55025    Zn
Zn     0.47302  0.94603  0.94975    Zn
O       0.4807  0.10959  0.00222     O
O       0.4807  0.10959  0.49778     O
O       0.4807  0.37111  0.00222     O
O       0.4807  0.37111  0.49778     O
O       0.5193  0.62889  0.50222     O
O       0.5193  0.62889  0.99778     O
O       0.5193  0.89041  0.50222     O
O       0.5193  0.89041  0.99778     O
Zn     0.52698  0.05397  0.05025    Zn
Zn     0.52698  0.05397  0.44975    Zn
Zn     0.52698  0.47302  0.05025    Zn
Zn     0.52698  0.47302  0.44975    Zn
H         0.53    0.765   0.0105     H
H         0.53    0.765   0.4895     H
H       0.5313  0.76565   0.2185     H
H       0.5313  0.76565   0.2815     H
C       0.5502   0.6414   0.0452     C
C       0.5502   0.6414   0.4548     C
C       0.5502   0.9088   0.0452     C
C       0.5502   0.9088   0.4548     C
C       0.5572   0.7786   0.0453     C
C       0.5572   0.7786   0.4547     C
N       0.5587  0.77935     0.25     N
O       0.5626   0.5909  0.07241     O
O       0.5626   0.5909  0.42759     O
O       0.5626   0.9717  0.07241     O
O       0.5626   0.9717  0.42759     O
C       0.5774   0.7233  0.07125     C
C       0.5774   0.7233  0.42875     C
C       0.5774   0.8541  0.07125     C
C       0.5774   0.8541  0.42875     C
O       0.5909   0.0283  0.57241     O
O       0.5909   0.0283  0.92759     O
O       0.5909   0.5626  0.57241     O
O       0.5909   0.5626  0.92759     O
C       0.6194   0.7453   0.1209     C
C       0.6194   0.7453   0.3791     C
C       0.6194   0.8741   0.1209     C
C       0.6194   0.8741   0.3791     C
O      0.62889  0.10959  0.00222     O
O      0.62889  0.10959  0.49778     O
O      0.62889   0.5193  0.00222     O
O      0.62889   0.5193  0.49778     O
H       0.6332    0.708   0.1384     H
H       0.6332    0.708   0.3616     H
H       0.6332   0.9252   0.1384     H
H       0.6332   0.9252   0.3616     H
C       0.6414   0.0912   0.5452     C
C       0.6414   0.0912   0.9548     C
C       0.6414   0.5502   0.5452     C
C       0.6414   0.5502   0.9548     C
C       0.6418   0.8209   0.1457     C
C       0.6418   0.8209   0.3543     C
C       0.6475  0.82375     0.25     C
C       0.6865  0.84325   0.2002     C
C       0.6865  0.84325   0.2998     C
H        0.708   0.0748   0.6384     H
H        0.708   0.0748   0.8616     H
H        0.708   0.6332   0.6384     H
H        0.708   0.6332   0.8616     H
C       0.7233   0.1459  0.57125     C
C       0.7233   0.1459  0.92875     C
C       0.7233   0.5774  0.57125     C
C       0.7233   0.5774  0.92875     C
C       0.7453   0.1259   0.6209     C
C       0.7453   0.1259   0.8791     C
C       0.7453   0.6194   0.6209     C
C       0.7453   0.6194   0.8791     C
H        0.765    0.235   0.5105     H
H        0.765    0.235   0.9895     H
H        0.765     0.53   0.5105     H
H        0.765     0.53   0.9895     H
H      0.76565  0.23435   0.7185     H
H      0.76565  0.23435   0.7815     H
H      0.76565   0.5313   0.7185     H
H      0.76565   0.5313   0.7815     H
C       0.7664   0.8832   0.1979     C
C       0.7664   0.8832   0.3021     C
C       0.7786   0.2214   0.5453     C
C       0.7786   0.2214   0.9547     C
C       0.7786   0.5572   0.5453     C
C       0.7786   0.5572   0.9547     C
N      0.77935  0.22065     0.75     N
N      0.77935   0.5587     0.75     N
H       0.7961  0.89805   0.1639     H
H       0.7961  0.89805   0.3361     H
C       0.8067  0.90335     0.25     C
C       0.8209   0.1791   0.6457     C
C       0.8209   0.1791   0.8543     C
C       0.8209   0.6418   0.6457     C
C       0.8209   0.6418   0.8543     C
C      0.82375  0.17625     0.75     C
C      0.82375   0.6475     0.75     C
C      0.84325  0.15675   0.7002     C
C      0.84325  0.15675   0.7998     C
C      0.84325   0.6865   0.7002     C
C      0.84325   0.6865   0.7998     C
C       0.8541   0.2767  0.57125     C
C       0.8541   0.2767  0.92875     C
C       0.8541   0.5774  0.57125     C
C       0.8541   0.5774  0.92875     C
C       0.8741   0.2547   0.6209     C
C       0.8741   0.2547   0.8791     C
C       0.8741   0.6194   0.6209     C
C       0.8741   0.6194   0.8791     C
C       0.8832   0.1168   0.6979     C
C       0.8832   0.1168   0.8021     C
C       0.8832   0.7664   0.6979     C
C       0.8832   0.7664   0.8021     C
O      0.89041  0.37111  0.00222     O
O      0.89041  0.37111  0.49778     O
O      0.89041   0.5193  0.00222     O
O      0.89041   0.5193  0.49778     O
F       0.8967  0.94835     0.25     F
H      0.89805  0.10195   0.6639     H
H      0.89805  0.10195   0.8361     H
H      0.89805   0.7961   0.6639     H
H      0.89805   0.7961   0.8361     H
C      0.90335  0.09665     0.75     C
C      0.90335   0.8067     0.75     C
C       0.9088   0.3586   0.5452     C
C       0.9088   0.3586   0.9548     C
C       0.9088   0.5502   0.5452     C
C       0.9088   0.5502   0.9548     C
H       0.9252    0.292   0.6384     H
H       0.9252    0.292   0.8616     H
H       0.9252   0.6332   0.6384     H
H       0.9252   0.6332   0.8616     H
Zn     0.94603  0.47302  0.05025    Zn
Zn     0.94603  0.47302  0.44975    Zn
F      0.94835  0.05165     0.75     F
F      0.94835   0.8967     0.75     F
O       0.9717   0.4091  0.57241     O
O       0.9717   0.4091  0.92759     O
O       0.9717   0.5626  0.57241     O
O       0.9717   0.5626  0.92759     O
