data_I
_chemical_name_common  '/home/zhangsd/repos/MofS-CGCNN/ML/data/WS24/clean_cifs/AVUHEF'
_cell_length_a 12.58100
_cell_length_b 12.58300
_cell_length_c 17.04600
_cell_angle_alpha 90.00000
_cell_angle_beta  93.32000
_cell_angle_gamma 90.00000
_space_group_name_H-M_alt      'P 1'


loop_
_space_group_symop_operation_xyz
  'x, y, z' 

loop_
_atom_site_label
_atom_site_fract_x
_atom_site_fract_y
_atom_site_fract_z
_atom_site_type_symbol
C       0.0131   0.6616   0.3463     C
C       0.0131   0.8384   0.8463     C
C        0.015   0.2361    0.676     C
C        0.015   0.2639    0.176     C
C       0.0181   0.2354  0.92809     C
C       0.0181   0.2646  0.42809     C
H       0.0214   0.6127   0.0446     H
H       0.0214   0.8873   0.5446     H
C       0.0331   0.5282  0.62566     C
C       0.0331   0.9718  0.12566     C
H       0.0374   0.6839   0.8242     H
H       0.0374   0.8161   0.3242     H
C       0.0429   0.1553   0.4598     C
C       0.0429   0.3447   0.9598     C
C       0.0585   0.0482  0.92141     C
C       0.0585   0.4518  0.42141     C
C      0.06099   0.0817  0.15281     C
C      0.06099   0.4183  0.65281     C
H       0.0647   0.1611   0.5152     H
H       0.0647   0.3389   0.0152     H
C       0.0728   0.7161   0.6181     C
C       0.0728   0.7839   0.1181     C
C       0.0835   0.1496   0.9478     C
C       0.0835   0.3504   0.4478     C
H       0.0839   0.6466   0.3611     H
H       0.0839   0.8534   0.8611     H
H       0.0844   0.0526   0.7173     H
H       0.0844   0.4474   0.2173     H
C       0.0982   0.6142   0.6446     C
C       0.0982   0.8858   0.1446     C
H       0.1039   0.5078   0.4355     H
H       0.1039   0.9922   0.9355     H
N       0.1074   0.0141   0.3765     N
N       0.1074   0.4859   0.8765     N
C      0.11734   0.2096  0.69821     C
C      0.11734   0.2904  0.19821     C
H       0.1183   0.7279   0.1319     H
H       0.1183   0.7721   0.6319     H
N      0.12713  0.10032  0.41911     N
N      0.12713  0.39968  0.91911     N
H       0.1453   0.1604   0.9795     H
H       0.1453   0.3396   0.4795     H
C       0.1471   0.0974  0.72307     C
C       0.1471   0.4026  0.22307     C
H       0.1603   0.6036   0.6759     H
H       0.1603   0.8964   0.1759     H
C       0.1624   0.1079   0.1791     C
C       0.1624   0.3921   0.6791     C
H       0.1711   0.0976   0.7782     H
H       0.1711   0.4024   0.2782     H
C       0.1904   0.2103   0.2014     C
C       0.1904   0.2897   0.7014     C
C       0.2012   0.5178   0.8569     C
C       0.2012   0.9822   0.3569     C
N       0.2079   0.0074   0.6055     N
N       0.2079   0.4926   0.1055     N
H       0.2114   0.5795   0.8283     H
H       0.2114   0.9205   0.3283     H
H       0.2142   0.0551   0.1821     H
H       0.2142   0.4449   0.6821     H
N       0.2308  0.05227  0.67711     N
N       0.2308  0.44773  0.17711     N
C      0.23088   0.1184  0.42077     C
C      0.23088   0.3816  0.92077     C
H       0.2603   0.2248   0.2188     H
H       0.2603   0.2752   0.7188     H
H       0.2644   0.1754   0.4466     H
H       0.2644   0.3246   0.9466     H
N      0.28058  0.04606  0.38153     N
N      0.28058  0.45394  0.88153     N
C       0.3018   0.5208  0.08339     C
C       0.3018   0.9792  0.58339     C
O      0.30406  0.60587  0.46368     O
O      0.30406  0.89413  0.96368     O
H       0.3041   0.5304   0.3449     H
H       0.3041   0.9696   0.8449     H
H       0.3114   0.5548   0.0359     H
H       0.3114   0.9452   0.5359     H
O      0.32829  0.01763  0.87308     O
O      0.32829  0.48237  0.37308     O
C      0.33465  0.51189  0.44053     C
C      0.33465  0.98811  0.94053     C
C      0.33475   0.0491  0.69361     C
C      0.33475   0.4509  0.19361     C
H        0.364   0.5443   0.5968     H
H        0.364   0.9557   0.0968     H
H       0.3688   0.0749   0.7396     H
H       0.3688   0.4251   0.2396     H
C      0.37901  0.05724  0.00594     C
C      0.37901  0.44276  0.50594     C
N      0.38367  0.00371  0.63524     N
N      0.38367  0.49629  0.13524     N
C      0.38676  0.02341  0.08388     C
C      0.38676  0.47659  0.58388     C
H       0.4104   0.1804   0.9345     H
H       0.4104   0.3196   0.4345     H
O      0.41508  0.53377  0.74774     O
O      0.41508  0.96623  0.24774     O
C      0.41571  0.15782  0.98653     C
C      0.41571  0.34218  0.48653     C
C      0.42853  0.09107  0.14213     C
C      0.42853  0.40893  0.64213     C
C      0.43406  0.05999  0.22716     C
C      0.43406  0.44001  0.72716     C
O      0.43733   0.6211  0.92667     O
O      0.43733   0.8789  0.42667     O
Co     0.44874  0.02229 0.373222    Co
Co     0.44874  0.47771 0.873222    Co
O      0.45706  0.13029  0.27816     O
O      0.45706  0.36971  0.77816     O
C      0.46006  0.22432  0.04435     C
C      0.46006  0.27568  0.54435     C
C      0.46474  0.19128  0.12215     C
C      0.46474  0.30872  0.62215     C
O      0.47029  0.13253  0.45807     O
O      0.47029  0.36747  0.95807     O
H       0.4924   0.2366   0.1613     H
H       0.4924   0.2634   0.6613     H
C      0.49934  0.66803  0.97647     C
C      0.49934  0.83197  0.47647     C
C      0.50066  0.16803  0.52353     C
C      0.50066  0.33197  0.02353     C
H       0.5076   0.7366   0.3387     H
H       0.5076   0.7634   0.8387     H
O      0.52971  0.63253  0.04193     O
O      0.52971  0.86747  0.54193     O
C      0.53526  0.69128  0.37785     C
C      0.53526  0.80872  0.87785     C
C      0.53994  0.72432  0.45565     C
C      0.53994  0.77568  0.95565     C
O      0.54294  0.63029  0.22184     O
O      0.54294  0.86971  0.72184     O
Co     0.55126  0.52229 0.126778    Co
Co     0.55126  0.97771 0.626778    Co
O      0.56267   0.1211  0.57333     O
O      0.56267   0.3789  0.07333     O
C      0.56594  0.55999  0.27284     C
C      0.56594  0.94001  0.77284     C
C      0.57147  0.59107  0.35787     C
C      0.57147  0.90893  0.85787     C
C      0.58429  0.65782  0.51347     C
C      0.58429  0.84218  0.01347     C
O      0.58492  0.03377  0.75226     O
O      0.58492  0.46623  0.25226     O
H       0.5896   0.6804   0.5655     H
H       0.5896   0.8196   0.0655     H
C      0.61324  0.52341  0.41612     C
C      0.61324  0.97659  0.91612     C
N      0.61633  0.50371  0.86476     N
N      0.61633  0.99629  0.36476     N
C      0.62099  0.55724  0.49406     C
C      0.62099  0.94276  0.99406     C
H       0.6312   0.5749   0.7604     H
H       0.6312   0.9251   0.2604     H
H        0.636   0.0443   0.9032     H
H        0.636   0.4557   0.4032     H
C      0.66525   0.5491  0.80639     C
C      0.66525   0.9509  0.30639     C
C      0.66535  0.01189  0.05947     C
C      0.66535  0.48811  0.55947     C
O      0.67171  0.51763  0.62692     O
O      0.67171  0.98237  0.12692     O
H       0.6886   0.0548   0.4641     H
H       0.6886   0.4452   0.9641     H
H       0.6959   0.0304   0.1551     H
H       0.6959   0.4696   0.6551     H
O      0.69594  0.10587  0.03632     O
O      0.69594  0.39413  0.53632     O
C       0.6982   0.0208  0.41661     C
C       0.6982   0.4792  0.91661     C
N      0.71942  0.54606  0.11847     N
N      0.71942  0.95394  0.61847     N
H       0.7356   0.6754   0.0534     H
H       0.7356   0.8246   0.5534     H
H       0.7397   0.7248   0.2812     H
H       0.7397   0.7752   0.7812     H
C      0.76912   0.6184  0.07923     C
C      0.76912   0.8816  0.57923     C
N       0.7692  0.55227  0.82289     N
N       0.7692  0.94773  0.32289     N
H       0.7858   0.5551   0.3179     H
H       0.7858   0.9449   0.8179     H
H       0.7886   0.0795   0.6717     H
H       0.7886   0.4205   0.1717     H
N       0.7921   0.5074   0.8945     N
N       0.7921   0.9926   0.3945     N
C       0.7988   0.0178   0.6431     C
C       0.7988   0.4822   0.1431     C
C       0.8096   0.7103   0.2986     C
C       0.8096   0.7897   0.7986     C
H       0.8289   0.5976   0.7218     H
H       0.8289   0.9024   0.2218     H
C       0.8376   0.6079   0.3209     C
C       0.8376   0.8921   0.8209     C
H       0.8397   0.1036   0.8241     H
H       0.8397   0.3964   0.3241     H
C       0.8529   0.5974  0.77693     C
C       0.8529   0.9026  0.27693     C
H       0.8547   0.6604   0.5205     H
H       0.8547   0.8396   0.0205     H
N      0.87287  0.60032  0.08089     N
N      0.87287  0.89968  0.58089     N
H       0.8817   0.2279   0.3681     H
H       0.8817   0.2721   0.8681     H
C      0.88266   0.7096  0.80179     C
C      0.88266   0.7904  0.30179     C
N       0.8926   0.5141   0.1235     N
N       0.8926   0.9859   0.6235     N
H       0.8961   0.0078   0.0645     H
H       0.8961   0.4922   0.5645     H
C       0.9018   0.1142   0.8554     C
C       0.9018   0.3858   0.3554     C
H       0.9156   0.5526   0.7827     H
H       0.9156   0.9474   0.2827     H
H       0.9161   0.1466   0.1389     H
H       0.9161   0.3534   0.6389     H
C       0.9165   0.6496   0.5522     C
C       0.9165   0.8504   0.0522     C
C       0.9272   0.2161   0.8819     C
C       0.9272   0.2839   0.3819     C
H       0.9353   0.6611   0.9848     H
H       0.9353   0.8389   0.4848     H
C      0.93901   0.5817  0.34719     C
C      0.93901   0.9183  0.84719     C
C       0.9415   0.5482  0.57859     C
C       0.9415   0.9518  0.07859     C
C       0.9571   0.6553   0.0402     C
C       0.9571   0.8447   0.5402     C
H       0.9626   0.1839   0.6758     H
H       0.9626   0.3161   0.1758     H
C       0.9669   0.0282  0.87434     C
C       0.9669   0.4718  0.37434     C
H       0.9786   0.1127   0.4554     H
H       0.9786   0.3873   0.9554     H
C       0.9819   0.7354  0.57191     C
C       0.9819   0.7646  0.07191     C
C        0.985   0.7361    0.824     C
C        0.985   0.7639    0.324     C
C       0.9869   0.1616   0.1537     C
C       0.9869   0.3384   0.6537     C
