data_I
_chemical_name_common  '/home/zhangsd/repos/MofS-CGCNN/ML/data/WS24/clean_cifs/AVUHIJ'
_cell_length_a 17.51900
_cell_length_b 10.08000
_cell_length_c 22.93100
_cell_angle_alpha 90.00000
_cell_angle_beta  98.72000
_cell_angle_gamma 90.00000
_space_group_name_H-M_alt      'P 1'


loop_
_space_group_symop_operation_xyz
  'x, y, z' 

loop_
_atom_site_label
_atom_site_fract_x
_atom_site_fract_y
_atom_site_fract_z
_atom_site_type_symbol
Co         0.0      0.0      0.0    Co
Co         0.0      0.5      0.5    Co
C       0.0042    0.121   0.6835     C
C       0.0042    0.379   0.1835     C
H       0.0104     0.24   0.1697     H
H       0.0104     0.26   0.6697     H
C       0.0183   0.6623    0.619     C
C       0.0183   0.8377    0.119     C
H       0.0185   0.2243   0.8966     H
H       0.0185   0.2757   0.3966     H
C       0.0259   0.1621   0.7435     C
C       0.0259   0.3379   0.2435     C
C       0.0325   0.7359   0.7259     C
C       0.0325   0.7641   0.2259     C
C       0.0394    0.193   0.6903     C
C       0.0394    0.307   0.1903     C
H       0.0436   0.0308   0.6147     H
H       0.0436   0.4692   0.1147     H
N       0.0453   0.5681   0.5879     N
N       0.0453   0.9319   0.0879     N
H       0.0455   0.6381   0.8357     H
H       0.0455   0.8619   0.3357     H
N       0.0503   0.6579   0.6753     N
N       0.0503   0.8421   0.1753     N
C       0.0572    0.056   0.6539     C
C       0.0572    0.444   0.1539     C
O       0.0739   0.7122  0.95569     O
O       0.0739   0.7878  0.45569     O
H       0.0766   0.0468   0.8163     H
H       0.0766   0.4532   0.3163     H
C       0.0796    0.064   0.7768     C
C       0.0796    0.436   0.2768     C
O       0.0923   0.5698   0.4654     O
O       0.0923   0.9302   0.9654     O
C        0.096    0.129   0.6633     C
C        0.096    0.371   0.1633     C
C       0.0961   0.5068   0.6293     C
C       0.0961   0.9932   0.1293     C
C       0.0972     0.14   0.7678     C
C       0.0972     0.36   0.2678     C
N       0.0997   0.5565   0.6831     N
N       0.0997   0.9435   0.1831     N
H       0.1057   0.1619   0.6274     H
H       0.1057   0.3381   0.1274     H
C       0.1089   0.6837   0.4486     C
C       0.1089   0.8163   0.9486     C
H       0.1136   0.1689   0.8062     H
H       0.1136   0.3311   0.3062     H
H       0.1263   0.0645   0.1207     H
H       0.1263   0.4355   0.6207     H
C       0.1323    0.001   0.7499     C
C       0.1323    0.499   0.2499     C
C       0.1337   0.0294   0.6849     C
C       0.1337   0.4706   0.1849     C
H       0.1425   0.5181   0.0718     H
H       0.1425   0.9819   0.5718     H
C       0.1493    0.074   0.7377     C
C       0.1493    0.426   0.2377     C
H       0.1671   0.5585   0.2705     H
H       0.1671   0.9415   0.7705     H
C       0.1778   0.6878   0.4161     C
C       0.1778   0.8122   0.9161     C
C        0.183   0.5604   0.0955     C
C        0.183   0.9396   0.5955     C
H       0.1859   0.6137   0.9101     H
H       0.1859   0.8863   0.4101     H
C       0.1895   0.5488   0.1567     C
C       0.1895   0.9512   0.6567     C
H       0.1906   0.0106   0.9114     H
H       0.1906   0.4894   0.4114     H
H       0.1992   0.0615   0.7574     H
H       0.1992   0.4385   0.2574     H
C        0.208   0.6929   0.9004     C
C        0.208   0.8071   0.4004     C
C       0.2105   0.5699   0.4008     C
C       0.2105   0.9301   0.9008     C
H       0.2294   0.6367   0.0288     H
H       0.2294   0.8633   0.5288     H
C       0.2347   0.6326   0.0697     C
C       0.2347   0.8674   0.5697     C
C       0.2507   0.6125   0.1887     C
C       0.2507   0.8875   0.6887     C
H       0.2577   0.6064   0.2297     H
H       0.2577   0.8936   0.7297     H
H       0.2595   0.0255   0.2261     H
H       0.2595   0.4745   0.7261     H
C       0.2706   0.6903   0.8705     C
C       0.2706   0.8097   0.3705     C
C       0.2725   0.5711  0.36988     C
C       0.2725   0.9289  0.86988     C
O       0.2751   0.0454  0.36924     O
O       0.2751   0.4546  0.86924     O
O      0.27751   0.1643  0.86906     O
O      0.27751   0.3357  0.36906     O
N       0.2788   0.1285   0.1566     N
N       0.2788   0.3715   0.6566     N
H       0.2813   0.1834   0.5768     H
H       0.2813   0.3166   0.0768     H
C       0.2825   0.1003   0.2126     C
C       0.2825   0.3997   0.7126     C
C       0.2943    0.699   0.1028     C
C       0.2943    0.801   0.6028     C
H       0.2986   0.1445   0.0099     H
H       0.2986   0.3555   0.5099     H
C       0.3021   0.6851   0.1624     C
C       0.3021   0.8149   0.6624     C
C       0.3028   0.6905   0.3549     C
C       0.3028   0.8095   0.8549     C
C       0.3047    0.562   0.8551     C
C       0.3047    0.938   0.3551     C
C       0.3069   0.0566   0.8536     C
C       0.3069   0.4434   0.3536     C
N       0.3188   0.2418   0.1567     N
N       0.3188   0.2582   0.6567     N
N       0.3228   0.1895   0.2491     N
N       0.3228   0.3105   0.7491     N
C       0.3307   0.1962   0.6016     C
C       0.3307   0.3038   0.1016     C
H       0.3315   0.7153   0.5316     H
H       0.3315   0.7847   0.0316     H
Co     0.34066  0.18983  0.33983    Co
Co     0.34066  0.31017  0.83983    Co
H       0.3434   0.7259   0.1859     H
H       0.3434   0.7741   0.6859     H
C       0.3438   0.2238   0.7113     C
C       0.3438   0.2762   0.2113     C
H       0.3447   0.6917   0.3344     H
H       0.3447   0.8083   0.8344     H
C       0.3498   0.7195   0.5736     C
C       0.3498   0.7805   0.0736     C
H        0.351   0.6297    0.589     H
H        0.351   0.8703    0.089     H
C       0.3513   0.1407   0.0234     C
C       0.3513   0.3593   0.5234     C
H       0.3543   0.1098   0.6097     H
H       0.3543   0.3902   0.1097     H
O       0.3616   0.5605   0.8295     O
O       0.3616   0.9395   0.3295     O
O       0.3642   0.0579  0.82724     O
O       0.3642   0.4421  0.32724     O
H       0.3727    0.148   0.7221     H
H       0.3727    0.352   0.2221     H
H       0.3746   0.0034   0.9658     H
H       0.3746   0.4966   0.4658     H
C       0.3825   0.2183   0.0691     C
C       0.3825   0.2817   0.5691     C
C       0.3975    0.056   0.9969     C
C       0.3975    0.444   0.4969     C
N       0.4283   0.7259   0.0833     N
N       0.4283   0.7741   0.5833     N
H       0.4425   0.6226   0.4259     H
H       0.4425   0.8774   0.9259     H
N       0.4455   0.6151   0.0544     N
N       0.4455   0.8849   0.5544     N
N       0.4513   0.1857   0.3848     N
N       0.4513   0.3143   0.8848     N
H       0.4542   0.0255   0.4377     H
H       0.4542   0.4745   0.9377     H
C       0.4597     0.21   0.0864     C
C       0.4597     0.29   0.5864     C
C       0.4757   0.0459   0.0141     C
C       0.4757   0.4541   0.5141     C
C       0.4824   0.0956   0.4254     C
C       0.4824   0.4044   0.9254     C
H       0.4826   0.2364   0.6172     H
H       0.4826   0.2636   0.1172     H
C       0.4892   0.7344   0.6183     C
C       0.4892   0.7656   0.1183     C
H        0.491   0.6598   0.6423     H
H        0.491   0.8402   0.1423     H
C       0.4951   0.6258   0.4398     C
C       0.4951   0.8742   0.9398     C
C       0.5049   0.1258   0.0602     C
C       0.5049   0.3742   0.5602     C
H        0.509   0.1598   0.8577     H
H        0.509   0.3402   0.3577     H
C       0.5108   0.2344   0.8817     C
C       0.5108   0.2656   0.3817     C
H       0.5174   0.7364   0.8828     H
H       0.5174   0.7636   0.3828     H
C       0.5176   0.5956   0.0746     C
C       0.5176   0.9044   0.5746     C
C       0.5243   0.5459   0.4859     C
C       0.5243   0.9541   0.9859     C
C       0.5403     0.71   0.4136     C
C       0.5403     0.79   0.9136     C
H       0.5458   0.5255   0.0623     H
H       0.5458   0.9745   0.5623     H
N       0.5487   0.6857   0.1152     N
N       0.5487   0.8143   0.6152     N
N       0.5545   0.1151   0.4456     N
N       0.5545   0.3849   0.9456     N
H       0.5575   0.1226   0.0741     H
H       0.5575   0.3774   0.5741     H
N       0.5717   0.2259   0.4167     N
N       0.5717   0.2741   0.9167     N
C       0.6025    0.556   0.5031     C
C       0.6025    0.944   0.0031     C
C       0.6175   0.7183   0.4309     C
C       0.6175   0.7817   0.9309     C
H       0.6254   0.5034   0.5342     H
H       0.6254   0.9966   0.0342     H
H       0.6273    0.648   0.7779     H
H       0.6273    0.852   0.2779     H
O       0.6358   0.5579  0.67276     O
O       0.6358   0.9421  0.17276     O
O       0.6384   0.0605   0.6705     O
O       0.6384   0.4395   0.1705     O
H       0.6457   0.6098   0.8903     H
H       0.6457   0.8902   0.3903     H
C       0.6487   0.6407   0.4766     C
C       0.6487   0.8593   0.9766     C
H        0.649   0.1297    0.911     H
H        0.649   0.3703    0.411     H
C       0.6502   0.2195   0.9264     C
C       0.6502   0.2805   0.4264     C
H       0.6553   0.1917   0.1656     H
H       0.6553   0.3083   0.6656     H
C       0.6562   0.7238   0.7887     C
C       0.6562   0.7762   0.2887     C
H       0.6566   0.2259   0.3141     H
H       0.6566   0.2741   0.8141     H
Co     0.65934  0.68983  0.16017    Co
Co     0.65934  0.81017  0.66017    Co
H       0.6685   0.2153   0.9684     H
H       0.6685   0.2847   0.4684     H
C       0.6693   0.6962   0.8984     C
C       0.6693   0.8038   0.3984     C
N       0.6772   0.6895   0.2509     N
N       0.6772   0.8105   0.7509     N
N       0.6812   0.7418   0.3433     N
N       0.6812   0.7582   0.8433     N
C       0.6931   0.5566   0.6464     C
C       0.6931   0.9434   0.1464     C
C       0.6953    0.062   0.6449     C
C       0.6953    0.438   0.1449     C
C       0.6972   0.1905   0.1451     C
C       0.6972   0.3095   0.6451     C
C       0.6979   0.1851   0.3376     C
C       0.6979   0.3149   0.8376     C
H       0.7014   0.6445   0.4901     H
H       0.7014   0.8555   0.9901     H
C       0.7057    0.199   0.3972     C
C       0.7057    0.301   0.8972     C
C       0.7175   0.6003   0.2874     C
C       0.7175   0.8997   0.7874     C
H       0.7187   0.6834   0.9232     H
H       0.7187   0.8166   0.4232     H
N       0.7212   0.6285   0.3434     N
N       0.7212   0.8715   0.8434     N
O      0.72249   0.6643  0.63094     O
O      0.72249   0.8357  0.13094     O
O       0.7249   0.5454  0.13076     O
O       0.7249   0.9546  0.63076     O
C       0.7275   0.0711  0.13012     C
C       0.7275   0.4289  0.63012     C
C       0.7294   0.1903   0.6295     C
C       0.7294   0.3097   0.1295     C
H       0.7405   0.5255   0.2739     H
H       0.7405   0.9745   0.7739     H
H       0.7423   0.1064   0.2703     H
H       0.7423   0.3936   0.7703     H
C       0.7493   0.1125   0.3113     C
C       0.7493   0.3875   0.8113     C
C       0.7653   0.1326   0.4303     C
C       0.7653   0.3674   0.9303     C
H       0.7706   0.1367   0.4712     H
H       0.7706   0.3633   0.9712     H
C       0.7895   0.0699   0.0992     C
C       0.7895   0.4301   0.5992     C
C        0.792   0.1929   0.5996     C
C        0.792   0.3071   0.0996     C
H       0.8008   0.5615   0.7426     H
H       0.8008   0.9385   0.2426     H
H       0.8094   0.5106   0.5886     H
H       0.8094   0.9894   0.0886     H
C       0.8105   0.0488   0.3433     C
C       0.8105   0.4512   0.8433     C
H       0.8141   0.1137   0.5899     H
H       0.8141   0.3863   0.0899     H
C        0.817   0.0604   0.4045     C
C        0.817   0.4396   0.9045     C
C       0.8222   0.1878   0.0839     C
C       0.8222   0.3122   0.5839     C
H       0.8329   0.0585   0.2295     H
H       0.8329   0.4415   0.7295     H
C       0.8507    0.574   0.7623     C
C       0.8507    0.926   0.2623     C
H       0.8575   0.0181   0.4282     H
H       0.8575   0.4819   0.9282     H
C       0.8663   0.5294   0.8151     C
C       0.8663   0.9706   0.3151     C
C       0.8677    0.501   0.7501     C
C       0.8677    0.999   0.2501     C
H       0.8737   0.5645   0.3793     H
H       0.8737   0.9355   0.8793     H
H       0.8864   0.6689   0.6938     H
H       0.8864   0.8311   0.1938     H
C       0.8911   0.1837   0.0514     C
C       0.8911   0.3163   0.5514     C
H       0.8943   0.6619   0.8726     H
H       0.8943   0.8381   0.3726     H
N       0.9003   0.0565   0.8169     N
N       0.9003   0.4435   0.3169     N
C       0.9028     0.64   0.7322     C
C       0.9028     0.86   0.2322     C
C       0.9039   0.0068   0.8707     C
C       0.9039   0.4932   0.3707     C
C        0.904    0.629   0.8367     C
C        0.904    0.871   0.3367     C
O       0.9077   0.0698   0.0346     O
O       0.9077   0.4302   0.5346     O
C       0.9204    0.564   0.7232     C
C       0.9204    0.936   0.2232     C
H       0.9234   0.5468   0.6837     H
H       0.9234   0.9532   0.1837     H
O       0.9261   0.2122  0.54431     O
O       0.9261   0.2878  0.04431     O
C       0.9428    0.556   0.8461     C
C       0.9428    0.944   0.3461     C
N       0.9497   0.1579   0.8247     N
N       0.9497   0.3421   0.3247     N
H       0.9545   0.1381   0.6643     H
H       0.9545   0.3619   0.1643     H
N       0.9547   0.0681   0.9121     N
N       0.9547   0.4319   0.4121     N
H       0.9564   0.5308   0.8853     H
H       0.9564   0.9692   0.3853     H
C       0.9606    0.693   0.8097     C
C       0.9606    0.807   0.3097     C
C       0.9675   0.2359   0.7741     C
C       0.9675   0.2641   0.2741     C
C       0.9741   0.6621   0.7565     C
C       0.9741   0.8379   0.2565     C
H       0.9815   0.7243   0.6034     H
H       0.9815   0.7757   0.1034     H
C       0.9817   0.1623    0.881     C
C       0.9817   0.3377    0.381     C
H       0.9896     0.74   0.3303     H
H       0.9896     0.76   0.8303     H
C       0.9958    0.621   0.8165     C
C       0.9958    0.879   0.3165     C
