data_I
_chemical_name_common  '/home/zhangsd/repos/MofS-CGCNN/ML/data/WS24/clean_cifs/AVUJUX'
_cell_length_a  8.10020
_cell_length_b  8.59100
_cell_length_c 17.91400
_cell_angle_alpha 90.00000
_cell_angle_beta  90.00000
_cell_angle_gamma 110.85400
_space_group_name_H-M_alt      'P 1'


loop_
_space_group_symop_operation_xyz
  'x, y, z' 

loop_
_atom_site_label
_atom_site_fract_x
_atom_site_fract_y
_atom_site_fract_z
_atom_site_type_symbol
C        0.002   0.4536   0.3698     C
C       0.0031   0.3943   0.2919     C
O       0.0034   0.8837  0.93944     O
O       0.0081   0.2324  0.89413     O
H       0.0092   0.3316   0.8969     H
C       0.0457   0.7652    0.825     C
O        0.055   0.2005   0.5355     O
C       0.0735   0.3932   0.1675     C
C       0.0754   0.0664    0.522     C
O       0.0882   0.6482   0.5824     O
O       0.0932   0.6024  0.38172     O
H       0.0933   0.8327   0.0923     H
C       0.0986   0.8975   0.8817     C
C       0.1005   0.4852   0.2341     C
S      0.12565  0.80412  0.73503     S
H       0.1308   0.4357    0.123     H
H       0.1376   0.4942   0.9523     H
H       0.1761   0.5954   0.2384     H
O        0.189   0.4883   0.9931     O
O       0.2041   0.0267   0.5403     O
H       0.2363   0.4153   0.5023     H
O       0.2377   0.0224  0.87186     O
Nd     0.24975   0.2134 0.977728    Nd
Nd     0.25025   0.7866 0.477728    Nd
O       0.2623   0.9776  0.37186     O
H       0.2637   0.5847   0.0023     H
O       0.2959   0.9733   0.0403     O
O        0.311   0.5117   0.4931     O
H       0.3239   0.4046   0.7384     H
H       0.3624   0.5058   0.4523     H
H       0.3692   0.5643    0.623     H
S      0.37435  0.19588  0.23503     S
C       0.3995   0.5148   0.7341     C
C       0.4014   0.1025   0.3817     C
H       0.4067   0.1673   0.5923     H
O       0.4068   0.3976  0.88172     O
O       0.4118   0.3518   0.0824     O
C       0.4246   0.9336    0.022     C
C       0.4265   0.6068   0.6675     C
O        0.445   0.7995   0.0355     O
C       0.4543   0.2348    0.325     C
H       0.4908   0.6684   0.3969     H
O       0.4919   0.7676  0.39413     O
O       0.4966   0.1163  0.43944     O
C       0.4969   0.6057   0.7919     C
C        0.498   0.5464   0.8698     C
C        0.502   0.4536   0.1302     C
C       0.5031   0.3943   0.2081     C
O       0.5034   0.8837  0.56056     O
O       0.5081   0.2324  0.60587     O
H       0.5092   0.3316   0.6031     H
C       0.5457   0.7652    0.675     C
O        0.555   0.2005   0.9645     O
C       0.5735   0.3932   0.3325     C
C       0.5754   0.0664    0.978     C
O       0.5882   0.6482   0.9176     O
O       0.5932   0.6024  0.11828     O
H       0.5933   0.8327   0.4077     H
C       0.5986   0.8975   0.6183     C
C       0.6005   0.4852   0.2659     C
S      0.62565  0.80412  0.76497     S
H       0.6308   0.4357    0.377     H
H       0.6376   0.4942   0.5477     H
H       0.6761   0.5954   0.2616     H
O        0.689   0.4883   0.5069     O
O       0.7041   0.0267   0.9597     O
H       0.7363   0.4153   0.9977     H
O       0.7377   0.0224  0.62814     O
Nd     0.74975   0.2134 0.522272    Nd
Nd     0.75025   0.7866 0.022272    Nd
O       0.7623   0.9776  0.12814     O
H       0.7637   0.5847   0.4977     H
O       0.7959   0.9733   0.4597     O
O        0.811   0.5117   0.0069     O
H       0.8239   0.4046   0.7616     H
H       0.8624   0.5058   0.0477     H
H       0.8692   0.5643    0.877     H
S      0.87435  0.19588  0.26497     S
C       0.8995   0.5148   0.7659     C
C       0.9014   0.1025   0.1183     C
H       0.9067   0.1673   0.9077     H
O       0.9068   0.3976  0.61828     O
O       0.9118   0.3518   0.4176     O
C       0.9246   0.9336    0.478     C
C       0.9265   0.6068   0.8325     C
O        0.945   0.7995   0.4645     O
C       0.9543   0.2348    0.175     C
H       0.9908   0.6684   0.1031     H
O       0.9919   0.7676  0.10587     O
O       0.9966   0.1163  0.06056     O
C       0.9969   0.6057   0.7081     C
C        0.998   0.5464   0.6302     C
