data_I
_chemical_name_common  '/home/zhangsd/repos/MofS-CGCNN/ML/data/WS24/clean_cifs/AVUJEH'
_cell_length_a  8.25820
_cell_length_b 11.06700
_cell_length_c 14.08000
_cell_angle_alpha 93.68000
_cell_angle_beta  105.18000
_cell_angle_gamma 92.97000
_space_group_name_H-M_alt      'P 1'


loop_
_space_group_symop_operation_xyz
  'x, y, z' 

loop_
_atom_site_label
_atom_site_fract_x
_atom_site_fract_y
_atom_site_fract_z
_atom_site_type_symbol
C       0.0129   0.5647   0.0195     C
H       0.0136   0.0162   0.8963     H
C       0.0319   0.3316   0.3935     C
C       0.0338   0.3306   0.2949     C
N       0.0351   0.9344   0.2907     N
C       0.0588   0.8127   0.0909     C
C       0.0742   0.2297   0.9872     C
H       0.0774   0.7426   0.8403     H
C       0.0798   0.7426   0.7747     C
H       0.0801   0.7512   0.5135     H
C       0.0828    0.748   0.5798     C
C       0.0891   0.9435   0.1278     C
H       0.0953   0.9465   0.4387     H
C       0.0957    0.351   0.0215     C
H       0.1061   0.3847    0.441     H
H       0.1131   0.3802   0.2767     H
C       0.1343   0.9554   0.3831     C
N        0.143   0.9626   0.2355     N
C        0.144   0.6084    0.097     C
H       0.1501   0.3146   0.7385     H
H        0.151   0.1762   0.0175     H
C       0.1673   0.7283   0.1342     C
H       0.1746   0.9808   0.1009     H
H       0.1875   0.3766   0.0744     H
C       0.2001   0.8219   0.6508     C
C       0.2016   0.8188   0.7494     C
H       0.2129    0.438   0.8017     H
H       0.2216   0.5548   0.1263     H
C       0.2495   0.3666   0.7719     C
H       0.2566   0.7527   0.1888     H
O        0.291   0.9308   0.9063     O
C       0.2934   0.9959   0.2931     C
N       0.2953   0.9904   0.3884     N
H       0.3013    0.123   0.8085     H
C       0.3097   0.9141    0.617     C
O       0.3141   0.0229   0.6444     O
C       0.3352    0.886   0.8307     C
C       0.3393   0.4059   0.6956     C
H       0.3501   0.5824   0.7301     H
N        0.355   0.3014   0.8504     N
C       0.3603   0.1821   0.8568     C
C       0.3708   0.5241   0.6851     C
H       0.3746   0.2419   0.6434     H
H       0.3859     0.02    0.271     H
C       0.3863   0.3242   0.6347     C
O       0.3923   0.8725   0.5573     O
H       0.4022   0.7135   0.9497     H
C       0.4341   0.5611    0.608     C
H       0.4513   0.6435   0.6015     H
C       0.4522   0.3613   0.5589     C
N       0.4556   0.3606   0.9334     N
N       0.4628   0.1605   0.9428     N
C       0.4706   0.4795   0.5431     C
C       0.4786    0.727   0.0116     C
O       0.4833   0.8953   0.8268     O
H       0.4843    0.303   0.5182     H
Cu         0.5      0.0      0.0    Cu
Cu         0.5      0.0      0.5    Cu
H       0.5157    0.697   0.4818     H
O       0.5167   0.1047   0.1732     O
C       0.5214    0.273   0.9884     C
C       0.5294   0.5205   0.4569     C
N       0.5372   0.8395   0.0572     N
N       0.5444   0.6394   0.0666     N
C       0.5478   0.6387   0.4411     C
H       0.5487   0.3565   0.3985     H
C       0.5659   0.4389    0.392     C
H       0.5978   0.2865   0.0503     H
O       0.6077   0.1275   0.4427     O
C       0.6137   0.6758   0.3653     C
H       0.6141     0.98    0.729     H
H       0.6254   0.7581   0.3566     H
C       0.6292   0.4759   0.3149     C
C       0.6397   0.8179   0.1432     C
N        0.645   0.6986   0.1496     N
H       0.6499   0.4176   0.2699     H
C       0.6607   0.5941   0.3044     C
C       0.6648    0.114   0.1693     C
O       0.6859   0.9771   0.3556     O
C       0.6903   0.0859    0.383     C
H       0.6987    0.877   0.1915     H
N       0.7047   0.0096   0.6116     N
C       0.7066   0.0041   0.7069     C
O        0.709   0.0692   0.0937     O
H       0.7434   0.2473   0.8112     H
C       0.7505   0.6334   0.2281     C
H       0.7784   0.4452   0.8737     H
H       0.7871    0.562   0.1983     H
C       0.7984   0.1812   0.2506     C
C       0.7999   0.1781   0.3492     C
H       0.8125   0.6234   0.9256     H
H       0.8254   0.0192   0.8991     H
C       0.8327   0.2717   0.8658     C
H        0.849   0.8238   0.9825     H
H       0.8499   0.6854   0.2615     H
C        0.856   0.3916    0.903     C
N        0.857   0.0374   0.7645     N
C       0.8657   0.0446   0.6169     C
H       0.8869   0.6198   0.7233     H
H       0.8939   0.6153    0.559     H
C       0.9043    0.649   0.9785     C
H       0.9047   0.0535   0.5613     H
C       0.9109   0.0565   0.8722     C
C       0.9172    0.252   0.4202     C
H       0.9199   0.2488   0.4865     H
C       0.9202   0.2574   0.2253     C
H       0.9226   0.2574   0.1597     H
C       0.9258   0.7703   0.0128     C
C       0.9412   0.1873   0.9091     C
N       0.9649   0.0656   0.7093     N
C       0.9662   0.6694   0.7051     C
C       0.9681   0.6684   0.6065     C
H       0.9864   0.9838   0.1037     H
C       0.9871   0.4353   0.9805     C
