data_I
_chemical_name_common  '/home/zhangsd/repos/MofS-CGCNN/ML/data/WS24/clean_cifs/AVUJAD'
_cell_length_a 10.16900
_cell_length_b 15.34289
_cell_length_c 16.39600
_cell_angle_alpha 90.00000
_cell_angle_beta  90.00000
_cell_angle_gamma 96.09328
_space_group_name_H-M_alt      'P 1'


loop_
_space_group_symop_operation_xyz
  'x, y, z' 

loop_
_atom_site_label
_atom_site_fract_x
_atom_site_fract_y
_atom_site_fract_z
_atom_site_type_symbol
O       0.0006    0.763  0.18082     O
H       0.0017   0.6134   0.6045     H
Cu     0.00188  0.77155  0.32493    Cu
H        0.003   0.9813   0.1346     H
H       0.0035   0.4664   0.8675     H
H       0.0059   0.8516   0.5915     H
N       0.0099   0.5048   0.3382     N
N         0.01   0.9637   0.6573     N
N       0.0184   0.3579   0.6753     N
N       0.0242    0.901   0.3214     N
C       0.0355   0.7624   0.0367     C
C       0.0404   0.2659   0.1245     C
C       0.0569   0.0462   0.6466     C
C       0.0604   0.4204   0.3597     C
C       0.0611    0.586   0.3532     C
C       0.0626   0.5192   0.0186     C
C       0.0645   0.0125   0.9795     C
C       0.0653   0.8833   0.6303     C
H       0.0656   0.2746   0.1787     H
H       0.0703   0.3865   0.3106     H
C       0.0721   0.5416   0.1003     C
C       0.0735    0.026   0.8968     C
H       0.0764   0.8452   0.6765     H
C       0.0772   0.7746    0.124     C
C       0.0935   0.7421   0.8962     C
C        0.098   0.2482   0.9839     C
N       0.1059   0.4938   0.7033     N
N        0.107   0.0402   0.3025     N
C       0.1186   0.4104   0.7089     C
C       0.1227   0.9573    0.291     C
H       0.1232    0.441   0.5144     H
H         0.13   0.9198   0.4769     H
C       0.1308   0.7576   0.9766     C
O       0.1339   0.2235  0.53213     O
H       0.1359   0.0647   0.6204     H
C       0.1364    0.261   0.0645     C
H       0.1413   0.6015   0.3794     H
H       0.1619   0.2465   0.9434     H
O       0.1654   0.7196  0.76076     O
H       0.1768   0.5239   0.9183     H
C       0.1783   0.5361   0.9739     C
H       0.1803   0.0184   0.0783     H
C       0.1812    0.026   0.0221     C
O       0.1857   0.7677   0.3606     O
C       0.1894   0.5755   0.1354     C
O       0.1907   0.2292  0.66248     O
H       0.1909    0.389   0.7336     H
H        0.191   0.5892   0.1907     H
C       0.1916   0.4386   0.4013     C
C       0.1926   0.0502   0.8591     C
H       0.1938   0.0589    0.803     H
H       0.1957   0.9391   0.2643     H
C       0.1961   0.9103   0.5908     C
C        0.198   0.7307   0.8329     C
C          0.2     0.45   0.4833     C
O       0.2049   0.7996  0.13211     O
C       0.2051   0.9298   0.5093     C
C       0.2185   0.2301   0.5862     C
H         0.22   0.7648   0.9903     H
H       0.2275   0.7874   0.1784     H
H       0.2725   0.7126   0.6784     H
H         0.28   0.7352   0.4903     H
C       0.2815   0.2699   0.0862     C
C       0.2949   0.5702   0.0093     C
O       0.2951   0.7004  0.63211     O
C          0.3     0.05   0.9833     C
C        0.302   0.7693   0.3329     C
C       0.3039   0.5897   0.0908     C
H       0.3043   0.5609   0.7643     H
H       0.3062   0.4411    0.303     H
C       0.3074   0.4498   0.3591     C
C       0.3084   0.0614   0.9013     C
H        0.309   0.9108   0.6907     H
H       0.3091    0.111   0.2336     H
O       0.3093   0.2708  0.16248     O
C       0.3106   0.9245   0.6354     C
O       0.3143   0.7323   0.8606     O
C       0.3188    0.474   0.5221     C
H       0.3197   0.4816   0.5783     H
C       0.3217   0.9639   0.4739     C
H       0.3232   0.9761   0.4183     H
O       0.3346   0.7804  0.26076     O
H       0.3381   0.2535   0.4434     H
H       0.3587   0.8985   0.8794     H
C       0.3636    0.239   0.5645     C
H       0.3641   0.4353   0.1204     H
O       0.3661   0.2765  0.03213     O
C       0.3692   0.7424   0.4766     C
H         0.37   0.5802   0.9769     H
H       0.3768    0.059   0.0144     H
C       0.3773   0.5427    0.791     C
C       0.3814   0.0896   0.2089     C
N        0.393   0.4598   0.8025     N
N       0.3941   0.0062   0.2033     N
C        0.402   0.2518   0.4839     C
C       0.4065   0.7579   0.3962     C
C       0.4228   0.7254    0.624     C
H       0.4236   0.6548   0.1765     H
C       0.4265    0.474   0.3968     C
C       0.4279   0.9584   0.6003     C
H       0.4297   0.1135   0.8106     H
H       0.4344   0.2254   0.6787     H
C       0.4347   0.6167   0.1303     C
C       0.4355   0.4875   0.4795     C
C       0.4374   0.9808   0.5186     C
C       0.4389    0.914   0.8532     C
C       0.4396   0.0796   0.8597     C
C       0.4431   0.4538   0.1466     C
C       0.4596   0.2341   0.6245     C
C       0.4645   0.7376   0.5367     C
N       0.4758    0.599   0.8214     N
N       0.4816   0.1421   0.1753     N
N         0.49   0.5363   0.1573     N
N       0.4901   0.9952   0.8382     N
H       0.4941   0.6484   0.0915     H
H       0.4965   0.0336   0.3675     H
H        0.497   0.5187   0.6346     H
Cu     0.49812  0.72845  0.82493    Cu
H       0.4983   0.8866   0.1045     H
O       0.4994    0.737  0.68082     O
O       0.5006    0.263  0.31918     O
H       0.5017   0.1134   0.8955     H
Cu     0.50188  0.27155  0.17507    Cu
H        0.503   0.4813   0.3654     H
H       0.5035   0.9664   0.6325     H
H       0.5059   0.3516   0.9085     H
N       0.5099   0.0048   0.1618     N
N         0.51   0.4637   0.8427     N
N       0.5184   0.8579   0.8247     N
N       0.5242    0.401   0.1786     N
C       0.5355   0.2624   0.4633     C
C       0.5404   0.7659   0.3755     C
C       0.5569   0.5462   0.8534     C
C       0.5604   0.9204   0.1403     C
C       0.5611    0.086   0.1468     C
C       0.5626   0.0192   0.4814     C
C       0.5645   0.5125   0.5205     C
C       0.5653   0.3833   0.8697     C
H       0.5656   0.7746   0.3213     H
H       0.5703   0.8865   0.1894     H
C       0.5721   0.0416   0.3997     C
C       0.5735    0.526   0.6032     C
H       0.5764   0.3452   0.8235     H
C       0.5772   0.2746    0.376     C
C       0.5935   0.2421   0.6038     C
C        0.598   0.7482   0.5161     C
N       0.6059   0.9938   0.7967     N
N        0.607   0.5402   0.1975     N
C       0.6186   0.9104   0.7911     C
C       0.6227   0.4573    0.209     C
H       0.6232    0.941   0.9856     H
H         0.63   0.4198   0.0231     H
C       0.6308   0.2576   0.5234     C
O       0.6339   0.7235  0.96787     O
H       0.6359   0.5647   0.8796     H
C       0.6364    0.761   0.4355     C
H       0.6413   0.1015   0.1206     H
H       0.6619   0.7465   0.5566     H
O       0.6654   0.2196  0.73924     O
H       0.6768   0.0239   0.5817     H
C       0.6783   0.0361   0.5261     C
H       0.6803   0.5184   0.4217     H
C       0.6812    0.526   0.4779     C
O       0.6857   0.2677   0.1394     O
C       0.6894   0.0755   0.3646     C
O       0.6907   0.7292  0.83752     O
H       0.6909    0.889   0.7664     H
H        0.691   0.0892   0.3093     H
C       0.6916   0.9386   0.0987     C
C       0.6926   0.5502   0.6409     C
H       0.6938   0.5589    0.697     H
H       0.6957   0.4391   0.2357     H
C       0.6961   0.4103   0.9092     C
C        0.698   0.2307   0.6671     C
C          0.7     0.95   0.0167     C
O       0.7049   0.2996  0.36789     O
C       0.7051   0.4298   0.9907     C
C       0.7185   0.7301   0.9138     C
H         0.72   0.2648   0.5097     H
H       0.7275   0.2874   0.3216     H
H       0.7725   0.2126   0.8216     H
H         0.78   0.2352   0.0097     H
C       0.7815   0.7699   0.4138     C
C       0.7949   0.0702   0.4907     C
O       0.7951   0.2004  0.86789     O
C          0.8     0.55   0.5167     C
C        0.802   0.2693   0.1671     C
C       0.8039   0.0897   0.4092     C
H       0.8043   0.0609   0.7357     H
H       0.8062   0.9411    0.197     H
C       0.8074   0.9498   0.1409     C
C       0.8084   0.5614   0.5987     C
H        0.809   0.4108   0.8093     H
H       0.8091    0.611   0.2664     H
O       0.8093   0.7708  0.33752     O
C       0.8106   0.4245   0.8646     C
O       0.8143   0.2323   0.6394     O
C       0.8188    0.974   0.9779     C
H       0.8197   0.9816   0.9217     H
C       0.8217   0.4639   0.0261     C
H       0.8232   0.4761   0.0817     H
O       0.8346   0.2804  0.23924     O
H       0.8381   0.7535   0.0566     H
H       0.8587   0.3985   0.6206     H
C       0.8636    0.739   0.9355     C
H       0.8641   0.9353   0.3796     H
O       0.8661   0.7765  0.46787     O
C       0.8692   0.2424   0.0234     C
H         0.87   0.0802   0.5231     H
H       0.8768    0.559   0.4856     H
C       0.8773   0.0427    0.709     C
C       0.8814   0.5896   0.2911     C
N        0.893   0.9598   0.6975     N
N       0.8941   0.5062   0.2967     N
C        0.902   0.7518   0.0161     C
C       0.9065   0.2579   0.1038     C
C       0.9228   0.2254    0.876     C
H       0.9236   0.1548   0.3235     H
C       0.9265    0.974   0.1032     C
C       0.9279   0.4584   0.8997     C
H       0.9297   0.6135   0.6894     H
H       0.9344   0.7254   0.8213     H
C       0.9347   0.1167   0.3697     C
C       0.9355   0.9875   0.0205     C
C       0.9374   0.4808   0.9814     C
C       0.9389    0.414   0.6468     C
C       0.9396   0.5796   0.6403     C
C       0.9431   0.9538   0.3534     C
C       0.9596   0.7341   0.8755     C
C       0.9645   0.2376   0.9633     C
N       0.9758    0.099   0.6786     N
N       0.9816   0.6421   0.3247     N
N         0.99   0.0363   0.3427     N
N       0.9901   0.4952   0.6618     N
H       0.9941   0.1484   0.4085     H
H       0.9965   0.5336   0.1325     H
H        0.997   0.0187   0.8654     H
Cu     0.99812  0.22845  0.67507    Cu
H       0.9983   0.3866   0.3955     H
O       0.9994    0.237  0.81918     O
