data_I
_chemical_name_common  '/home/zhangsd/repos/MofS-CGCNN/ML/data/WS24/clean_cifs/AVUKAE'
_cell_length_a  9.79600
_cell_length_b 10.79958
_cell_length_c 12.38800
_cell_angle_alpha 104.56712
_cell_angle_beta  90.00000
_cell_angle_gamma 116.97077
_space_group_name_H-M_alt      'P 1'


loop_
_space_group_symop_operation_xyz
  'x, y, z' 

loop_
_atom_site_label
_atom_site_fract_x
_atom_site_fract_y
_atom_site_fract_z
_atom_site_type_symbol
H       0.0001   0.7984   0.5302     H
O       0.0012   0.7888   0.2135     O
Er     0.01857      0.0     0.75    Er
O       0.0368   0.8146   0.5975     O
H       0.0515   0.9454   0.0213     H
C       0.0615   0.5964   0.1629     C
C       0.0638   0.6568    0.837     C
C       0.0725    0.381   0.1206     C
H       0.0799   0.7668    0.612     H
O       0.1005   0.9974   0.4156     O
O       0.1031   0.0026   0.0844     O
C       0.1033   0.7512   0.1821     C
H       0.1061   0.0546   0.4787     H
S      0.10918  0.51876   0.7991     S
H       0.1135    0.318   0.0945     H
O       0.1195    0.895   0.8398     O
H       0.1377   0.9392   0.4118     H
C       0.1445   0.5282   0.1213     C
C       0.1638   0.7984   0.8145     C
H       0.1985   0.0608   0.0882     H
H       0.2017   0.2016   0.9698     H
H       0.2045    0.318   0.5945     H
O       0.2124   0.2112   0.2865     O
O       0.2222   0.1854   0.9025     O
O       0.2245    0.105   0.6602     O
O       0.2373   0.8348   0.1697     O
H       0.2391   0.5732   0.0958     H
O       0.2836   0.8136   0.7701     O
C       0.3085    0.381   0.6206     C
H       0.3131   0.2332    0.888     H
H       0.3341   0.5732   0.5958     H
O       0.3391    0.915    0.398     O
C       0.3521   0.2488   0.3179     C
O       0.3601   0.8994   0.5731     O
C       0.3654   0.2016   0.6855     C
C       0.3837   0.5282   0.6213     C
O       0.4025   0.1652   0.3303     O
C        0.407   0.3432    0.663     C
S      0.40958  0.51876   0.2991     S
C       0.4124   0.9448   0.4915     C
O       0.4241    0.085    0.102     O
O       0.4607   0.1006   0.9269     O
C       0.4651   0.4036   0.3371     C
C       0.4676   0.0552   0.0085     C
O         0.47   0.1864   0.7299     O
Er     0.48063      1.0     0.25    Er
Er     0.51937      1.0     0.75    Er
O         0.53   0.8136   0.2701     O
C       0.5324   0.9448   0.9915     C
C       0.5349   0.5964   0.6629     C
O       0.5393   0.8994   0.0731     O
O       0.5759    0.915    0.898     O
C       0.5876   0.0552   0.5085     C
S      0.59042  0.48124   0.7009     S
C        0.593   0.6568    0.337     C
O       0.5975   0.8348   0.6697     O
C       0.6163   0.4718   0.3787     C
C       0.6346   0.7984   0.3145     C
O       0.6399   0.1006   0.4269     O
C       0.6479   0.7512   0.6821     C
O       0.6609    0.085    0.602     O
H       0.6659   0.4268   0.4042     H
H       0.6869   0.7668    0.112     H
C       0.6915    0.619   0.3794     C
O       0.7164   0.1864   0.2299     O
H       0.7609   0.4268   0.9042     H
O       0.7627   0.1652   0.8303     O
O       0.7755    0.895   0.3398     O
O       0.7778   0.8146   0.0975     O
O       0.7876   0.7888   0.7135     O
H       0.7955    0.682   0.4055     H
H       0.7983   0.7984   0.0302     H
H       0.8015   0.9392   0.9118     H
C       0.8362   0.2016   0.1855     C
C       0.8555   0.4718   0.8787     C
H       0.8623   0.0608   0.5882     H
O       0.8805    0.105   0.1602     O
H       0.8865    0.682   0.9055     H
S      0.89082  0.48124   0.2009     S
H       0.8939   0.9454   0.5213     H
C       0.8967   0.2488   0.8179     C
O       0.8969   0.9974   0.9156     O
O       0.8995   0.0026   0.5844     O
H       0.9201   0.2332    0.388     H
C       0.9275    0.619   0.8794     C
C       0.9362   0.3432    0.163     C
C       0.9385   0.4036   0.8371     C
H       0.9485   0.0546   0.9787     H
O       0.9632   0.1854   0.4025     O
Er     0.98143      0.0     0.25    Er
O       0.9988   0.2112   0.7865     O
H       0.9999   0.2016   0.4698     H
