data_I
_chemical_name_common  '/home/zhangsd/repos/MofS-CGCNN/ML/data/WS24/clean_cifs/AVUKIM'
_cell_length_a  8.02600
_cell_length_b  8.55400
_cell_length_c 17.84400
_cell_angle_alpha 90.00000
_cell_angle_beta  90.00000
_cell_angle_gamma 110.58700
_space_group_name_H-M_alt      'P 1'


loop_
_space_group_symop_operation_xyz
  'x, y, z' 

loop_
_atom_site_label
_atom_site_fract_x
_atom_site_fract_y
_atom_site_fract_z
_atom_site_type_symbol
O       0.0011   0.6213   0.9406     O
C       0.0026   0.8946   0.7076     C
C       0.0031   0.9536     0.63     C
H       0.0093   0.8308   0.1016     H
O       0.0108   0.7322   0.1052     O
C       0.0456   0.2625   0.1741     C
O       0.0562   0.7009   0.4634     O
C       0.0721   0.8957   0.8328     C
C       0.0755   0.5648   0.4775     C
O       0.0864   0.1496   0.4183     O
H       0.0902   0.3348   0.9089     H
O       0.0925   0.1023   0.6175     O
C       0.0959   0.3953   0.1171     C
C       0.0993   0.9873   0.7662     C
H       0.1188   0.9601   0.9711     H
S      0.12546  0.30367  0.26459     S
H       0.1291    0.939   0.8775     H
H       0.1742   0.0982    0.762     H
O       0.1889   0.9871   0.0084     O
O       0.2035   0.5233   0.4594     O
H       0.2329   0.9179   0.4992     H
O       0.2359   0.5209   0.1255     O
Sm     0.24813  0.28524 0.522311    Sm
Sm     0.25187  0.71476 0.022311    Sm
O       0.2641   0.4791   0.6255     O
H       0.2671   0.0821   0.9992     H
O       0.2965   0.4767   0.9594     O
O       0.3111   0.0129   0.5084     O
H       0.3258   0.9018    0.262     H
H       0.3709    0.061   0.3775     H
S      0.37454  0.69633  0.76459     S
H       0.3812   0.0399   0.4711     H
C       0.4007   0.0127   0.2662     C
C       0.4041   0.6047   0.6171     C
O       0.4075   0.8977   0.1175     O
H       0.4098   0.6652   0.4089     H
O       0.4136   0.8504   0.9183     O
C       0.4245   0.4352   0.9775     C
C       0.4279   0.1043   0.3328     C
O       0.4438   0.2991   0.9634     O
C       0.4544   0.7375   0.6741     C
O       0.4892   0.2678   0.6052     O
H       0.4907   0.1692   0.6016     H
C       0.4969   0.0464     0.13     C
C       0.4974   0.1054   0.2076     C
O       0.4989   0.3787   0.4406     O
O       0.5011   0.6213   0.5594     O
C       0.5026   0.8946   0.7924     C
C       0.5031   0.9536     0.87     C
H       0.5093   0.8308   0.3984     H
O       0.5108   0.7322   0.3948     O
C       0.5456   0.2625   0.3259     C
O       0.5562   0.7009   0.0366     O
C       0.5721   0.8957   0.6672     C
C       0.5755   0.5648   0.0225     C
O       0.5864   0.1496   0.0817     O
H       0.5902   0.3348   0.5911     H
O       0.5925   0.1023   0.8825     O
C       0.5959   0.3953   0.3829     C
C       0.5993   0.9873   0.7338     C
H       0.6188   0.9601   0.5289     H
S      0.62546  0.30367  0.23541     S
H       0.6291    0.939   0.6225     H
H       0.6742   0.0982    0.738     H
O       0.6889   0.9871   0.4916     O
O       0.7035   0.5233   0.0406     O
H       0.7329   0.9179   0.0008     H
O       0.7359   0.5209   0.3745     O
Sm     0.74813  0.28524 0.977689    Sm
Sm     0.75187  0.71476 0.477689    Sm
O       0.7641   0.4791   0.8745     O
H       0.7671   0.0821   0.5008     H
O       0.7965   0.4767   0.5406     O
O       0.8111   0.0129   0.9916     O
H       0.8258   0.9018    0.238     H
H       0.8709    0.061   0.1225     H
S      0.87454  0.69633  0.73541     S
H       0.8812   0.0399   0.0289     H
C       0.9007   0.0127   0.2338     C
C       0.9041   0.6047   0.8829     C
O       0.9075   0.8977   0.3825     O
H       0.9098   0.6652   0.0911     H
O       0.9136   0.8504   0.5817     O
C       0.9245   0.4352   0.5225     C
C       0.9279   0.1043   0.1672     C
O       0.9438   0.2991   0.5366     O
C       0.9544   0.7375   0.8259     C
O       0.9892   0.2678   0.8948     O
H       0.9907   0.1692   0.8984     H
C       0.9969   0.0464     0.37     C
C       0.9974   0.1054   0.2924     C
O       0.9989   0.3787   0.0594     O
