data_I
_chemical_name_common  '/home/zhangsd/repos/MofS-CGCNN/ML/data/WS24/clean_cifs/AWEDUC'
_cell_length_a  7.91140
_cell_length_b 14.25720
_cell_length_c 29.55700
_cell_angle_alpha 90.00000
_cell_angle_beta  90.00000
_cell_angle_gamma 90.00000
_space_group_name_H-M_alt      'P 1'


loop_
_space_group_symop_operation_xyz
  'x, y, z' 

loop_
_atom_site_label
_atom_site_fract_x
_atom_site_fract_y
_atom_site_fract_z
_atom_site_type_symbol
C          0.0   0.3087     0.75     C
C          0.0   0.6913     0.25     C
C       0.0111   0.2539  0.06554     C
C       0.0111   0.7461  0.93446     C
C       0.0393   0.0663  0.32788     C
C       0.0393   0.9337  0.67212     C
C       0.0399   0.2968  0.02403     C
C       0.0399   0.7032  0.97597     C
H       0.0423   0.4619   0.9587     H
H       0.0423   0.5381   0.0413     H
C        0.043   0.0486  0.90063     C
C        0.043   0.9514  0.09937     C
H       0.0438   0.3487   0.7262     H
H       0.0438   0.6513   0.2738     H
C       0.0469   0.2546  0.61517     C
C       0.0469   0.7454  0.38483     C
H       0.0491   0.3056   0.4961     H
H       0.0491   0.6944   0.5039     H
C       0.0576   0.0828   0.6342     C
C       0.0576   0.9172   0.3658     C
C       0.0613   0.1005  0.13728     C
C       0.0613   0.8995  0.86272     C
H        0.064   0.2594    0.895     H
H        0.064   0.7406    0.105     H
H       0.0668   0.1047   0.3035     H
H       0.0668   0.8953   0.6965     H
H       0.0705    0.087    0.925     H
H       0.0705    0.913    0.075     H
H       0.0823   0.3709    0.156     H
H       0.0823   0.6291    0.844     H
H       0.0935   0.2001    0.787     H
H       0.0935   0.7999    0.213     H
H       0.0971   0.2339   0.4268     H
H       0.0971   0.7661   0.5732     H
C       0.0987   0.0254  0.67058     C
C       0.0987   0.9746  0.32942     C
C       0.1024   0.0431   0.1009     C
C       0.1024   0.9569   0.8991     C
N       0.1146   0.1951  0.13709     N
N       0.1146   0.8049  0.86291     N
N       0.1275   0.1737  0.63115     N
N       0.1275   0.8263  0.36885     N
C       0.1334   0.3389  0.17974     C
C       0.1334   0.6611  0.82026     C
C       0.1398   0.4329  0.94805     C
C       0.1398   0.5671  0.05195     C
H       0.1418   0.3843   0.6082     H
H       0.1418   0.6157   0.3918     H
C       0.1422   0.2493   0.7685     C
C       0.1422   0.7507   0.2315     C
C       0.1441   0.2407   0.0956     C
C       0.1441   0.7593   0.9044     C
C       0.1598   0.3228  0.61748     C
C       0.1598   0.6772  0.38252     C
C       0.1612   0.2415  0.17709     C
C       0.1612   0.7585  0.82291     C
H        0.166   0.0483   0.6939     H
H        0.166   0.9517   0.3061     H
H       0.1678   0.4511   0.2209     H
H       0.1678   0.5489   0.7791     H
H       0.1697   0.0661   0.0776     H
H       0.1697   0.9339   0.9224     H
H       0.1794   0.4904   0.8858     H
H       0.1794   0.5096   0.1142     H
C       0.1842   0.3866  0.21874     C
C       0.1842   0.6134  0.78126     C
H       0.1988   0.2192   0.7432     H
H       0.1988   0.7808   0.2568     H
C       0.2016   0.3266  0.01258     C
C       0.2016   0.6734  0.98742     C
C       0.2152   0.4479  0.90768     C
C       0.2152   0.5521  0.09232     C
N       0.2319   0.3683  0.96976     N
N       0.2319   0.6317  0.03024     N
C       0.2355   0.1954  0.21403     C
C       0.2355   0.8046  0.78597     C
H       0.2507   0.1308   0.2128     H
H       0.2507   0.8692   0.7872     H
C       0.2582   0.3387  0.25384     C
C       0.2582   0.6613  0.74616     C
C       0.2668   0.2978   0.7948     C
C       0.2668   0.7022   0.2052     C
C       0.2858   0.1995   0.6431     C
C       0.2858   0.8005   0.3569     C
C       0.2863   0.2433   0.2519     C
C       0.2863   0.7567   0.7481     C
O       0.2993   0.3793  0.79539     O
O       0.2993   0.6207  0.20461     O
C       0.3059   0.2704  0.08415     C
C       0.3059   0.7296  0.91585     C
H        0.307   0.2972   0.3464     H
H        0.307   0.7028   0.6536     H
N       0.3072   0.2892  0.63557     N
N       0.3072   0.7108  0.36443     N
N       0.3106   0.3896    0.293     N
N       0.3106   0.6104    0.707     N
C       0.3285   0.3579  0.33631     C
C       0.3285   0.6421  0.66369     C
C       0.3346   0.3134  0.04264     C
C       0.3346   0.6866  0.95736     C
H       0.3386   0.2121   0.2757     H
H       0.3386   0.7879   0.7243     H
N       0.3514   0.3907  0.90431     N
N       0.3514   0.6093  0.09569     N
H       0.3573    0.482   0.7318     H
H       0.3573    0.518   0.2682     H
C       0.3577   0.4795  0.29356     C
C       0.3577   0.5205  0.70644     C
O       0.3587   0.2524  0.81786     O
O       0.3587   0.7476  0.18214     O
C       0.3616   0.3443  0.94154     C
C       0.3616   0.6557  0.05846     C
H       0.3673   0.1594   0.6549     H
H       0.3673   0.8406   0.3451     H
C       0.3823    0.429  0.36154     C
C       0.3823    0.571  0.63846     C
H       0.3949   0.2616   0.1043     H
H       0.3949   0.7384   0.8957     H
H       0.4018   0.4268   0.3926     H
H       0.4018   0.5732   0.6074     H
N       0.4047   0.4926  0.66597     N
N       0.4047   0.5074  0.33403     N
H       0.4428 0.33333333    0.035     H
H       0.4428 0.66666667    0.965     H
H       0.4453   0.3007   0.9483     H
H       0.4453   0.6993   0.0517     H
Zn     0.49221  0.36874  0.84944    Zn
Zn     0.49221  0.63126  0.15056    Zn
Zn     0.50779  0.36874  0.65056    Zn
Zn     0.50779  0.63126  0.34944    Zn
H       0.5547   0.3007   0.5517     H
H       0.5547   0.6993   0.4483     H
H       0.5572 0.33333333    0.465     H
H       0.5572 0.66666667    0.535     H
N       0.5953   0.4926  0.83403     N
N       0.5953   0.5074  0.16597     N
H       0.5982   0.4268   0.1074     H
H       0.5982   0.5732   0.8926     H
H       0.6051   0.2616   0.3957     H
H       0.6051   0.7384   0.6043     H
C       0.6177    0.429  0.13846     C
C       0.6177    0.571  0.86154     C
H       0.6327   0.1594   0.8451     H
H       0.6327   0.8406   0.1549     H
C       0.6384   0.3443  0.55846     C
C       0.6384   0.6557  0.44154     C
O       0.6413   0.2524  0.68214     O
O       0.6413   0.7476  0.31786     O
C       0.6423   0.4795  0.20644     C
C       0.6423   0.5205  0.79356     C
H       0.6427    0.482   0.7682     H
H       0.6427    0.518   0.2318     H
N       0.6486   0.3907  0.59569     N
N       0.6486   0.6093  0.40431     N
H       0.6614   0.2121   0.2243     H
H       0.6614   0.7879   0.7757     H
C       0.6654   0.3134  0.45736     C
C       0.6654   0.6866  0.54264     C
C       0.6715   0.3579  0.16369     C
C       0.6715   0.6421  0.83631     C
N       0.6894   0.3896    0.207     N
N       0.6894   0.6104    0.793     N
N       0.6928   0.2892  0.86443     N
N       0.6928   0.7108  0.13557     N
H        0.693   0.2972   0.1536     H
H        0.693   0.7028   0.8464     H
C       0.6941   0.2704  0.41585     C
C       0.6941   0.7296  0.58415     C
O       0.7007   0.3793  0.70461     O
O       0.7007   0.6207  0.29539     O
C       0.7137   0.2433   0.2481     C
C       0.7137   0.7567   0.7519     C
C       0.7142   0.1995   0.8569     C
C       0.7142   0.8005   0.1431     C
C       0.7332   0.2978   0.7052     C
C       0.7332   0.7022   0.2948     C
C       0.7418   0.3387  0.24616     C
C       0.7418   0.6613  0.75384     C
H       0.7493   0.1308   0.2872     H
H       0.7493   0.8692   0.7128     H
C       0.7645   0.1954  0.28597     C
C       0.7645   0.8046  0.71403     C
N       0.7681   0.3683  0.53024     N
N       0.7681   0.6317  0.46976     N
C       0.7848   0.4479  0.59232     C
C       0.7848   0.5521  0.40768     C
C       0.7984   0.3266  0.48742     C
C       0.7984   0.6734  0.51258     C
H       0.8012   0.2192   0.7568     H
H       0.8012   0.7808   0.2432     H
C       0.8158   0.3866  0.28126     C
C       0.8158   0.6134  0.71874     C
H       0.8206   0.4904   0.6142     H
H       0.8206   0.5096   0.3858     H
H       0.8303   0.0661   0.4224     H
H       0.8303   0.9339   0.5776     H
H       0.8322   0.4511   0.2791     H
H       0.8322   0.5489   0.7209     H
H        0.834   0.0483   0.8061     H
H        0.834   0.9517   0.1939     H
C       0.8388   0.2415  0.32291     C
C       0.8388   0.7585  0.67709     C
C       0.8402   0.3228  0.88252     C
C       0.8402   0.6772  0.11748     C
C       0.8559   0.2407   0.4044     C
C       0.8559   0.7593   0.5956     C
C       0.8578   0.2493   0.7315     C
C       0.8578   0.7507   0.2685     C
H       0.8582   0.3843   0.8918     H
H       0.8582   0.6157   0.1082     H
C       0.8602   0.4329  0.55195     C
C       0.8602   0.5671  0.44805     C
C       0.8666   0.3389  0.32026     C
C       0.8666   0.6611  0.67974     C
N       0.8725   0.1737  0.86885     N
N       0.8725   0.8263  0.13115     N
N       0.8854   0.1951  0.36291     N
N       0.8854   0.8049  0.63709     N
C       0.8976   0.0431   0.3991     C
C       0.8976   0.9569   0.6009     C
C       0.9013   0.0254  0.82942     C
C       0.9013   0.9746  0.17058     C
H       0.9029   0.2339   0.0732     H
H       0.9029   0.7661   0.9268     H
H       0.9065   0.2001    0.713     H
H       0.9065   0.7999    0.287     H
H       0.9177   0.3709    0.344     H
H       0.9177   0.6291    0.656     H
H       0.9295    0.087    0.575     H
H       0.9295    0.913    0.425     H
H       0.9332   0.1047   0.1965     H
H       0.9332   0.8953   0.8035     H
H        0.936   0.2594    0.605     H
H        0.936   0.7406    0.395     H
C       0.9387   0.1005  0.36272     C
C       0.9387   0.8995  0.63728     C
C       0.9424   0.0828   0.8658     C
C       0.9424   0.9172   0.1342     C
H       0.9509   0.3056   0.0039     H
H       0.9509   0.6944   0.9961     H
C       0.9531   0.2546  0.88483     C
C       0.9531   0.7454  0.11517     C
H       0.9562   0.3487   0.7738     H
H       0.9562   0.6513   0.2262     H
C        0.957   0.0486  0.59937     C
C        0.957   0.9514  0.40063     C
H       0.9577   0.4619   0.5413     H
H       0.9577   0.5381   0.4587     H
C       0.9601   0.2968  0.47597     C
C       0.9601   0.7032  0.52403     C
C       0.9607   0.0663  0.17212     C
C       0.9607   0.9337  0.82788     C
C       0.9889   0.2539  0.43446     C
C       0.9889   0.7461  0.56554     C
