data_I
_chemical_name_common  '/home/zhangsd/repos/MofS-CGCNN/ML/data/WS24/clean_cifs/AWIBEP'
_cell_length_a  8.11810
_cell_length_b 10.23000
_cell_length_c 11.71030
_cell_angle_alpha 114.98000
_cell_angle_beta  99.90600
_cell_angle_gamma 98.25800
_space_group_name_H-M_alt      'P 1'


loop_
_space_group_symop_operation_xyz
  'x, y, z' 

loop_
_atom_site_label
_atom_site_fract_x
_atom_site_fract_y
_atom_site_fract_z
_atom_site_type_symbol
H       0.0035   0.2061   0.7456     H
N        0.008   0.7064   0.2402     N
C       0.0135   0.6112   0.1246     C
H       0.0148   0.6816   0.3022     H
O       0.0157   0.1759   0.0552     O
C       0.0195   0.3601   0.9828     C
C       0.0315   0.4711   0.1048     C
O       0.0363   0.3317   0.3344     O
C       0.0393   0.2108   0.9671     C
H       0.0522   0.4516    0.176     H
O       0.0836   0.1275    0.871     O
H        0.103   0.0002   0.5073     H
H       0.1102   0.5326   0.4376     H
H       0.1194   0.0149   0.3938     H
Lu    0.129824  0.90033 0.831028    Lu
N       0.1486    0.964   0.4377     N
O       0.1574    0.912   0.6424     O
O       0.1729   0.1544   0.2686     O
C       0.1765   0.2896   0.3376     C
H       0.1858     0.55   0.7004     H
H       0.1953   0.6715   0.5444     H
N       0.2015   0.6046   0.4705     N
H        0.251   0.0832   0.1115     H
H       0.2547   0.3235   0.7285     H
C       0.2801   0.6052   0.7722     C
O       0.2981   0.7414   0.8323     O
O        0.311   0.0275   0.0449     O
C       0.3174   0.9714   0.6827     C
C       0.3191   0.9711   0.4679     C
C       0.3424   0.4002    0.421     C
C       0.3485   0.5523   0.4897     C
H       0.3503   0.9663   0.2991     H
C       0.3642   0.3739   0.7288     C
H       0.3671   0.3509   0.6409     H
N       0.3888   0.5343   0.8053     N
H       0.3932   0.3186   0.1113     H
O       0.3951   0.0049   0.7977     O
H       0.3998   0.4548   0.0817     H
H       0.4009   0.9933   0.0879     H
C       0.4102   0.9798     0.38     C
C       0.4107   0.9918   0.5894     C
H       0.4545   0.3419   0.7667     H
C       0.4635   0.3868   0.0923     C
H       0.4862   0.2501   0.3838     H
C        0.492   0.3508   0.4311     C
H       0.4956   0.3325   0.0134     H
H       0.5044   0.6675   0.9866     H
C        0.508   0.6492   0.5689     C
H       0.5138   0.7499   0.6162     H
C       0.5365   0.6132   0.9077     C
H       0.5455   0.6581   0.2333     H
C       0.5893   0.0082   0.4106     C
C       0.5898   0.0202     0.62     C
H       0.5991   0.0067   0.9121     H
H       0.6002   0.5452   0.9183     H
O       0.6049   0.9951   0.2023     O
H       0.6068   0.6814   0.8887     H
N       0.6112   0.4657   0.1947     N
H       0.6329   0.6491   0.3591     H
C       0.6358   0.6261   0.2712     C
H       0.6497   0.0337   0.7009     H
C       0.6515   0.4477   0.5103     C
C       0.6576   0.5998    0.579     C
C       0.6809   0.0289   0.5321     C
C       0.6826   0.0286   0.3173     C
O        0.689   0.9725   0.9551     O
O       0.7019   0.2586   0.1677     O
C       0.7199   0.3948   0.2278     C
H       0.7453   0.6765   0.2715     H
H        0.749   0.9168   0.8885     H
N       0.7985   0.3954   0.5295     N
H       0.8047   0.3285   0.4556     H
H       0.8142     0.45   0.2996     H
C       0.8235   0.7104   0.6624     C
O       0.8271   0.8456   0.7314     O
O       0.8426    0.088   0.3576     O
N       0.8514    0.036   0.5623     N
Lu    0.870176  0.09967 0.168972    Lu
H       0.8806   0.9851   0.6062     H
H       0.8898   0.4674   0.5624     H
H        0.897   0.9998   0.4927     H
O       0.9164   0.8725    0.129     O
H       0.9478   0.5484    0.824     H
C       0.9607   0.7892   0.0329     C
O       0.9637   0.6683   0.6656     O
C       0.9685   0.5289   0.8952     C
C       0.9805   0.6399   0.0172     C
O       0.9843   0.8241   0.9448     O
H       0.9852   0.3184   0.6978     H
C       0.9865   0.3888   0.8754     C
N        0.992   0.2936   0.7598     N
H       0.9965   0.7939   0.2544     H
