data_I
_chemical_name_common  '/home/zhangsd/repos/MofS-CGCNN/ML/data/WS24/clean_cifs/AWIBIT'
_cell_length_a 16.63080
_cell_length_b 20.57190
_cell_length_c 20.57580
_cell_angle_alpha 119.80100
_cell_angle_beta  90.00000
_cell_angle_gamma 90.00000
_space_group_name_H-M_alt      'P 1'


loop_
_space_group_symop_operation_xyz
  'x, y, z' 

loop_
_atom_site_label
_atom_site_fract_x
_atom_site_fract_y
_atom_site_fract_z
_atom_site_type_symbol
C       0.0024   0.4361   0.5077     C
C       0.0039   0.9438   0.1876     C
C       0.0047   0.3689   0.5163     C
O       0.0059   0.2395   0.0898     O
O       0.0108   0.8456   0.5499     O
C       0.0229   0.8725   0.1171     C
O       0.0231    0.253   0.6208     O
C       0.0235     0.53   0.9566     C
C       0.0263   0.4286   0.9849     C
O       0.0266   0.3288   0.0116     O
C       0.0279    0.564    0.555     C
H       0.0295   0.2151   0.3074     H
O       0.0322   0.1691   0.9264     O
C       0.0334   0.5022   0.5642     C
C       0.0341   0.9269   0.6793     C
C       0.0342   0.0319   0.3143     C
N       0.0383   0.7919   0.8051     N
C       0.0393    0.736   0.2466     C
H       0.0408   0.5494   0.9267     H
H       0.0417   0.7329   0.1472     H
C       0.0431   0.2194    0.213     C
O       0.0439   0.6846   0.5198     O
N       0.0465   0.2555   0.7474     N
C       0.0495   0.4585   0.9405     C
C       0.0522   0.7349   0.3675     C
C       0.0535   0.3542   0.9712     C
C       0.0541   0.8605   0.6058     C
C       0.0551   0.9682   0.2478     C
H       0.0552   0.5046   0.6069     H
N       0.0596   0.6244   0.6129     N
O       0.0603   0.3639   0.5535     O
C       0.0632   0.0157   0.8074     C
H       0.0672   0.0474   0.3559     H
C       0.0672   0.2229   0.2786     C
Lu     0.07195 0.744396  0.98653    Lu
C       0.0745   0.7327   0.1838     C
C       0.0784    0.229   0.0985     C
Lu     0.07877  0.24164  0.51703    Lu
H       0.0835   0.0709   0.6788     H
C       0.0845   0.9505   0.7427     C
C       0.0863   0.7338   0.3003     C
N       0.0864   0.0117   0.4699     N
N       0.0923    0.933   0.9628     N
O       0.0936   0.8528   0.1012     O
H       0.0947   0.5081   0.7877     H
O       0.0958   0.7223   0.4088     O
H       0.0961   0.0326   0.8493     H
C       0.1001   0.2305   0.1698     C
N       0.1003   0.4224   0.8821     N
O       0.1045   0.3178    0.921     O
O       0.1119     0.23   0.4101     O
O       0.1155   0.8223   0.6006     O
O       0.1178   0.6411   0.8881     O
H        0.119   0.3954   0.6829     H
N       0.1261    0.935   0.2503     N
H       0.1273    0.456   0.3817     H
H       0.1293    0.139   0.6818     H
N       0.1308   0.4633   0.1641     N
O       0.1328   0.2186   0.0523     O
C        0.133   0.0869    0.667     C
H       0.1426   0.0581    0.614     H
O       0.1429    0.707   0.0502     O
H       0.1453   0.9015   0.4723     H
C       0.1454   0.4981   0.7657     C
C       0.1465   0.2379   0.3029     C
H       0.1478    0.045     0.96     H
O       0.1489   0.1539   0.8214     O
O       0.1496   0.8095   0.9534     O
O       0.1497   0.1413   0.4918     O
N       0.1517   0.9098   0.7436     N
Lu     0.15708  0.22952  0.95056    Lu
C       0.1576   0.7293   0.1742     C
C       0.1595   0.4313    0.702     C
C       0.1665   0.2423   0.3768     C
Lu     0.16771  0.72078  0.49935    Lu
C       0.1691   0.7313   0.2913     C
C       0.1693   0.9941   0.4647     C
C       0.1724   0.9493   0.9621     C
C       0.1798   0.2422   0.1929     C
H       0.1803   0.5713   0.2857     H
C       0.1829   0.4457   0.3851     C
O        0.183   0.6008   0.4699     O
H       0.1865   0.0512    0.175     H
C       0.1869   0.9294   0.4681     C
H       0.1894   0.3934   0.3689     H
C       0.1895   0.0155   0.9613     C
C       0.1898   0.6238   0.8668     C
C       0.1899   0.7238   0.1051     C
O       0.1904   0.2936   0.5756     O
H       0.1977   0.4556   0.5346     H
N       0.1982   0.0758   0.7064     N
O       0.1991   0.3384   0.0512     O
C       0.1996   0.1092   0.7803     C
H       0.2014   0.7307   0.3279     H
C        0.204   0.2485   0.2601     C
C       0.2056   0.7296   0.2297     C
C       0.2057   0.5613   0.4933     C
C       0.2063   0.5512   0.7977     C
C       0.2074   0.4686   0.1958     C
N       0.2109    0.492   0.4654     N
N       0.2126   0.7324   0.7285     N
H       0.2127   0.4583   0.0123     H
H       0.2144   0.4582   0.3537     H
C       0.2156   0.1102   0.4636     C
N       0.2172   0.2748   0.7823     N
C       0.2177    0.839   0.9741     C
H       0.2182    0.246   0.1621     H
C       0.2217   0.5366   0.2641     C
H       0.2233   0.5877   0.5427     H
O       0.2288   0.8181   0.5016     O
H       0.2296   0.3954   0.4556     H
C       0.2311   0.0374   0.4625     C
C        0.233   0.4469   0.4941     C
C       0.2331   0.4158    0.665     C
O       0.2332   0.1343   0.9362     O
H       0.2338   0.9838   0.1719     H
C       0.2349   0.9068   0.9653     C
O       0.2364   0.7346   0.6013     O
C       0.2367   0.0246   0.1619     C
O       0.2381   0.2581      0.4     O
H        0.242    0.098   0.8026     H
C       0.2425   0.3456   0.5933     C
H       0.2471   0.0054   0.1096     H
O       0.2478   0.6656   0.9028     O
O       0.2522   0.6656   0.4028     O
H       0.2529   0.0054   0.6096     H
C       0.2575   0.3456   0.0933     C
H        0.258    0.098   0.3026     H
O       0.2619   0.2581      0.9     O
C       0.2633   0.0246   0.6619     C
O       0.2636   0.7346   0.1013     O
C       0.2651   0.9068   0.4653     C
H       0.2662   0.9838   0.6719     H
O       0.2668   0.1343   0.4362     O
C       0.2669   0.4158    0.165     C
C        0.267   0.4469   0.9941     C
C       0.2689   0.0374   0.9625     C
H       0.2704   0.3954   0.9556     H
O       0.2712   0.8181   0.0016     O
H       0.2767   0.5877   0.0427     H
C       0.2783   0.5366   0.7641     C
H       0.2818    0.246   0.6621     H
C       0.2823    0.839   0.4741     C
N       0.2828   0.2748   0.2823     N
C       0.2844   0.1102   0.9636     C
H       0.2856   0.4582   0.8537     H
H       0.2873   0.4583   0.5123     H
N       0.2874   0.7324   0.2285     N
N       0.2891    0.492   0.9654     N
C       0.2926   0.4686   0.6958     C
C       0.2937   0.5512   0.2977     C
C       0.2943   0.5613   0.9933     C
C       0.2944   0.7296   0.7297     C
C        0.296   0.2485   0.7601     C
H       0.2986   0.7307   0.8279     H
C       0.3004   0.1092   0.2803     C
O       0.3009   0.3384   0.5512     O
N       0.3018   0.0758   0.2064     N
H       0.3023   0.4556   0.0346     H
O       0.3096   0.2936   0.0756     O
C       0.3101   0.7238   0.6051     C
C       0.3102   0.6238   0.3668     C
C       0.3105   0.0155   0.4613     C
H       0.3106   0.3934   0.8689     H
C       0.3131   0.9294   0.9681     C
H       0.3135   0.0512    0.675     H
O        0.317   0.6008   0.9699     O
C       0.3171   0.4457   0.8851     C
H       0.3197   0.5713   0.7857     H
C       0.3202   0.2422   0.6929     C
C       0.3276   0.9493   0.4621     C
C       0.3307   0.9941   0.9647     C
C       0.3309   0.7313   0.7913     C
Lu     0.33229  0.72078  0.99935    Lu
C       0.3335   0.2423   0.8768     C
C       0.3405   0.4313    0.202     C
C       0.3424   0.7293   0.6742     C
Lu     0.34292  0.22952  0.45056    Lu
N       0.3483   0.9098   0.2436     N
O       0.3503   0.1413   0.9918     O
O       0.3504   0.8095   0.4534     O
O       0.3511   0.1539   0.3214     O
H       0.3522    0.045     0.46     H
C       0.3535   0.2379   0.8029     C
C       0.3546   0.4981   0.2657     C
H       0.3547   0.9015   0.9723     H
O       0.3571    0.707   0.5502     O
H       0.3574   0.0581    0.114     H
C        0.367   0.0869    0.167     C
O       0.3672   0.2186   0.5523     O
N       0.3692   0.4633   0.6641     N
H       0.3707    0.139   0.1818     H
H       0.3727    0.456   0.8817     H
N       0.3739    0.935   0.7503     N
H        0.381   0.3954   0.1829     H
O       0.3822   0.6411   0.3881     O
O       0.3845   0.8223   0.1006     O
O       0.3881     0.23   0.9101     O
O       0.3955   0.3178    0.421     O
N       0.3997   0.4224   0.3821     N
C       0.3999   0.2305   0.6698     C
H       0.4039   0.0326   0.3493     H
O       0.4042   0.7223   0.9088     O
H       0.4053   0.5081   0.2877     H
O       0.4064   0.8528   0.6012     O
N       0.4077    0.933   0.4628     N
N       0.4136   0.0117   0.9699     N
C       0.4137   0.7338   0.8003     C
C       0.4155   0.9505   0.2427     C
H       0.4165   0.0709   0.1788     H
Lu     0.42123  0.24164  0.01703    Lu
C       0.4216    0.229   0.5985     C
C       0.4255   0.7327   0.6838     C
Lu     0.42805 0.744396  0.48653    Lu
H       0.4328   0.0474   0.8559     H
C       0.4328   0.2229   0.7786     C
C       0.4368   0.0157   0.3074     C
O       0.4397   0.3639   0.0535     O
N       0.4404   0.6244   0.1129     N
H       0.4448   0.5046   0.1069     H
C       0.4449   0.9682   0.7478     C
C       0.4459   0.8605   0.1058     C
C       0.4465   0.3542   0.4712     C
C       0.4478   0.7349   0.8675     C
C       0.4505   0.4585   0.4405     C
N       0.4535   0.2555   0.2474     N
O       0.4561   0.6846   0.0198     O
C       0.4569   0.2194    0.713     C
H       0.4583   0.7329   0.6472     H
H       0.4592   0.5494   0.4267     H
C       0.4607    0.736   0.7466     C
N       0.4617   0.7919   0.3051     N
C       0.4658   0.0319   0.8143     C
C       0.4659   0.9269   0.1793     C
C       0.4666   0.5022   0.0642     C
O       0.4678   0.1691   0.4264     O
H       0.4705   0.2151   0.8074     H
C       0.4721    0.564    0.055     C
O       0.4734   0.3288   0.5116     O
C       0.4737   0.4286   0.4849     C
C       0.4765     0.53   0.4566     C
O       0.4769    0.253   0.1208     O
C       0.4771   0.8725   0.6171     C
O       0.4892   0.8456   0.0499     O
O       0.4941   0.2395   0.5898     O
C       0.4953   0.3689   0.0163     C
C       0.4961   0.9438   0.6876     C
C       0.4976   0.4361   0.0077     C
C       0.5024   0.5639   0.9923     C
C       0.5039   0.0562   0.3124     C
C       0.5047   0.6311   0.9837     C
O       0.5059   0.7605   0.4102     O
O       0.5108   0.1544   0.9501     O
C       0.5229   0.1275   0.3829     C
O       0.5231    0.747   0.8792     O
C       0.5235     0.47   0.5434     C
C       0.5263   0.5714   0.5151     C
O       0.5266   0.6712   0.4884     O
C       0.5279    0.436    0.945     C
H       0.5295   0.7849   0.1926     H
O       0.5322   0.8309   0.5736     O
C       0.5334   0.4978   0.9358     C
C       0.5341   0.0731   0.8207     C
C       0.5342   0.9681   0.1857     C
N       0.5383   0.2081   0.6949     N
C       0.5393    0.264   0.2534     C
H       0.5408   0.4506   0.5733     H
H       0.5417   0.2671   0.3528     H
C       0.5431   0.7806    0.287     C
O       0.5439   0.3154   0.9802     O
N       0.5465   0.7445   0.7526     N
C       0.5495   0.5415   0.5595     C
C       0.5522   0.2651   0.1325     C
C       0.5535   0.6458   0.5288     C
C       0.5541   0.1395   0.8942     C
C       0.5551   0.0318   0.2522     C
H       0.5552   0.4954   0.8931     H
N       0.5596   0.3756   0.8871     N
O       0.5603   0.6361   0.9465     O
C       0.5632   0.9843   0.6926     C
C       0.5672   0.7771   0.2214     C
H       0.5672   0.9526   0.1441     H
Lu     0.57195 0.255604  0.51347    Lu
C       0.5745   0.2673   0.3162     C
C       0.5784    0.771   0.4015     C
Lu     0.57877  0.75836  0.98297    Lu
H       0.5835   0.9291   0.8212     H
C       0.5845   0.0495   0.7573     C
C       0.5863   0.2662   0.1997     C
N       0.5864   0.9883   0.0301     N
N       0.5923    0.067   0.5372     N
O       0.5936   0.1472   0.3988     O
H       0.5947   0.4919   0.7123     H
O       0.5958   0.2777   0.0912     O
H       0.5961   0.9674   0.6507     H
C       0.6001   0.7695   0.3302     C
N       0.6003   0.5776   0.6179     N
O       0.6045   0.6822    0.579     O
O       0.6119     0.77   0.0899     O
O       0.6155   0.1777   0.8994     O
O       0.6178   0.3589   0.6119     O
H        0.619   0.6046   0.8171     H
N       0.6261    0.065   0.2497     N
H       0.6273    0.544   0.1183     H
H       0.6293    0.861   0.8182     H
N       0.6308   0.5367   0.3359     N
O       0.6328   0.7814   0.4477     O
C        0.633   0.9131    0.833     C
H       0.6426   0.9419    0.886     H
O       0.6429    0.293   0.4498     O
H       0.6453   0.0985   0.0277     H
C       0.6454   0.5019   0.7343     C
C       0.6465   0.7621   0.1971     C
H       0.6478    0.955     0.54     H
O       0.6489   0.8461   0.6786     O
O       0.6496   0.1905   0.5466     O
O       0.6497   0.8587   0.0082     O
N       0.6517   0.0902   0.7564     N
Lu     0.65708  0.77048  0.54944    Lu
C       0.6576   0.2707   0.3258     C
C       0.6595   0.5687    0.798     C
C       0.6665   0.7577   0.1232     C
Lu     0.66771  0.27922  0.00065    Lu
C       0.6691   0.2687   0.2087     C
C       0.6693   0.0059   0.0353     C
C       0.6724   0.0507   0.5379     C
C       0.6798   0.7578   0.3071     C
H       0.6803   0.4287   0.2143     H
C       0.6829   0.5543   0.1149     C
O        0.683   0.3992   0.0301     O
H       0.6865   0.9488    0.325     H
C       0.6869   0.0706   0.0319     C
H       0.6894   0.6066   0.1311     H
C       0.6895   0.9845   0.5387     C
C       0.6898   0.3762   0.6332     C
C       0.6899   0.2762   0.3949     C
O       0.6904   0.7064   0.9244     O
H       0.6977   0.5444   0.9654     H
N       0.6982   0.9242   0.7936     N
O       0.6991   0.6616   0.4488     O
C       0.6996   0.8908   0.7197     C
H       0.7014   0.2693   0.1721     H
C        0.704   0.7515   0.2399     C
C       0.7056   0.2704   0.2703     C
C       0.7057   0.4387   0.0067     C
C       0.7063   0.4488   0.7023     C
C       0.7074   0.5314   0.3042     C
N       0.7109    0.508   0.0346     N
N       0.7126   0.2676   0.7715     N
H       0.7127   0.5417   0.4877     H
H       0.7144   0.5418   0.1463     H
C       0.7156   0.8898   0.0364     C
N       0.7172   0.7252   0.7177     N
C       0.7177    0.161   0.5259     C
H       0.7182    0.754   0.3379     H
C       0.7217   0.4634   0.2359     C
H       0.7233   0.4123   0.9573     H
O       0.7288   0.1819   0.9984     O
H       0.7296   0.6046   0.0444     H
C       0.7311   0.9626   0.0375     C
C        0.733   0.5531   0.0059     C
C       0.7331   0.5842    0.835     C
O       0.7332   0.8657   0.5638     O
H       0.7338   0.0162   0.3281     H
C       0.7349   0.0932   0.5347     C
O       0.7364   0.2654   0.8987     O
C       0.7367   0.9754   0.3381     C
O       0.7381   0.7419      0.1     O
H        0.742    0.902   0.6974     H
C       0.7425   0.6544   0.9067     C
H       0.7471   0.9946   0.3904     H
O       0.7478   0.3344   0.5972     O
O       0.7522   0.3344   0.0972     O
H       0.7529   0.9946   0.8904     H
C       0.7575   0.6544   0.4067     C
H        0.758    0.902   0.1974     H
O       0.7619   0.7419      0.6     O
C       0.7633   0.9754   0.8381     C
O       0.7636   0.2654   0.3987     O
C       0.7651   0.0932   0.0347     C
H       0.7662   0.0162   0.8281     H
O       0.7668   0.8657   0.0638     O
C       0.7669   0.5842    0.335     C
C        0.767   0.5531   0.5059     C
C       0.7689   0.9626   0.5375     C
H       0.7704   0.6046   0.5444     H
O       0.7712   0.1819   0.4984     O
H       0.7767   0.4123   0.4573     H
C       0.7783   0.4634   0.7359     C
H       0.7818    0.754   0.8379     H
C       0.7823    0.161   0.0259     C
N       0.7828   0.7252   0.2177     N
C       0.7844   0.8898   0.5364     C
H       0.7856   0.5418   0.6463     H
H       0.7873   0.5417   0.9877     H
N       0.7874   0.2676   0.2715     N
N       0.7891    0.508   0.5346     N
C       0.7926   0.5314   0.8042     C
C       0.7937   0.4488   0.2023     C
C       0.7943   0.4387   0.5067     C
C       0.7944   0.2704   0.7703     C
C        0.796   0.7515   0.7399     C
H       0.7986   0.2693   0.6721     H
C       0.8004   0.8908   0.2197     C
O       0.8009   0.6616   0.9488     O
N       0.8018   0.9242   0.2936     N
H       0.8023   0.5444   0.4654     H
O       0.8096   0.7064   0.4244     O
C       0.8101   0.2762   0.8949     C
C       0.8102   0.3762   0.1332     C
C       0.8105   0.9845   0.0387     C
H       0.8106   0.6066   0.6311     H
C       0.8131   0.0706   0.5319     C
H       0.8135   0.9488    0.825     H
O        0.817   0.3992   0.5301     O
C       0.8171   0.5543   0.6149     C
H       0.8197   0.4287   0.7143     H
C       0.8202   0.7578   0.8071     C
C       0.8276   0.0507   0.0379     C
C       0.8307   0.0059   0.5353     C
C       0.8309   0.2687   0.7087     C
Lu     0.83229  0.27922  0.50065    Lu
C       0.8335   0.7577   0.6232     C
C       0.8405   0.5687    0.298     C
C       0.8424   0.2707   0.8258     C
Lu     0.84292  0.77048  0.04944    Lu
N       0.8483   0.0902   0.2564     N
O       0.8503   0.8587   0.5082     O
O       0.8504   0.1905   0.0466     O
O       0.8511   0.8461   0.1786     O
H       0.8522    0.955     0.04     H
C       0.8535   0.7621   0.6971     C
C       0.8546   0.5019   0.2343     C
H       0.8547   0.0985   0.5277     H
O       0.8571    0.293   0.9498     O
H       0.8574   0.9419    0.386     H
C        0.867   0.9131    0.333     C
O       0.8672   0.7814   0.9477     O
N       0.8692   0.5367   0.8359     N
H       0.8707    0.861   0.3182     H
H       0.8727    0.544   0.6183     H
N       0.8739    0.065   0.7497     N
H        0.881   0.6046   0.3171     H
O       0.8822   0.3589   0.1119     O
O       0.8845   0.1777   0.3994     O
O       0.8881     0.77   0.5899     O
O       0.8955   0.6822    0.079     O
N       0.8997   0.5776   0.1179     N
C       0.8999   0.7695   0.8302     C
H       0.9039   0.9674   0.1507     H
O       0.9042   0.2777   0.5912     O
H       0.9053   0.4919   0.2123     H
O       0.9064   0.1472   0.8988     O
N       0.9077    0.067   0.0372     N
N       0.9136   0.9883   0.5301     N
C       0.9137   0.2662   0.6997     C
C       0.9155   0.0495   0.2573     C
H       0.9165   0.9291   0.3212     H
Lu     0.92123  0.75836  0.48297    Lu
C       0.9216    0.771   0.9015     C
C       0.9255   0.2673   0.8162     C
Lu     0.92805 0.255604  0.01347    Lu
C       0.9328   0.7771   0.7214     C
H       0.9328   0.9526   0.6441     H
C       0.9368   0.9843   0.1926     C
O       0.9397   0.6361   0.4465     O
N       0.9404   0.3756   0.3871     N
H       0.9448   0.4954   0.3931     H
C       0.9449   0.0318   0.7522     C
C       0.9459   0.1395   0.3942     C
C       0.9465   0.6458   0.0288     C
C       0.9478   0.2651   0.6325     C
C       0.9505   0.5415   0.0595     C
N       0.9535   0.7445   0.2526     N
O       0.9561   0.3154   0.4802     O
C       0.9569   0.7806    0.787     C
H       0.9583   0.2671   0.8528     H
H       0.9592   0.4506   0.0733     H
C       0.9607    0.264   0.7534     C
N       0.9617   0.2081   0.1949     N
C       0.9658   0.9681   0.6857     C
C       0.9659   0.0731   0.3207     C
C       0.9666   0.4978   0.4358     C
O       0.9678   0.8309   0.0736     O
H       0.9705   0.7849   0.6926     H
C       0.9721    0.436    0.445     C
O       0.9734   0.6712   0.9884     O
C       0.9737   0.5714   0.0151     C
C       0.9765     0.47   0.0434     C
O       0.9769    0.747   0.3792     O
C       0.9771   0.1275   0.8829     C
O       0.9892   0.1544   0.4501     O
O       0.9941   0.7605   0.9102     O
C       0.9953   0.6311   0.4837     C
C       0.9961   0.0562   0.8124     C
C       0.9976   0.5639   0.4923     C
