data_I
_chemical_name_common  '/home/zhangsd/repos/MofS-CGCNN/ML/data/WS24/clean_cifs/AZAVII'
_cell_length_a 12.43710
_cell_length_b 14.07074
_cell_length_c 16.80689
_cell_angle_alpha 108.91238
_cell_angle_beta  105.25478
_cell_angle_gamma 104.79415
_space_group_name_H-M_alt      'P 1'


loop_
_space_group_symop_operation_xyz
  'x, y, z' 

loop_
_atom_site_label
_atom_site_fract_x
_atom_site_fract_y
_atom_site_fract_z
_atom_site_type_symbol
C      0.00312  0.12692  0.71924     C
O      0.00534  0.17464  0.33074     O
C      0.01211  0.76211  0.52422     C
C      0.01299  0.77039  0.93638     C
C      0.01485  0.77905   0.2389     C
C      0.01743  0.67173  0.93186     C
H       0.0234   0.4411   0.0194     H
C      0.02767  0.37367  0.01654     C
C       0.0293   0.6711   0.3826     C
C      0.03626  0.17636  0.00712     C
H       0.0382   0.1081   0.0036     H
H       0.0515   0.6353   0.8934     H
C      0.06101  0.81771  0.87882     C
C       0.0628   0.8128   0.6256     C
O      0.06579  0.91119  0.88704     O
H       0.0736   0.6411   0.3504     H
C      0.07722  0.71842  0.47744     C
C      0.07965  0.32225   0.9603     C
H       0.0803   0.0344    0.361     H
H       0.0821   0.1294   0.7258     H
C      0.08256  0.33256  0.66512     C
C       0.0826   0.2218   0.9554     C
C      0.08667  0.32877  0.81434     C
C       0.0936   0.9707   0.3322     C
O     0.09638333  0.76305   0.8221     O
C      0.09978  0.24098  0.52256     C
H       0.1163   0.1848   0.9168     H
C       0.1301   0.7855    0.248     C
C      0.13334  0.37664  0.90928     C
C      0.13338  0.38338  0.76676     C
H       0.1437   0.5964   0.7258     H
H       0.1437    0.722   0.2188     H
H        0.144   0.2109   0.4902     H
Ni     0.14616  0.89616  0.79232    Ni
C       0.1467   0.2885   0.6174     C
H       0.1538   0.7207   0.5098     H
O       0.1746   0.8439  0.66926     O
C      0.20886  0.97646  0.34192     C
C      0.21612  0.59232  0.71924     C
H       0.2193   0.6734    0.639     H
H       0.2232   0.2907   0.6496     H
O     0.22571667  0.05905   0.8221     O
C      0.22595  0.88285   0.2989     C
C      0.22767  0.48557  0.81434     C
C      0.22885  0.47885   0.9577     C
C       0.2614   0.6385   0.6678     C
H       0.2635   0.6741   0.0752     H
C      0.27594  0.53264  0.90928     C
C      0.27595  0.54015   0.7611     C
C      0.27927  0.52927  0.05854     C
C      0.29015  0.63455   0.1071     C
H       0.3005    0.732   0.9168     H
H       0.3048   0.8856   0.3044     H
O      0.30536  0.16306  0.44888     O
H       0.3117   0.4011   0.0752     H
C      0.31518  0.08008  0.39796     C
C      0.31695  0.47255   0.1071     C
C      0.31781  0.06111  0.87882     C
O      0.32125  0.97585  0.88704     O
C      0.33948  0.68318  0.20156     C
H       0.3419   0.2581   0.8934     H
H       0.3489   0.7561   0.2332     H
O      0.35648  0.71418  0.55112     O
C      0.36208  0.51838  0.20156     C
C      0.36694  0.63454  0.65808     C
C       0.3728   0.7336   0.9554     C
C      0.37521  0.62521  0.25042     C
C      0.38065  0.63805   0.9603     C
C       0.3821   0.5375    0.752     C
H       0.3843   0.4771   0.2332     H
C      0.41443  0.26013  0.93186     C
O      0.41633  0.08393  0.39342     O
C      0.41722  0.68212  0.60204     C
C      0.42339  0.16599  0.93638     C
H       0.4249   0.5032   0.7812     H
C      0.42557  0.67557  0.35114     C
C      0.42705  0.58395   0.7011     C
O      0.44619  0.77469  0.39416     O
O      0.44797  0.61947  0.39416     O
H       0.4654   0.8955   0.0036     H
C      0.47086  0.83076  0.00712     C
O      0.47709  0.30949  0.39342     O
C      0.48887  0.64287  0.01654     C
Ni     0.49299  0.24299  0.48598    Ni
H        0.496   0.5783   0.0194     H
H       0.4996   0.4188   0.3044     H
H       0.5004   0.5812   0.6956     H
H        0.504   0.4217   0.9806     H
Ni     0.50701  0.75701  0.51402    Ni
C      0.51113  0.35713  0.98346     C
O      0.52291  0.69051  0.60658     O
C      0.52914  0.16924  0.99288     C
H       0.5346   0.1045   0.9964     H
O      0.55203  0.38053  0.60584     O
O      0.55381  0.22531  0.60584     O
C      0.57295  0.41605   0.2989     C
C      0.57443  0.32443  0.64886     C
H       0.5751   0.4968   0.2188     H
C      0.57661  0.83401  0.06362     C
C      0.58278  0.31788  0.39796     C
O      0.58367  0.91607  0.60658     O
C      0.58557  0.73987  0.06814     C
H       0.6157   0.5229   0.7668     H
C       0.6179   0.4625    0.248     C
C      0.61935  0.36195   0.0397     C
C      0.62479  0.37479  0.74958     C
C       0.6272   0.2664   0.0446     C
C      0.63306  0.36546  0.34192     C
C      0.63792  0.48162  0.79844     C
O      0.64352  0.28582  0.44888     O
H       0.6511   0.2439   0.7668     H
H       0.6581   0.7419   0.1066     H
C      0.66052  0.31682  0.79844     C
O      0.67875  0.02415  0.11296     O
C      0.68219  0.93889  0.12118     C
C      0.68305  0.52745   0.8929     C
C      0.68482  0.91992  0.60204     C
H       0.6883   0.5989   0.9248     H
O      0.69464  0.83694  0.55112     O
H       0.6952   0.1144   0.6956     H
H       0.6995    0.268   0.0832     H
C      0.70985  0.36545   0.8929     C
C      0.72073  0.47073  0.94146     C
C      0.72405  0.45985   0.2389     C
C      0.72406  0.46736  0.09072     C
H       0.7365   0.3259   0.9248     H
C       0.7386   0.3615   0.3322     C
C      0.77115  0.52115   0.0423     C
C      0.77233  0.51443  0.18566     C
C      0.77405  0.11715   0.7011     C
O     0.77428333  0.94095   0.1779     O
H       0.7768   0.7093   0.3504     H
H       0.7807   0.3266    0.361     H
C      0.78388  0.40768  0.28076     C
C      0.79114  0.02354  0.65808     C
O       0.8254   0.1561  0.33074     O
H       0.8462   0.2793   0.4902     H
C       0.8533   0.7115   0.3826     C
Ni     0.85384  0.10384  0.20768    Ni
H        0.856   0.7891   0.5098     H
H       0.8563    0.278   0.7812     H
H       0.8563   0.4036   0.2742     H
C      0.86662  0.61662  0.23324     C
C      0.86666  0.62336  0.09072     C
C       0.8699   0.2145    0.752     C
H       0.8837   0.8152   0.0832     H
C      0.90022  0.75902  0.47744     C
O     0.90361667  0.23695   0.1779     O
C       0.9064   0.0293   0.6678     C
C      0.91333  0.67123  0.18566     C
C       0.9174   0.7782   0.0446     C
C      0.91744  0.66744  0.33488     C
H       0.9179   0.8706   0.2742     H
H       0.9197   0.9656    0.639     H
C      0.92035  0.67775   0.0397     C
C      0.92278  0.28158  0.52256     C
H       0.9264   0.3589   0.6496     H
O      0.93421  0.08881  0.11296     O
C       0.9372   0.1872   0.3744     C
C      0.93899  0.18229  0.12118     C
H       0.9485   0.3647   0.1066     H
H       0.9618   0.8919   0.9964     H
C      0.96374  0.82364  0.99288     C
C       0.9707   0.3289   0.6174     C
C      0.97233  0.62633  0.98346     C
H       0.9766   0.5589   0.9806     H
C      0.98257  0.32827  0.06814     C
C      0.98515  0.22095   0.7611     C
C      0.98701  0.22961  0.06362     C
C      0.98789  0.23789  0.47578     C
O      0.99466  0.82536  0.66926     O
C      0.99688  0.87308  0.28076     C
