data_I
_chemical_name_common  '/home/zhangsd/repos/MofS-CGCNN/ML/data/WS24/clean_cifs/BAFBIW'
_cell_length_a 12.36100
_cell_length_b 12.55800
_cell_length_c 17.80600
_cell_angle_alpha 101.65500
_cell_angle_beta  93.64000
_cell_angle_gamma 93.87900
_space_group_name_H-M_alt      'P 1'


loop_
_space_group_symop_operation_xyz
  'x, y, z' 

loop_
_atom_site_label
_atom_site_fract_x
_atom_site_fract_y
_atom_site_fract_z
_atom_site_type_symbol
C       0.0002   0.8406   0.7127     C
C       0.0098   0.1116   0.8112     C
C       0.0131   0.4847    0.155     C
H       0.0175   0.0228   0.9342     H
C        0.019   0.0989   0.2152     C
H       0.0281   0.5081   0.8005     H
H       0.0349   0.5166   0.8898     H
H       0.0407   0.3001   0.3644     H
O       0.0438   0.3483   0.5439     O
C       0.0481   0.3019   0.8055     C
H       0.0485   0.4182   0.1488     H
H       0.0502   0.7995   0.5689     H
H       0.0521   0.4676   0.3472     H
C       0.0526   0.0038   0.8209     C
C       0.0546   0.2611   0.3163     C
C       0.0566   0.6762   0.1748     C
O       0.0761   0.8869    0.674     O
C       0.0796   0.1971   0.7997     C
C        0.083   0.0143   0.9071     C
H       0.0904   0.8522   0.9104     H
O       0.0915   0.5736   0.1647     O
C       0.0954   0.8643   0.1736     C
H       0.0962   0.3572   0.7963     H
C       0.0991   0.1445   0.1768     C
H       0.1013   0.1198   0.4759     H
H        0.104   0.6656   0.0204     H
C       0.1113   0.8229   0.6059     C
H       0.1125   0.9991    0.434     H
H       0.1159   0.1039   0.1299     H
H       0.1209   0.9986   0.7957     H
H       0.1269   0.2568   0.0581     H
O       0.1282   0.5332  0.49221     O
C       0.1293   0.3046   0.2743     C
C       0.1305   0.4824   0.3553     C
H       0.1312   0.0799   0.9255     H
C       0.1315   0.7605   0.1663     C
C       0.1381   0.9175   0.9272     C
H       0.1434   0.7603    0.618     H
H       0.1447   0.9208    0.168     H
O       0.1482   0.5223    0.694     O
H       0.1482   0.5563   0.3488     H
C       0.1505   0.0636   0.4655     C
H       0.1544   0.9297   0.9818     H
C       0.1558   0.2462   0.2032     C
H       0.1642   0.8659    0.585     H
H       0.1664   0.7121   0.7841     H
C       0.1669   0.4746   0.4373     C
O       0.1726   0.2761   0.6592     O
C       0.1773   0.6543   0.0078     C
H       0.1785   0.0473   0.5131     H
O         0.18   0.4083  0.29833     O
H       0.1838   0.6574   0.9549     H
O       0.1845   0.1715   0.7827     O
H       0.1951   0.5842   0.0161     H
H       0.1962   0.9842   0.3375     H
H       0.2043   0.9095   0.9019     H
C        0.205   0.2579   0.0684     C
C       0.2236   0.5967   0.7022     C
H       0.2251   0.1838   0.0529     H
H       0.2264   0.3762   0.1678     H
Eu      0.2313  0.41217 0.583106    Eu
O       0.2338   0.4065   0.4468     O
C       0.2344   0.2976    0.156     C
C       0.2351     0.68   0.7769     C
H       0.2377   0.0942   0.3162     H
H       0.2389   0.2997    0.967     H
N       0.2394   0.1004   0.4257     N
H       0.2396   0.4014   0.0346     H
C       0.2451   0.7367   0.1421     C
H       0.2493   0.6427   0.8187     H
C       0.2494   0.0457   0.3507     C
C         0.25   0.7373   0.0556     C
C       0.2523   0.3036   0.7069     C
H       0.2563   0.6624   0.1484     H
C       0.2603   0.3282   0.0204     C
H        0.262   0.3144   0.8225     H
C       0.2639    0.256   0.7778     C
O       0.2845   0.7812    0.433     O
O       0.2899   0.6003  0.65191     O
O       0.2912   0.2425   0.5237     O
C       0.2976   0.1858   0.4602     C
H       0.3055   0.9767   0.5823     H
O       0.3181   0.7648  0.78165     O
O       0.3197   0.6991   0.2823     O
H       0.3204   0.0871   0.8936     H
H        0.321   0.0209   0.3466     H
O       0.3271   0.3731   0.6985     O
H       0.3307   0.6963    0.964     H
H       0.3336   0.0988    0.624     H
C       0.3343   0.8117   0.1923     C
H        0.335    0.228   0.7804     H
H       0.3378   0.3283   0.0292     H
H       0.3379   0.1231   0.1747     H
C       0.3385   0.6909   0.0171     C
H       0.3388   0.6156   0.0204     H
H       0.3474   0.5804   0.3355     H
C       0.3517   0.7174   0.4202     C
H       0.3534   0.2084   0.4329     H
C       0.3536   0.2832   0.1755     C
H       0.3615   0.9188   0.1261     H
C       0.3628   0.0298   0.6074     C
C       0.3713   0.7891   0.2629     C
C       0.3725   0.6567   0.3411     C
H       0.3826   0.1137   0.9756     H
C       0.3864   0.9009    0.172     C
H       0.3881   0.9404   0.7896     H
C       0.3896   0.1821   0.1802     C
C       0.3906   0.0948   0.9213     C
O       0.3976    0.469   0.1758     O
H       0.3985    0.932   0.9193     H
H       0.4036   0.7252   0.5156     H
H       0.4056   0.7297   0.0408     H
H       0.4068   0.5825   0.7935     H
O         0.41   0.9955   0.6715     O
O       0.4165   0.6912   0.4732     O
H       0.4172   0.0372   0.5722     H
O       0.4187   0.4565   0.5623     O
C       0.4259   0.7455   0.7966     C
C       0.4324   0.3697   0.1833     C
H       0.4355   0.1514   0.9066     H
H       0.4384   0.6111   0.1527     H
C       0.4435    0.988   0.9028     C
H       0.4502   0.6609   0.3357     H
C       0.4551   0.8525   0.3081     C
C       0.4579   0.6422    0.801     C
C       0.4605   0.9493   0.8171     C
H       0.4671   0.4368   0.8051     H
C       0.4732    0.546   0.1561     C
C       0.4733   0.9663   0.2148     C
H        0.478   0.8366   0.3551     H
H       0.4865   0.0038   0.0679     H
C       0.4942   0.0603    0.716     C
H       0.4997    0.516   0.1075     H
C       0.4998   0.1639   0.1927     C
C       0.5002   0.8361   0.8073     C
H       0.5003    0.484   0.8925     H
C       0.5058   0.9397    0.284     C
H       0.5135   0.9962   0.9321     H
H        0.522   0.1634   0.6449     H
C       0.5267   0.0337   0.7852     C
C       0.5268    0.454   0.8439     C
H       0.5329   0.5632   0.1949     H
C       0.5395   0.0507   0.1829     C
C       0.5421   0.3578    0.199     C
C       0.5449   0.1475   0.6919     C
H       0.5498   0.3391   0.6643     H
C       0.5565    0.012   0.0972     C
H       0.5616   0.3889   0.8473     H
H       0.5645   0.8486   0.0934     H
C       0.5676   0.6303   0.8167     C
C       0.5741   0.2545   0.2034     C
O       0.5813   0.5435   0.4377     O
H       0.5828   0.9628   0.4278     H
O       0.5835   0.3088   0.5268     O
O         0.59   0.0045   0.3285     O
H       0.5932   0.4175   0.2065     H
H       0.5944   0.2703   0.9592     H
H       0.5964   0.2748   0.4844     H
H       0.6015    0.068   0.0807     H
O       0.6024    0.531   0.8242     O
C       0.6094   0.9052   0.0787     C
C       0.6104   0.8179   0.8198     C
H       0.6119   0.0596   0.2104     H
C       0.6136   0.0991    0.828     C
H       0.6174   0.8863   0.0244     H
C       0.6275   0.3433   0.6589     C
C       0.6287   0.2109   0.7371     C
C       0.6372   0.9702   0.3926     C
H       0.6385   0.0812   0.8739     H
C       0.6464   0.7168   0.8245     C
H       0.6466   0.7916   0.5671     H
C       0.6483   0.2826   0.5798     C
H       0.6526   0.4196   0.6645     H
H       0.6612   0.3844   0.9796     H
C       0.6615   0.3091   0.9829     C
H       0.6621   0.8769   0.8253     H
H       0.6622   0.6717   0.9708     H
H        0.665    0.772   0.2196     H
C       0.6657   0.1883   0.8077     C
H       0.6664   0.9012    0.376     H
H       0.6693   0.3037    0.036     H
O       0.6729   0.6269   0.3015     O
H        0.679   0.9791   0.6534     H
H       0.6796   0.9129   0.1064     H
O       0.6803   0.3009   0.7177     O
O       0.6819   0.2352  0.21835     O
H       0.6945   0.0233   0.4177     H
C       0.7024   0.8142   0.5398     C
O       0.7088   0.7575   0.4763     O
O       0.7101   0.3997  0.34809     O
O       0.7155   0.2188    0.567     O
C       0.7361    0.744   0.2222     C
H        0.738   0.6856   0.1775     H
C       0.7397   0.6718   0.9796     C
H       0.7437   0.3376   0.8516     H
C       0.7477   0.6964   0.2931     C
C         0.75   0.2627   0.9444     C
C       0.7506   0.9543   0.6493     C
H       0.7507   0.3573   0.1813     H
C       0.7549   0.2633   0.8579     C
H       0.7604   0.5986   0.9654     H
N       0.7606   0.8996   0.5743     N
H       0.7611   0.7003    0.033     H
H       0.7623   0.9058   0.6838     H
C       0.7649     0.32   0.2231     C
C       0.7656   0.7024    0.844     C
O       0.7662   0.5935   0.5532     O
Eu      0.7687  0.58783 0.416894    Eu
H       0.7736   0.6238   0.8322     H
H       0.7749   0.8162   0.9471     H
C       0.7764   0.4033   0.2978     C
C        0.795   0.7421   0.9316     C
H       0.7957   0.0905   0.0981     H
H       0.8038   0.0158   0.6625     H
H       0.8049   0.4158   0.9839     H
O       0.8155   0.8285   0.2173     O
H       0.8162   0.3426   0.0451     H
O         0.82   0.5917  0.70167     O
H       0.8215   0.9527   0.4869     H
C       0.8227   0.3457   0.9922     C
O       0.8274   0.7239   0.3408     O
C       0.8331   0.5254   0.5627     C
H       0.8336   0.2879   0.2159     H
H       0.8358   0.1341    0.415     H
C       0.8442   0.7538   0.7968     C
H       0.8456   0.0703   0.0182     H
C       0.8495   0.9364   0.5345     C
H       0.8518   0.4437   0.6512     H
O       0.8518   0.4777    0.306     O
H       0.8553   0.0792    0.832     H
H       0.8566   0.2397    0.382     H
C       0.8619   0.0825   0.0728     C
C       0.8685   0.2395   0.8337     C
H       0.8688   0.9201   0.0745     H
C       0.8695   0.5176   0.6447     C
C       0.8707   0.6954   0.7257     C
O       0.8718   0.4668  0.50779     O
H       0.8731   0.7432   0.9419     H
H       0.8791   0.0014   0.2043     H
H       0.8841   0.8961   0.8701     H
H       0.8875   0.0009    0.566     H
C       0.8887   0.1771   0.3941     C
H        0.896   0.3344   0.9796     H
H       0.8987   0.8802   0.5241     H
C       0.9009   0.8555   0.8232     C
H       0.9038   0.6428   0.2037     H
C       0.9046   0.1357   0.8264     C
O       0.9085   0.4264   0.8353     O
H       0.9096   0.1478   0.0896     H
C        0.917   0.9857   0.0929     C
C       0.9204   0.8029   0.2003     C
O       0.9239   0.1131    0.326     O
C       0.9434   0.3238   0.8252     C
C       0.9454   0.7389   0.6837     C
C       0.9474   0.9962   0.1791     C
H       0.9479   0.5324   0.6528     H
H       0.9498   0.2005   0.4311     H
H       0.9515   0.5818   0.8512     H
C       0.9519   0.6981   0.1945     C
O       0.9562   0.6517   0.4561     O
H       0.9593   0.6999   0.6356     H
H       0.9651   0.4834   0.1102     H
H       0.9719   0.4919   0.1995     H
C        0.981   0.9011   0.7848     C
H       0.9825   0.9772   0.0658     H
C       0.9869   0.5153    0.845     C
C       0.9902   0.8884   0.1888     C
C       0.9998   0.1594   0.2873     C
