data_I
_chemical_name_common  '/home/zhangsd/repos/MofS-CGCNN/ML/data/WS24/clean_cifs/BEDHOJ'
_cell_length_a  8.18220
_cell_length_b 15.33840
_cell_length_c 15.33840
_cell_angle_alpha 90.00000
_cell_angle_beta  90.00000
_cell_angle_gamma 90.00000
_space_group_name_H-M_alt      'P 1'


loop_
_space_group_symop_operation_xyz
  'x, y, z' 

loop_
_atom_site_label
_atom_site_fract_x
_atom_site_fract_y
_atom_site_fract_z
_atom_site_type_symbol
Ni         0.0  0.25986  0.25986    Ni
O        0.005   0.1995   0.7545     O
C       0.0066   0.7497    0.572     C
N       0.0259    0.265   0.9924     N
H       0.0261   0.6299   0.7535     H
C       0.0372   0.1121   0.7621     C
C       0.0401   0.7614   0.9628     C
N       0.0466   0.1242   0.2645     N
O       0.0551   0.3964   0.2624     O
C        0.066   0.4187   0.7489     C
H       0.0689   0.9469   0.7676     H
H       0.0691   0.2174   0.5916     H
C       0.0739   0.2726   0.0738     C
C       0.0841   0.7589   0.0556     C
H       0.0899    0.267    0.948     H
C        0.094   0.7451   0.4002     C
C       0.1054   0.5123   0.7529     C
H       0.1234   0.7529   0.8421     H
H       0.1266   0.7471   0.3421     H
C       0.1446   0.9877   0.2529     C
C        0.156   0.7549   0.9002     C
H       0.1601    0.233    0.448     H
C       0.1659   0.7411   0.5556     C
C       0.1761   0.2274   0.5738     C
H       0.1809   0.2826   0.0916     H
H       0.1811   0.5531   0.2676     H
C        0.184   0.0813   0.2489     C
O       0.1949   0.1036   0.7624     O
N       0.2034   0.3758   0.7645     N
C       0.2099   0.7386   0.4628     C
C       0.2128   0.3879   0.2621     C
H       0.2239   0.8701   0.2535     H
N       0.2241    0.235   0.4924     N
C       0.2434   0.7503    0.072     C
O        0.245   0.3005   0.2545     O
Ni        0.25  0.24014  0.75986    Ni
O        0.255   0.7455   0.6995     O
C       0.2566    0.928   0.2497     C
N       0.2759   0.5076    0.765     N
H       0.2761   0.7465   0.1299     H
C       0.2872   0.7379   0.6121     C
C       0.2901   0.5372   0.2614     C
N       0.2966   0.2355   0.6242     N
O       0.3051   0.2376   0.8964     O
C        0.316   0.7511   0.9187     C
H       0.3189   0.7324   0.4469     H
H       0.3191   0.9084   0.7174     H
C       0.3239   0.4262   0.7726     C
C       0.3341   0.4444   0.2589     C
H       0.3399    0.552    0.767     H
C        0.344   0.0998   0.2451     C
C       0.3554   0.7471   0.0123     C
H       0.3734   0.6579   0.2529     H
H       0.3766   0.1579   0.2471     H
C       0.3946   0.2471   0.4877     C
C        0.406   0.5998   0.2549     C
H       0.4101    0.052    0.733     H
C       0.4159   0.9444   0.2411     C
C       0.4261   0.9262   0.7274     C
H       0.4309   0.4084   0.7826     H
H       0.4311   0.2324   0.0531     H
C        0.434   0.2511   0.5813     C
O       0.4449   0.7376   0.6036     O
N       0.4534   0.7355   0.8758     N
C       0.4599   0.0372   0.2386     C
C       0.4628   0.2379   0.8879     C
H       0.4739   0.2465   0.3701     H
N       0.4741   0.0076    0.735     N
C       0.4934    0.428   0.2503     C
O        0.495   0.2455   0.8005     O
Ni         0.5  0.74014  0.74014    Ni
O        0.505   0.8005   0.2455     O
C       0.5066   0.2503    0.428     C
N       0.5259    0.735   0.0076     N
H       0.5261   0.3701   0.2465     H
C       0.5372   0.8879   0.2379     C
C       0.5401   0.2386   0.0372     C
N       0.5466   0.8758   0.7355     N
O       0.5551   0.6036   0.7376     O
C        0.566   0.5813   0.2511     C
H       0.5689   0.0531   0.2324     H
H       0.5691   0.7826   0.4084     H
C       0.5739   0.7274   0.9262     C
C       0.5841   0.2411   0.9444     C
H       0.5899    0.733    0.052     H
C        0.594   0.2549   0.5998     C
C       0.6054   0.4877   0.2471     C
H       0.6234   0.2471   0.1579     H
H       0.6266   0.2529   0.6579     H
C       0.6446   0.0123   0.7471     C
C        0.656   0.2451   0.0998     C
H       0.6601    0.767    0.552     H
C       0.6659   0.2589   0.4444     C
C       0.6761   0.7726   0.4262     C
H       0.6809   0.7174   0.9084     H
H       0.6811   0.4469   0.7324     H
C        0.684   0.9187   0.7511     C
O       0.6949   0.8964   0.2376     O
N       0.7034   0.6242   0.2355     N
C       0.7099   0.2614   0.5372     C
C       0.7128   0.6121   0.7379     C
H       0.7239   0.1299   0.7465     H
N       0.7241    0.765   0.5076     N
C       0.7434   0.2497    0.928     C
O        0.745   0.6995   0.7455     O
Ni        0.75  0.75986  0.24014    Ni
O        0.755   0.2545   0.3005     O
C       0.7566    0.072   0.7503     C
N       0.7759   0.4924    0.235     N
H       0.7761   0.2535   0.8701     H
C       0.7872   0.2621   0.3879     C
C       0.7901   0.4628   0.7386     C
N       0.7966   0.7645   0.3758     N
O       0.8051   0.7624   0.1036     O
C        0.816   0.2489   0.0813     C
H       0.8189   0.2676   0.5531     H
H       0.8191   0.0916   0.2826     H
C       0.8239   0.5738   0.2274     C
C       0.8341   0.5556   0.7411     C
H       0.8399    0.448    0.233     H
C        0.844   0.9002   0.7549     C
C       0.8554   0.2529   0.9877     C
H       0.8734   0.3421   0.7471     H
H       0.8766   0.8421   0.7529     H
C       0.8946   0.7529   0.5123     C
C        0.906   0.4002   0.7451     C
H       0.9101    0.948    0.267     H
C       0.9159   0.0556   0.7589     C
C       0.9261   0.0738   0.2726     C
H       0.9309   0.5916   0.2174     H
H       0.9311   0.7676   0.9469     H
C        0.934   0.7489   0.4187     C
O       0.9449   0.2624   0.3964     O
N       0.9534   0.2645   0.1242     N
C       0.9599   0.9628   0.7614     C
C       0.9628   0.7621   0.1121     C
H       0.9739   0.7535   0.6299     H
N       0.9741   0.9924    0.265     N
C       0.9934    0.572   0.7497     C
O        0.995   0.7545   0.1995     O
