data_I
_chemical_name_common  '/home/zhangsd/repos/MofS-CGCNN/ML/data/WS24/clean_cifs/BICPOT'
_cell_length_a 21.75900
_cell_length_b 13.82140
_cell_length_c 14.22370
_cell_angle_alpha 90.00000
_cell_angle_beta  98.84900
_cell_angle_gamma 90.00000
_space_group_name_H-M_alt      'P 1'


loop_
_space_group_symop_operation_xyz
  'x, y, z' 

loop_
_atom_site_label
_atom_site_fract_x
_atom_site_fract_y
_atom_site_fract_z
_atom_site_type_symbol
O      0.00718   0.1541   0.4896     O
O      0.00718   0.8459   0.9896     O
P      0.05959  0.12051  0.01465     P
P      0.05959  0.87949  0.51465     P
O      0.06186    0.018   0.9752     O
O      0.06186    0.982   0.4752     O
Al     0.08374  0.10027  0.50792    Al
Al     0.08374  0.89973  0.00792    Al
O      0.09222   0.1252   0.1172     O
O      0.09222   0.8748   0.6172     O
O      0.09318   0.1886   0.9551     O
O      0.09318   0.8114   0.4551     O
O      0.09876   0.1272   0.6326     O
O      0.09876   0.8728   0.1326     O
O      0.11318   0.1871   0.4352     O
O      0.11318   0.8129   0.9352     O
O      0.15195   0.1788   0.7893     O
O      0.15195   0.8212   0.2893     O
P      0.15797  0.11435  0.70493     P
P      0.15797  0.88565  0.20493     P
Al     0.16015  0.10872  0.19667    Al
Al     0.16015  0.89128  0.69667    Al
Al     0.16167  0.20348  0.90892    Al
Al     0.16167  0.79652  0.40892    Al
O      0.16196   0.1915   0.2881     O
O      0.16196   0.8085   0.7881     O
O      0.16478    0.009     0.74     O
O      0.16478    0.991     0.24     O
F      0.16788   0.0447   0.5268     F
F      0.16788   0.9553   0.0268     F
P      0.17164  0.21536  0.39409     P
P      0.17164  0.78464  0.89409     P
O      0.17882  0.32662   0.9236     O
O      0.17882  0.67338   0.4236     O
O      0.18042   0.3253   0.4055     O
O      0.18042   0.6747   0.9055     O
O      0.21551   0.1449   0.6634     O
O      0.21551   0.8551   0.1634     O
O      0.21553   0.4943   0.9364     O
O      0.21553   0.5057   0.4364     O
O      0.22339   0.1355   0.9663     O
O      0.22339   0.8645   0.4663     O
O      0.22535   0.1317   0.1424     O
O      0.22535   0.8683   0.6424     O
O      0.22897   0.1626    0.445     O
O      0.22897   0.8374    0.945     O
P      0.23759  0.38908  0.93781     P
P      0.23759  0.61092  0.43781     P
Al     0.24608   0.1086  0.55953    Al
Al     0.24608   0.8914  0.05953    Al
Al     0.25392   0.3914  0.44047    Al
Al     0.25392   0.6086  0.94047    Al
P      0.26241  0.11092  0.06219     P
P      0.26241  0.88908  0.56219     P
O      0.27103   0.3374    0.555     O
O      0.27103   0.6626    0.055     O
O      0.27465   0.3683   0.8576     O
O      0.27465   0.6317   0.3576     O
O      0.27661   0.3645   0.0337     O
O      0.27661   0.6355   0.5337     O
O      0.28447   0.0057   0.0636     O
O      0.28447   0.9943   0.5636     O
O      0.28449   0.3551   0.3366     O
O      0.28449   0.6449   0.8366     O
O      0.31958   0.1747   0.5945     O
O      0.31958   0.8253   0.0945     O
O      0.32118  0.17338   0.0764     O
O      0.32118  0.82662   0.5764     O
P      0.32836  0.28464  0.60591     P
P      0.32836  0.71536  0.10591     P
F      0.33212   0.4553   0.4732     F
F      0.33212   0.5447   0.9732     F
O      0.33522    0.491     0.26     O
O      0.33522    0.509     0.76     O
O      0.33804   0.3085   0.7119     O
O      0.33804   0.6915   0.2119     O
Al     0.33833  0.29652  0.09108    Al
Al     0.33833  0.70348  0.59108    Al
Al     0.33985  0.39128  0.80333    Al
Al     0.33985  0.60872  0.30333    Al
P      0.34203  0.38565  0.29507     P
P      0.34203  0.61435  0.79507     P
O      0.34805   0.3212   0.2107     O
O      0.34805   0.6788   0.7107     O
O      0.38682   0.3129   0.5648     O
O      0.38682   0.6871   0.0648     O
O      0.40124   0.3728   0.3674     O
O      0.40124   0.6272   0.8674     O
O      0.40682   0.3114   0.0449     O
O      0.40682   0.6886   0.5449     O
O      0.40778   0.3748   0.8828     O
O      0.40778   0.6252   0.3828     O
Al     0.41626  0.39973  0.49208    Al
Al     0.41626  0.60027  0.99208    Al
O      0.43814    0.482   0.0248     O
O      0.43814    0.518   0.5248     O
P      0.44041  0.37949  0.98535     P
P      0.44041  0.62051  0.48535     P
O      0.49282   0.3459   0.5104     O
O      0.49282   0.6541   0.0104     O
O      0.50718   0.3459   0.9896     O
O      0.50718   0.6541   0.4896     O
P      0.55959  0.37949  0.51465     P
P      0.55959  0.62051  0.01465     P
O      0.56186    0.482   0.4752     O
O      0.56186    0.518   0.9752     O
Al     0.58374  0.39973  0.00792    Al
Al     0.58374  0.60027  0.50792    Al
O      0.59222   0.3748   0.6172     O
O      0.59222   0.6252   0.1172     O
O      0.59318   0.3114   0.4551     O
O      0.59318   0.6886   0.9551     O
O      0.59876   0.3728   0.1326     O
O      0.59876   0.6272   0.6326     O
O      0.61318   0.3129   0.9352     O
O      0.61318   0.6871   0.4352     O
O      0.65195   0.3212   0.2893     O
O      0.65195   0.6788   0.7893     O
P      0.65797  0.38565  0.20493     P
P      0.65797  0.61435  0.70493     P
Al     0.66015  0.39128  0.69667    Al
Al     0.66015  0.60872  0.19667    Al
Al     0.66167  0.29652  0.40892    Al
Al     0.66167  0.70348  0.90892    Al
O      0.66196   0.3085   0.7881     O
O      0.66196   0.6915   0.2881     O
O      0.66478    0.491     0.24     O
O      0.66478    0.509     0.74     O
F      0.66788   0.4553   0.0268     F
F      0.66788   0.5447   0.5268     F
P      0.67164  0.28464  0.89409     P
P      0.67164  0.71536  0.39409     P
O      0.67882  0.17338   0.4236     O
O      0.67882  0.82662   0.9236     O
O      0.68042   0.1747   0.9055     O
O      0.68042   0.8253   0.4055     O
O      0.71551   0.3551   0.1634     O
O      0.71551   0.6449   0.6634     O
O      0.71553   0.0057   0.4364     O
O      0.71553   0.9943   0.9364     O
O      0.72339   0.3645   0.4663     O
O      0.72339   0.6355   0.9663     O
O      0.72535   0.3683   0.6424     O
O      0.72535   0.6317   0.1424     O
O      0.72897   0.3374    0.945     O
O      0.72897   0.6626    0.445     O
P      0.73759  0.11092  0.43781     P
P      0.73759  0.88908  0.93781     P
Al     0.74608   0.3914  0.05953    Al
Al     0.74608   0.6086  0.55953    Al
Al     0.75392   0.1086  0.94047    Al
Al     0.75392   0.8914  0.44047    Al
P      0.76241  0.38908  0.56219     P
P      0.76241  0.61092  0.06219     P
O      0.77103   0.1626    0.055     O
O      0.77103   0.8374    0.555     O
O      0.77465   0.1317   0.3576     O
O      0.77465   0.8683   0.8576     O
O      0.77661   0.1355   0.5337     O
O      0.77661   0.8645   0.0337     O
O      0.78447   0.4943   0.5636     O
O      0.78447   0.5057   0.0636     O
O      0.78449   0.1449   0.8366     O
O      0.78449   0.8551   0.3366     O
O      0.81958   0.3253   0.0945     O
O      0.81958   0.6747   0.5945     O
O      0.82118  0.32662   0.5764     O
O      0.82118  0.67338   0.0764     O
P      0.82836  0.21536  0.10591     P
P      0.82836  0.78464  0.60591     P
F      0.83212   0.0447   0.9732     F
F      0.83212   0.9553   0.4732     F
O      0.83522    0.009     0.76     O
O      0.83522    0.991     0.26     O
O      0.83804   0.1915   0.2119     O
O      0.83804   0.8085   0.7119     O
Al     0.83833  0.20348  0.59108    Al
Al     0.83833  0.79652  0.09108    Al
Al     0.83985  0.10872  0.30333    Al
Al     0.83985  0.89128  0.80333    Al
P      0.84203  0.11435  0.79507     P
P      0.84203  0.88565  0.29507     P
O      0.84805   0.1788   0.7107     O
O      0.84805   0.8212   0.2107     O
O      0.88682   0.1871   0.0648     O
O      0.88682   0.8129   0.5648     O
O      0.90124   0.1272   0.8674     O
O      0.90124   0.8728   0.3674     O
O      0.90682   0.1886   0.5449     O
O      0.90682   0.8114   0.0449     O
O      0.90778   0.1252   0.3828     O
O      0.90778   0.8748   0.8828     O
Al     0.91626  0.10027  0.99208    Al
Al     0.91626  0.89973  0.49208    Al
O      0.93814    0.018   0.5248     O
O      0.93814    0.982   0.0248     O
P      0.94041  0.12051  0.48535     P
P      0.94041  0.87949  0.98535     P
O      0.99282   0.1541   0.0104     O
O      0.99282   0.8459   0.5104     O
