data_I
_chemical_name_common  '/home/zhangsd/repos/MofS-CGCNN/ML/data/WS24/clean_cifs/Bio-MOF-11'
_cell_length_a 15.43552
_cell_length_b 15.43552
_cell_length_c 22.77550
_cell_angle_alpha 90.00000
_cell_angle_beta  90.00000
_cell_angle_gamma 90.00000
_space_group_name_H-M_alt      'P 1'


loop_
_space_group_symop_operation_xyz
  'x, y, z' 

loop_
_atom_site_label
_atom_site_fract_x
_atom_site_fract_y
_atom_site_fract_z
_atom_site_type_symbol
O      0.01225  0.40455  0.91834     O
O      0.01225  0.90455  0.08174     O
H       0.0166    0.344   0.3009     H
H       0.0166    0.844   0.6991     H
H       0.0248   0.1589   0.3652     H
H       0.0248   0.6589   0.6348     H
C      0.03428  0.14071  0.32458     C
C      0.03428  0.64071  0.67558     C
H       0.0432   0.0779   0.3232     H
H       0.0432   0.5779   0.6768     H
Co    0.043539 0.482051 0.056046    Co
Co    0.043539 0.982051 0.943966    Co
H       0.0473    0.102   0.8413     H
H       0.0473    0.602   0.1587     H
H       0.0475   0.1463   0.7815     H
H       0.0475   0.6463   0.2185     H
N     0.061913  0.10227  0.80407     N
N     0.061913  0.60227  0.19607     N
C      0.06327  0.36467  0.95027     C
C      0.06327  0.86467  0.04987     C
H       0.0677   0.1203   0.1549     H
H       0.0677   0.6203   0.8451     H
N      0.07347  0.07967  0.07054     N
N      0.07347  0.57967  0.92954     N
O      0.08067  0.38465  0.00234     O
O      0.08067  0.88465  0.99774     O
H       0.0911   0.2748   0.8848     H
H       0.0911   0.7748   0.1152     H
H        0.094   0.2334   0.9491     H
H        0.094   0.7334   0.0509     H
N      0.10197  0.43277  0.13074     N
N      0.10197  0.93277  0.86934     N
C      0.10279  0.11688  0.12065     C
C      0.10279  0.61688  0.87945     C
H       0.1037   0.2975   0.4685     H
H       0.1037   0.7975   0.5315     H
C     0.105311  0.03659  0.78177     C
C     0.105311  0.53659  0.21837     C
C      0.10931  0.28428  0.92558     C
C      0.10931  0.78428  0.07458     C
C      0.11467  0.18687  0.29987     C
C      0.11467  0.68687  0.70027     C
C      0.12278  0.45877  0.18715     C
C      0.12278  0.95877  0.81295     C
N      0.12811  0.03748  0.72267     N
N      0.12811  0.53748  0.27747     N
H       0.1297   0.3177   0.0951     H
H       0.1297   0.8177   0.9049     H
C      0.13328  0.35279  0.12945     C
C      0.13328  0.85279  0.87065     C
O      0.13465  0.16947  0.24774     O
O      0.13465  0.66947  0.75234     O
C      0.14347  0.08497  0.03495     C
C      0.14347  0.58497  0.96515     C
N      0.14727  0.05497  0.97914     N
N      0.14727  0.55497  0.02094     N
N      0.14787 0.311913  0.44607     N
N      0.14787 0.811913  0.55407     N
H        0.148   0.2973   0.4087     H
H        0.148   0.7973   0.5913     H
O      0.15455  0.23785  0.33174     O
O      0.15455  0.73785  0.66834     O
C      0.16517  0.39347  0.21515     C
C      0.16517  0.89347  0.78495     C
N      0.17047  0.32347  0.17954     N
N      0.17047  0.82347  0.82054     N
H       0.1721   0.2932   0.9268     H
H       0.1721   0.7932   0.0732     H
C     0.173113  0.47039  0.29807     C
C     0.173113  0.97039  0.70207     C
N      0.18277  0.14817  0.11934     N
N      0.18277  0.64817  0.88074     N
H        0.192   0.4753   0.3376     H
H        0.192   0.9753   0.6624     H
N      0.19517  0.39727  0.27094     N
N      0.19517  0.89727  0.72914     N
C      0.20877  0.12738  0.06295     C
C      0.20877  0.62738  0.93715     C
N      0.21268  0.37811  0.52747     N
N      0.21268  0.87811  0.47267     N
C      0.21359 0.355311  0.46837     C
C      0.21359 0.855311  0.53177     C
C      0.22039 0.076913  0.95207     C
C      0.22039 0.576913  0.04807     C
H       0.2253    0.058   0.9124     H
H       0.2253    0.558   0.0876     H
Co    0.232051 0.206479 0.193966    Co
Co    0.232051 0.706479 0.806046    Co
Co    0.267951 0.293539 0.306046    Co
Co    0.267951 0.793539 0.693966    Co
H       0.2747    0.442   0.5876     H
H       0.2747    0.942   0.4124     H
C      0.27979 0.423113  0.54807     C
C      0.27979 0.923113  0.45207     C
C      0.28659 0.144711  0.03177     C
C      0.28659 0.644711  0.96837     C
N      0.28748  0.12191  0.97267     N
N      0.28748  0.62191  0.02747     N
C      0.29137  0.37278  0.43715     C
C      0.29137  0.87278  0.56295     C
N      0.30497  0.10287  0.22914     N
N      0.30497  0.60287  0.77094     N
H        0.308   0.0247   0.1624     H
H        0.308   0.5247   0.8376     H
N      0.31737  0.35197  0.38074     N
N      0.31737  0.85197  0.61934     N
C     0.326913  0.02979  0.20207     C
C     0.326913  0.52979  0.79807     C
H       0.3279   0.2068   0.5732     H
H       0.3279   0.7068   0.4268     H
N      0.32967  0.17667  0.32054     N
N      0.32967  0.67667  0.67954     N
C      0.33497  0.10667  0.28495     C
C      0.33497  0.60667  0.71515     C
O      0.34555  0.26225  0.16834     O
O      0.34555  0.76225  0.83174     O
H        0.352   0.2027   0.0913     H
H        0.352   0.7027   0.9087     H
N      0.35227 0.188113  0.05407     N
N      0.35227 0.688113  0.94607     N
N      0.35287  0.44517  0.52094     N
N      0.35287  0.94517  0.47914     N
C      0.35667  0.41517  0.46515     C
C      0.35667  0.91517  0.53495     C
O      0.36545  0.33067  0.25234     O
O      0.36545  0.83067  0.74774     O
C      0.36688  0.14739  0.37065     C
C      0.36688  0.64739  0.62945     C
H       0.3703   0.1823   0.4049     H
H       0.3703   0.6823   0.5951     H
N      0.37191  0.46268  0.77747     N
N      0.37191  0.96268  0.22267     N
C      0.37738  0.04137  0.31295     C
C      0.37738  0.54137  0.68715     C
C      0.38547  0.31327  0.20027     C
C      0.38547  0.81327  0.79987     C
C      0.39071  0.21588  0.57458     C
C      0.39071  0.71588  0.42558     C
C     0.394711  0.46359  0.71837     C
C     0.394711  0.96359  0.28177     C
H       0.3963   0.2025   0.0315     H
H       0.3963   0.7025   0.9685     H
C      0.39739  0.38328  0.37945     C
C      0.39739  0.88328  0.62065     C
N      0.39817  0.06737  0.36934     N
N      0.39817  0.56737  0.63074     N
H        0.406   0.2666   0.5509     H
H        0.406   0.7666   0.4491     H
H       0.4089   0.2252   0.6152     H
H       0.4089   0.7252   0.3848     H
O      0.41947  0.11545  0.49774     O
O      0.41947  0.61545  0.50234     O
N      0.42667  0.42047  0.42954     N
N      0.42667  0.92047  0.57054     N
H       0.4323   0.3797   0.3451     H
H       0.4323   0.8797   0.6549     H
C      0.43687  0.13547  0.54987     C
C      0.43687  0.63547  0.45027     C
N     0.438113  0.39787  0.69607     N
N     0.438113  0.89787  0.30407     N
H       0.4525   0.3537   0.7185     H
H       0.4525   0.8537   0.2815     H
H       0.4527    0.398   0.6587     H
H       0.4527    0.898   0.3413     H
Co    0.456479 0.017951 0.443966    Co
Co    0.456479 0.517951 0.556046    Co
H       0.4568   0.4221   0.1768     H
H       0.4568   0.9221   0.8232     H
C      0.46588  0.35931  0.17558     C
C      0.46588  0.85931  0.82458     C
H       0.4752   0.3411   0.1348     H
H       0.4752   0.8411   0.8652     H
H       0.4834    0.156   0.1991     H
H       0.4834    0.656   0.8009     H
O      0.48785  0.09555  0.58174     O
O      0.48785  0.59555  0.41834     O
O      0.51225  0.40455  0.58174     O
O      0.51225  0.90455  0.41834     O
H       0.5166    0.344   0.1991     H
H       0.5166    0.844   0.8009     H
H       0.5248   0.1589   0.1348     H
H       0.5248   0.6589   0.8652     H
C      0.53428  0.14071  0.17558     C
C      0.53428  0.64071  0.82458     C
H       0.5432   0.0779   0.1768     H
H       0.5432   0.5779   0.8232     H
Co    0.543539 0.482051 0.443966    Co
Co    0.543539 0.982051 0.556046    Co
H       0.5473    0.102   0.6587     H
H       0.5473    0.602   0.3413     H
H       0.5475   0.1463   0.7185     H
H       0.5475   0.6463   0.2815     H
N     0.561913  0.10227  0.69607     N
N     0.561913  0.60227  0.30407     N
C      0.56327  0.36467  0.54987     C
C      0.56327  0.86467  0.45027     C
H       0.5677   0.1203   0.3451     H
H       0.5677   0.6203   0.6549     H
N      0.57347  0.07967  0.42954     N
N      0.57347  0.57967  0.57054     N
O      0.58067  0.38465  0.49774     O
O      0.58067  0.88465  0.50234     O
H       0.5911   0.2748   0.6152     H
H       0.5911   0.7748   0.3848     H
H        0.594   0.2334   0.5509     H
H        0.594   0.7334   0.4491     H
N      0.60197  0.43277  0.36934     N
N      0.60197  0.93277  0.63074     N
C      0.60279  0.11688  0.37945     C
C      0.60279  0.61688  0.62065     C
H       0.6037   0.2975   0.0315     H
H       0.6037   0.7975   0.9685     H
C     0.605311  0.03659  0.71837     C
C     0.605311  0.53659  0.28177     C
C      0.60931  0.28428  0.57458     C
C      0.60931  0.78428  0.42558     C
C      0.61467  0.18687  0.20027     C
C      0.61467  0.68687  0.79987     C
C      0.62278  0.45877  0.31295     C
C      0.62278  0.95877  0.68715     C
N      0.62811  0.03748  0.77747     N
N      0.62811  0.53748  0.22267     N
H       0.6297   0.3177   0.4049     H
H       0.6297   0.8177   0.5951     H
C      0.63328  0.35279  0.37065     C
C      0.63328  0.85279  0.62945     C
O      0.63465  0.16947  0.25234     O
O      0.63465  0.66947  0.74774     O
C      0.64347  0.08497  0.46515     C
C      0.64347  0.58497  0.53495     C
N      0.64727  0.05497  0.52094     N
N      0.64727  0.55497  0.47914     N
N      0.64787 0.311913  0.05407     N
N      0.64787 0.811913  0.94607     N
H        0.648   0.2973   0.0913     H
H        0.648   0.7973   0.9087     H
O      0.65455  0.23785  0.16834     O
O      0.65455  0.73785  0.83174     O
C      0.66517  0.39347  0.28495     C
C      0.66517  0.89347  0.71515     C
N      0.67047  0.32347  0.32054     N
N      0.67047  0.82347  0.67954     N
H       0.6721   0.2932   0.5732     H
H       0.6721   0.7932   0.4268     H
C     0.673113  0.47039  0.20207     C
C     0.673113  0.97039  0.79807     C
N      0.68277  0.14817  0.38074     N
N      0.68277  0.64817  0.61934     N
H        0.692   0.4753   0.1624     H
H        0.692   0.9753   0.8376     H
N      0.69517  0.39727  0.22914     N
N      0.69517  0.89727  0.77094     N
C      0.70877  0.12738  0.43715     C
C      0.70877  0.62738  0.56295     C
N      0.71268  0.37811  0.97267     N
N      0.71268  0.87811  0.02747     N
C      0.71359 0.355311  0.03177     C
C      0.71359 0.855311  0.96837     C
C      0.72039 0.076913  0.54807     C
C      0.72039 0.576913  0.45207     C
H       0.7253    0.058   0.5876     H
H       0.7253    0.558   0.4124     H
Co    0.732051 0.206479 0.306046    Co
Co    0.732051 0.706479 0.693966    Co
Co    0.767951 0.293539 0.193966    Co
Co    0.767951 0.793539 0.806046    Co
H       0.7747    0.442   0.9124     H
H       0.7747    0.942   0.0876     H
C      0.77979 0.423113  0.95207     C
C      0.77979 0.923113  0.04807     C
C      0.78659 0.144711  0.46837     C
C      0.78659 0.644711  0.53177     C
N      0.78748  0.12191  0.52747     N
N      0.78748  0.62191  0.47267     N
C      0.79137  0.37278  0.06295     C
C      0.79137  0.87278  0.93715     C
N      0.80497  0.10287  0.27094     N
N      0.80497  0.60287  0.72914     N
H        0.808   0.0247   0.3376     H
H        0.808   0.5247   0.6624     H
N      0.81737  0.35197  0.11934     N
N      0.81737  0.85197  0.88074     N
C     0.826913  0.02979  0.29807     C
C     0.826913  0.52979  0.70207     C
H       0.8279   0.2068   0.9268     H
H       0.8279   0.7068   0.0732     H
N      0.82967  0.17667  0.17954     N
N      0.82967  0.67667  0.82054     N
C      0.83497  0.10667  0.21515     C
C      0.83497  0.60667  0.78495     C
O      0.84555  0.26225  0.33174     O
O      0.84555  0.76225  0.66834     O
H        0.852   0.2027   0.4087     H
H        0.852   0.7027   0.5913     H
N      0.85227 0.188113  0.44607     N
N      0.85227 0.688113  0.55407     N
N      0.85287  0.44517  0.97914     N
N      0.85287  0.94517  0.02094     N
C      0.85667  0.41517  0.03495     C
C      0.85667  0.91517  0.96515     C
O      0.86545  0.33067  0.24774     O
O      0.86545  0.83067  0.75234     O
C      0.86688  0.14739  0.12945     C
C      0.86688  0.64739  0.87065     C
H       0.8703   0.1823   0.0951     H
H       0.8703   0.6823   0.9049     H
N      0.87191  0.46268  0.72267     N
N      0.87191  0.96268  0.27747     N
C      0.87738  0.04137  0.18715     C
C      0.87738  0.54137  0.81295     C
C      0.88547  0.31327  0.29987     C
C      0.88547  0.81327  0.70027     C
C      0.89071  0.21588  0.92558     C
C      0.89071  0.71588  0.07458     C
C     0.894711  0.46359  0.78177     C
C     0.894711  0.96359  0.21837     C
H       0.8963   0.2025   0.4685     H
H       0.8963   0.7025   0.5315     H
C      0.89739  0.38328  0.12065     C
C      0.89739  0.88328  0.87945     C
N      0.89817  0.06737  0.13074     N
N      0.89817  0.56737  0.86934     N
H        0.906   0.2666   0.9491     H
H        0.906   0.7666   0.0509     H
H       0.9089   0.2252   0.8848     H
H       0.9089   0.7252   0.1152     H
O      0.91947  0.11545  0.00234     O
O      0.91947  0.61545  0.99774     O
N      0.92667  0.42047  0.07054     N
N      0.92667  0.92047  0.92954     N
H       0.9323   0.3797   0.1549     H
H       0.9323   0.8797   0.8451     H
C      0.93687  0.13547  0.95027     C
C      0.93687  0.63547  0.04987     C
N     0.938113  0.39787  0.80407     N
N     0.938113  0.89787  0.19607     N
H       0.9525   0.3537   0.7815     H
H       0.9525   0.8537   0.2185     H
H       0.9527    0.398   0.8413     H
H       0.9527    0.898   0.1587     H
Co    0.956479 0.017951 0.056046    Co
Co    0.956479 0.517951 0.943966    Co
H       0.9568   0.4221   0.3232     H
H       0.9568   0.9221   0.6768     H
C      0.96588  0.35931  0.32458     C
C      0.96588  0.85931  0.67558     C
H       0.9752   0.3411   0.3652     H
H       0.9752   0.8411   0.6348     H
H       0.9834    0.156   0.3009     H
H       0.9834    0.656   0.6991     H
O      0.98785  0.09555  0.91834     O
O      0.98785  0.59555  0.08174     O
