data_I
_chemical_name_common  '/home/zhangsd/repos/MofS-CGCNN/ML/data/WS24/clean_cifs/BIQHIU'
_cell_length_a 12.25032
_cell_length_b 12.25032
_cell_length_c 23.57000
_cell_angle_alpha 94.62988
_cell_angle_beta  94.62988
_cell_angle_gamma 113.55502
_space_group_name_H-M_alt      'P 1'


loop_
_space_group_symop_operation_xyz
  'x, y, z' 

loop_
_atom_site_label
_atom_site_fract_x
_atom_site_fract_y
_atom_site_fract_z
_atom_site_type_symbol
C       0.0024   0.7334   0.2039     C
N       0.0064   0.1246   0.4259     N
Zn     0.01086  0.11302  0.12675    Zn
N       0.0171   0.3771   0.5701     N
H       0.0175   0.5361   0.1234     H
N       0.0263   0.5613    0.673     N
N       0.0285   0.0853   0.6747     N
C       0.0325   0.8895   0.2991     C
N       0.0557   0.7975   0.8261     N
Zn     0.07807  0.56799  0.38238    Zn
C       0.0788   0.2056   0.4562     C
N       0.0815   0.3371   0.8242     N
N       0.0853   0.0285   0.1747     N
H       0.0858   0.4716    0.202     H
C       0.0886    0.362   0.5471     C
C       0.0907   0.5299    0.124     C
C       0.1041   0.6397   0.7024     C
C       0.1105   0.9675   0.2009     C
Zn     0.11302  0.01086  0.62675    Zn
C       0.1221   0.7857    0.795     C
N       0.1246   0.0064   0.9259     N
C       0.1284   0.4888   0.1706     C
Fe     0.13791  0.86209     0.25    Fe
N       0.1409   0.2029   0.0836     N
N        0.151   0.5616   0.0795     N
C       0.1621   0.7547   0.3023     C
N       0.1638   0.6926   0.3338     N
N       0.1811   0.5147   0.4289     N
C       0.1936   0.4472   0.4562     C
N       0.2025   0.9443   0.6739     N
N       0.2029   0.1409   0.5836     N
C       0.2056   0.0788   0.9562     C
Fe     0.20615  0.33113  0.50529    Fe
C       0.2077   0.2155   0.5552     C
H       0.2094   0.4806   0.2791     H
C       0.2143   0.8779    0.705     C
C       0.2155   0.2077   0.0552     C
Fe     0.23337  0.76663     0.75    Fe
C       0.2346   0.4744   0.1677     C
C       0.2453   0.8379   0.1977     C
C       0.2484   0.5472   0.0784     C
C       0.2492   0.6566   0.7993     C
N       0.2568   0.5932   0.8309     N
C        0.259   0.4422   0.2704     C
C       0.2666   0.9976   0.2961     C
N       0.2713   0.3767    0.932     N
C       0.2845   0.4257   0.2136     C
H       0.2871   0.4549   0.7427     H
H       0.2895   0.5675   0.0467     H
Zn     0.29044  0.47052   0.8675    Zn
H       0.2933   0.4097   0.3498     H
C        0.297   0.3178   0.9597     C
C       0.2972   0.5032   0.1216     C
N       0.3074   0.8362   0.1662     N
C       0.3104   0.3992   0.3125     C
C       0.3178    0.297   0.4597     C
C       0.3259   0.4051   0.7503     C
Fe     0.33113  0.20615  0.00529    Fe
C       0.3317   0.4613   0.5558     C
N       0.3371   0.0815   0.3242     N
N        0.343   0.3836   0.8035     N
C       0.3434   0.7508   0.7007     C
H       0.3481   0.3695   0.6681     H
C       0.3548   0.3646   0.2052     C
C       0.3603   0.8959   0.7976     C
C        0.362   0.0886   0.0471     C
C       0.3646   0.3548   0.7052     C
H       0.3685   0.4939   0.1193     H
H       0.3695   0.3481   0.1681     H
N       0.3767   0.2713    0.432     N
N       0.3771   0.0171   0.0701     N
N       0.3836    0.343   0.3035     N
C       0.3992   0.3104   0.8125     C
N       0.4032   0.5348   0.5891     N
C       0.4051   0.3259   0.2503     C
N       0.4068   0.7432   0.6691     N
H       0.4097   0.2933   0.8498     H
C       0.4257   0.2845   0.7136     C
Zn     0.43201  0.92193  0.11762    Zn
H       0.4325   0.7105   0.4533     H
N       0.4384    0.849   0.4205     N
N       0.4387   0.9737    0.827     N
C       0.4422    0.259   0.7704     C
C       0.4472   0.1936   0.9562     C
C       0.4528   0.7516   0.4216     C
H       0.4549   0.2871   0.2427     H
C       0.4613   0.3317   0.0558     C
H       0.4639   0.9825   0.3766     H
N       0.4652   0.5968   0.9109     N
C       0.4701   0.9093    0.376     C
Zn     0.47052  0.29044   0.3675    Zn
H       0.4716   0.0858    0.702     H
C       0.4744   0.2346   0.6677     C
H       0.4806   0.2094   0.7791     H
N       0.4853   0.8189   0.0711     N
C       0.4888   0.1284   0.6706     C
H       0.4939   0.3685   0.6193     H
C       0.4968   0.7028   0.3784     C
C       0.5032   0.2972   0.6216     C
H       0.5061   0.6315   0.3807     H
C       0.5112   0.8716   0.3294     C
N       0.5147   0.1811   0.9289     N
H       0.5194   0.7906   0.2209     H
C       0.5256   0.7654   0.3323     C
H       0.5284   0.9142    0.298     H
Zn     0.52948  0.70956   0.6325    Zn
C       0.5299   0.0907    0.624     C
N       0.5348   0.4032   0.0891     N
H       0.5361   0.0175   0.6234     H
C       0.5387   0.6683   0.9442     C
H       0.5451   0.7129   0.7573     H
C       0.5472   0.2484   0.5784     C
C       0.5528   0.8064   0.0438     C
C       0.5578    0.741   0.2296     C
N       0.5613   0.0263    0.173     N
N       0.5616    0.151   0.5795     N
H       0.5675   0.2895   0.5467     H
Zn     0.56799  0.07807  0.88238    Zn
C       0.5743   0.7155   0.2864     C
H       0.5903   0.7067   0.1502     H
N       0.5932   0.2568   0.3309     N
C       0.5949   0.6741   0.7497     C
N       0.5968   0.4652   0.4109     N
C       0.6008   0.6896   0.1875     C
N       0.6164    0.657   0.6965     N
N       0.6229   0.9829   0.9299     N
N       0.6233   0.7287    0.568     N
H       0.6305   0.6519   0.8319     H
H       0.6315   0.5061   0.8807     H
C       0.6354   0.6452   0.2948     C
C        0.638   0.9114   0.9529     C
C       0.6397   0.1041   0.2024     C
C       0.6452   0.6354   0.7948     C
H       0.6519   0.6305   0.3319     H
C       0.6566   0.2492   0.2993     C
N        0.657   0.6164   0.1965     N
N       0.6629   0.9185   0.6758     N
C       0.6683   0.5387   0.4442     C
Fe     0.66887  0.79385  0.99471    Fe
C       0.6741   0.5949   0.2497     C
C       0.6822    0.703   0.5403     C
C       0.6896   0.6008   0.6875     C
N       0.6926   0.1638   0.8338     N
C       0.7028   0.4968   0.8784     C
C        0.703   0.6822   0.0403     C
H       0.7067   0.5903   0.6502     H
Zn     0.70956  0.52948   0.1325    Zn
H       0.7105   0.4325   0.9533     H
H       0.7129   0.5451   0.2573     H
C       0.7155   0.5743   0.7864     C
N       0.7287   0.6233    0.068     N
C       0.7334   0.0024   0.7039     C
C        0.741   0.5578   0.7296     C
N       0.7432   0.4068   0.1691     N
C       0.7508   0.3434   0.2007     C
C       0.7516   0.4528   0.9216     C
C       0.7547   0.1621   0.8023     C
C       0.7654   0.5256   0.8323     C
Fe     0.76663  0.23337     0.25    Fe
C       0.7845   0.7923   0.9448     C
C       0.7857   0.1221    0.295     C
H       0.7906   0.5194   0.7209     H
C       0.7923   0.7845   0.4448     C
Fe     0.79385  0.66887  0.49471    Fe
C       0.7944   0.9212   0.0438     C
N       0.7971   0.8591   0.4164     N
N       0.7975   0.0557   0.3261     N
C       0.8064   0.5528   0.5438     C
N       0.8189   0.4853   0.5711     N
N       0.8362   0.3074   0.6662     N
C       0.8379   0.2453   0.6977     C
N        0.849   0.4384   0.9205     N
N       0.8591   0.7971   0.9164     N
Fe     0.86209  0.13791     0.75    Fe
C       0.8716   0.5112   0.8294     C
N       0.8754   0.9936   0.0741     N
C       0.8779   0.2143    0.205     C
Zn     0.88698  0.98914  0.37325    Zn
C       0.8895   0.0325   0.7991     C
C       0.8959   0.3603   0.2976     C
C       0.9093   0.4701    0.876     C
C       0.9114    0.638   0.4529     C
H       0.9142   0.5284    0.798     H
N       0.9147   0.9715   0.8253     N
N       0.9185   0.6629   0.1758     N
C       0.9212   0.7944   0.5438     C
Zn     0.92193  0.43201  0.61762    Zn
N       0.9443   0.2025   0.1739     N
C       0.9675   0.1105   0.7009     C
N       0.9715   0.9147   0.3253     N
N       0.9737   0.4387    0.327     N
H       0.9825   0.4639   0.8766     H
N       0.9829   0.6229   0.4299     N
Zn     0.98914  0.88698  0.87325    Zn
N       0.9936   0.8754   0.5741     N
C       0.9976   0.2666   0.7961     C
