data_I
_chemical_name_common  '/home/zhangsd/repos/MofS-CGCNN/ML/data/WS24/clean_cifs/BOHWUS'
_cell_length_a 24.80276
_cell_length_b 24.80276
_cell_length_c 24.80276
_cell_angle_alpha 60.00000
_cell_angle_beta  60.00000
_cell_angle_gamma 60.00000
_space_group_name_H-M_alt      'P 1'


loop_
_space_group_symop_operation_xyz
  'x, y, z' 

loop_
_atom_site_label
_atom_site_fract_x
_atom_site_fract_y
_atom_site_fract_z
_atom_site_type_symbol
C          0.0  0.18122      0.5     C
C          0.0  0.18122  0.81878     C
C          0.0      0.5  0.18122     C
C          0.0      0.5  0.81878     C
C          0.0  0.81878  0.18122     C
O       0.0103   0.2731   0.4277     O
O       0.0103   0.2731   0.7889     O
O       0.0103   0.4277   0.2731     O
O       0.0103   0.4277   0.7889     O
O       0.0103   0.7889   0.2731     O
O       0.0103   0.7889   0.4277     O
O       0.0147   0.1271   0.5469     O
O       0.0147   0.1271   0.8113     O
O       0.0147   0.5469   0.1271     O
O       0.0147   0.5469   0.8113     O
O       0.0147   0.8113   0.1271     O
O       0.0147   0.8113   0.5469     O
Zr     0.02339  0.02339  0.57069    Zr
Zr     0.02339  0.02339  0.88253    Zr
Zr     0.02339  0.57069  0.02339    Zr
Zr     0.02339  0.57069  0.88253    Zr
Zr     0.02339  0.88253  0.02339    Zr
Zr     0.02339  0.88253  0.57069    Zr
C        0.024   0.2198   0.4214     C
C        0.024   0.2198   0.8348     C
C        0.024   0.4214   0.2198     C
C        0.024   0.4214   0.8348     C
C        0.024   0.8348   0.2198     C
C        0.024   0.8348   0.4214     C
O      0.02813  0.02813  0.02813     O
O      0.02813  0.02813  0.41561     O
O      0.02813  0.41561  0.02813     O
O       0.0393   0.0393   0.0393     O
O       0.0393   0.0393   0.3821     O
O       0.0393   0.3821   0.0393     O
O      0.05206  0.05206  0.46784     O
O      0.05206  0.05206  0.92804     O
O      0.05206  0.46784  0.05206     O
O      0.05206  0.46784  0.92804     O
O      0.05206  0.92804  0.05206     O
O      0.05206  0.92804  0.46784     O
O      0.05208   0.6562   0.8506     O
O      0.05208   0.6562  0.94112     O
O      0.05208   0.8506   0.6562     O
O      0.05208   0.8506  0.94112     O
O      0.05208  0.94112   0.6562     O
O      0.05208  0.94112   0.8506     O
C      0.05599  0.68115  0.88143     C
C      0.05599  0.88143  0.68115     C
C      0.05599  0.88143  0.88143     C
O      0.05888   0.1494   0.3438     O
O      0.05888   0.1494  0.94792     O
O      0.05888   0.3438   0.1494     O
O      0.05888   0.3438  0.94792     O
O      0.05888  0.94792   0.1494     O
O      0.05888  0.94792   0.3438     O
C      0.06438  0.74694  0.84434     C
C      0.06438  0.84434  0.74694     C
C      0.06438  0.84434  0.84434     C
C      0.06448  0.77938  0.77938     C
C      0.06448  0.77938  0.87676     C
C      0.06448  0.87676  0.77938     C
H       0.0646   0.7572   0.7572     H
H       0.0646   0.7572    0.921     H
H       0.0646    0.921   0.7572     H
O      0.07196  0.53216  0.94794     O
O      0.07196  0.94794  0.53216     O
O      0.07196  0.94794  0.94794     O
H        0.079   0.2428   0.2428     H
H        0.079   0.2428   0.9354     H
H        0.079   0.9354   0.2428     H
O       0.0911   0.1809   0.4127     O
O       0.0911   0.1809   0.8153     O
O       0.0911   0.4127   0.1809     O
O       0.0911   0.4127   0.8153     O
O       0.0911   0.8153   0.1809     O
O       0.0911   0.8153   0.4127     O
O       0.1142    0.022   0.5678     O
O       0.1142    0.022    0.796     O
O       0.1142   0.5678    0.022     O
O       0.1142   0.5678    0.796     O
O       0.1142    0.796    0.022     O
O       0.1142    0.796   0.5678     O
Zr     0.11747  0.42931  0.97661    Zr
Zr     0.11747  0.97661  0.42931    Zr
Zr     0.11747  0.97661  0.97661    Zr
C      0.11857  0.11857  0.31885     C
C      0.11857  0.11857  0.94401     C
C      0.11857  0.31885  0.11857     C
C      0.11857  0.31885  0.94401     C
C      0.11857  0.94401  0.11857     C
C      0.11857  0.94401  0.31885     C
O       0.1224   0.1224   0.4822     O
O       0.1224   0.1224    0.773     O
O       0.1224   0.4822   0.1224     O
O       0.1224   0.4822    0.773     O
O       0.1224    0.773   0.1224     O
O       0.1224    0.773   0.4822     O
C      0.12324  0.22062  0.22062     C
C      0.12324  0.22062  0.93552     C
C      0.12324  0.93552  0.22062     C
O       0.1448   0.1448    0.416     O
O       0.1448   0.1448   0.7944     O
O       0.1448    0.416   0.1448     O
O       0.1448    0.416   0.7944     O
O       0.1448   0.7944   0.1448     O
O       0.1448   0.7944    0.416     O
O       0.1494  0.05888   0.3438     O
O       0.1494  0.05888  0.94792     O
O       0.1494   0.3438  0.05888     O
O       0.1494   0.3438  0.94792     O
O       0.1494  0.94792  0.05888     O
O       0.1494  0.94792   0.3438     O
C      0.15566  0.15566  0.25306     C
C      0.15566  0.15566  0.93562     C
C      0.15566  0.25306  0.15566     C
C      0.15566  0.25306  0.93562     C
C      0.15566  0.93562  0.15566     C
C      0.15566  0.93562  0.25306     C
C       0.1652   0.5786   0.7802     C
C       0.1652   0.5786    0.976     C
C       0.1652   0.7802   0.5786     C
C       0.1652   0.7802    0.976     C
C       0.1652    0.976   0.5786     C
C       0.1652    0.976   0.7802     C
O       0.1809   0.0911   0.4127     O
O       0.1809   0.0911   0.8153     O
O       0.1809   0.4127   0.0911     O
O       0.1809   0.4127   0.8153     O
O       0.1809   0.8153   0.0911     O
O       0.1809   0.8153   0.4127     O
C      0.18122      0.0      0.5     C
C      0.18122      0.0  0.81878     C
C      0.18122      0.5      0.0     C
C      0.18122      0.5  0.81878     C
C      0.18122  0.81878      0.0     C
C      0.18122  0.81878      0.5     C
O       0.1847   0.5873   0.8191     O
O       0.1847   0.5873   0.9089     O
O       0.1847   0.8191   0.5873     O
O       0.1847   0.8191   0.9089     O
O       0.1847   0.9089   0.5873     O
O       0.1847   0.9089   0.8191     O
O       0.1887   0.4531   0.8729     O
O       0.1887   0.4531   0.9853     O
O       0.1887   0.8729   0.4531     O
O       0.1887   0.8729   0.9853     O
O       0.1887   0.9853   0.4531     O
O       0.1887   0.9853   0.8729     O
O       0.2056    0.584   0.8552     O
O       0.2056   0.8552    0.584     O
O       0.2056   0.8552   0.8552     O
O       0.2111   0.5723   0.7269     O
O       0.2111   0.5723   0.9897     O
O       0.2111   0.7269   0.5723     O
O       0.2111   0.7269   0.9897     O
O       0.2111   0.9897   0.5723     O
O       0.2111   0.9897   0.7269     O
C       0.2198    0.024   0.4214     C
C       0.2198    0.024   0.8348     C
C       0.2198   0.4214    0.024     C
C       0.2198   0.4214   0.8348     C
C       0.2198   0.8348    0.024     C
C       0.2198   0.8348   0.4214     C
C      0.22062  0.12324  0.22062     C
C      0.22062  0.12324  0.93552     C
C      0.22062  0.22062  0.12324     C
C      0.22062  0.22062  0.93552     C
C      0.22062  0.93552  0.12324     C
C      0.22062  0.93552  0.22062     C
O        0.227   0.5178   0.8776     O
O        0.227   0.8776   0.5178     O
O        0.227   0.8776   0.8776     O
H       0.2428    0.079   0.2428     H
H       0.2428    0.079   0.9354     H
H       0.2428   0.2428    0.079     H
H       0.2428   0.2428   0.9354     H
H       0.2428   0.9354    0.079     H
H       0.2428   0.9354   0.2428     H
C      0.25306  0.15566  0.15566     C
C      0.25306  0.15566  0.93562     C
C      0.25306  0.93562  0.15566     C
O       0.2731   0.0103   0.4277     O
O       0.2731   0.0103   0.7889     O
O       0.2731   0.4277   0.0103     O
O       0.2731   0.4277   0.7889     O
O       0.2731   0.7889   0.0103     O
O       0.2731   0.7889   0.4277     O
C      0.31885  0.11857  0.11857     C
C      0.31885  0.11857  0.94401     C
C      0.31885  0.94401  0.11857     C
O       0.3438  0.05888   0.1494     O
O       0.3438  0.05888  0.94792     O
O       0.3438   0.1494  0.05888     O
O       0.3438   0.1494  0.94792     O
O       0.3438  0.94792  0.05888     O
O       0.3438  0.94792   0.1494     O
O       0.3821   0.0393   0.0393     O
O       0.4127   0.0911   0.1809     O
O       0.4127   0.0911   0.8153     O
O       0.4127   0.1809   0.0911     O
O       0.4127   0.1809   0.8153     O
O       0.4127   0.8153   0.0911     O
O       0.4127   0.8153   0.1809     O
O      0.41561  0.02813  0.02813     O
O        0.416   0.1448   0.1448     O
O        0.416   0.1448   0.7944     O
O        0.416   0.7944   0.1448     O
C       0.4214    0.024   0.2198     C
C       0.4214    0.024   0.8348     C
C       0.4214   0.2198    0.024     C
C       0.4214   0.2198   0.8348     C
C       0.4214   0.8348    0.024     C
C       0.4214   0.8348   0.2198     C
O       0.4277   0.0103   0.2731     O
O       0.4277   0.0103   0.7889     O
O       0.4277   0.2731   0.0103     O
O       0.4277   0.2731   0.7889     O
O       0.4277   0.7889   0.0103     O
O       0.4277   0.7889   0.2731     O
Zr     0.42931  0.11747  0.97661    Zr
Zr     0.42931  0.97661  0.11747    Zr
Zr     0.42931  0.97661  0.97661    Zr
O       0.4322    0.204   0.8858     O
O       0.4322    0.204    0.978     O
O       0.4322   0.8858    0.204     O
O       0.4322   0.8858    0.978     O
O       0.4322    0.978    0.204     O
O       0.4322    0.978   0.8858     O
O      0.46537  0.06559  0.06559     O
O      0.46537  0.06559  0.90345     O
O      0.46537  0.90345  0.06559     O
O       0.4822   0.1224   0.1224     O
O       0.4822   0.1224    0.773     O
O       0.4822    0.773   0.1224     O
C          0.5      0.0  0.18122     C
C          0.5  0.18122  0.81878     C
C          0.5  0.18122      1.0     C
C          0.5  0.81878      0.0     C
C          0.5  0.81878  0.18122     C
C          0.5      1.0  0.81878     C
O       0.5178    0.227   0.8776     O
O       0.5178   0.8776    0.227     O
O       0.5178   0.8776   0.8776     O
O      0.53216  0.07196  0.94794     O
O      0.53216  0.94794  0.07196     O
O      0.53216  0.94794  0.94794     O
O       0.5469   0.0147   0.1271     O
O       0.5469   0.0147   0.8113     O
O       0.5469   0.1271   0.0147     O
O       0.5469   0.1271   0.8113     O
O       0.5469   0.8113   0.0147     O
O       0.5469   0.8113   0.1271     O
Zr     0.57069  0.02339  0.02339    Zr
Zr     0.57069  0.02339  0.88253    Zr
Zr     0.57069  0.88253  0.02339    Zr
O       0.5723   0.2111   0.7269     O
O       0.5723   0.2111   0.9897     O
O       0.5723   0.7269   0.2111     O
O       0.5723   0.7269   0.9897     O
O       0.5723   0.9897   0.2111     O
O       0.5723   0.9897   0.7269     O
C       0.5786   0.1652   0.7802     C
C       0.5786   0.1652    0.976     C
C       0.5786   0.7802   0.1652     C
C       0.5786   0.7802    0.976     C
C       0.5786    0.976   0.1652     C
C       0.5786    0.976   0.7802     C
O        0.584   0.2056   0.8552     O
O        0.584   0.8552   0.2056     O
O        0.584   0.8552   0.8552     O
O      0.58439  0.97187  0.97187     O
O       0.5873   0.1847   0.8191     O
O       0.5873   0.1847   0.9089     O
O       0.5873   0.8191   0.1847     O
O       0.5873   0.8191   0.9089     O
O       0.5873   0.9089   0.1847     O
O       0.5873   0.9089   0.8191     O
O       0.6179   0.9607   0.9607     O
O       0.6562  0.05208   0.8506     O
O       0.6562  0.05208  0.94112     O
O       0.6562   0.8506  0.05208     O
O       0.6562   0.8506  0.94112     O
O       0.6562  0.94112  0.05208     O
O       0.6562  0.94112   0.8506     O
C      0.68115  0.05599  0.88143     C
C      0.68115  0.88143  0.05599     C
C      0.68115  0.88143  0.88143     C
O       0.7269   0.2111   0.5723     O
O       0.7269   0.2111   0.9897     O
O       0.7269   0.5723   0.2111     O
O       0.7269   0.5723   0.9897     O
O       0.7269   0.9897   0.2111     O
O       0.7269   0.9897   0.5723     O
C      0.74694  0.06438  0.84434     C
C      0.74694  0.84434  0.06438     C
C      0.74694  0.84434  0.84434     C
H       0.7572   0.0646   0.7572     H
H       0.7572   0.0646    0.921     H
H       0.7572   0.7572   0.0646     H
H       0.7572   0.7572    0.921     H
H       0.7572    0.921   0.0646     H
H       0.7572    0.921   0.7572     H
O        0.773   0.1224   0.1224     O
O        0.773   0.1224   0.4822     O
O        0.773   0.4822   0.1224     O
C      0.77938  0.06448  0.77938     C
C      0.77938  0.06448  0.87676     C
C      0.77938  0.77938  0.06448     C
C      0.77938  0.77938  0.87676     C
C      0.77938  0.87676  0.06448     C
C      0.77938  0.87676  0.77938     C
C       0.7802   0.1652   0.5786     C
C       0.7802   0.1652    0.976     C
C       0.7802   0.5786   0.1652     C
C       0.7802   0.5786    0.976     C
C       0.7802    0.976   0.1652     C
C       0.7802    0.976   0.5786     C
O       0.7889   0.0103   0.2731     O
O       0.7889   0.0103   0.4277     O
O       0.7889   0.2731   0.0103     O
O       0.7889   0.2731   0.4277     O
O       0.7889   0.4277   0.0103     O
O       0.7889   0.4277   0.2731     O
O       0.7944   0.1448   0.1448     O
O       0.7944   0.1448    0.416     O
O       0.7944    0.416   0.1448     O
O        0.796    0.022   0.1142     O
O        0.796    0.022   0.5678     O
O        0.796   0.1142    0.022     O
O        0.796   0.1142   0.5678     O
O        0.796   0.5678    0.022     O
O        0.796   0.5678   0.1142     O
O       0.8153   0.0911   0.1809     O
O       0.8153   0.0911   0.4127     O
O       0.8153   0.1809   0.0911     O
O       0.8153   0.1809   0.4127     O
O       0.8153   0.4127   0.0911     O
O       0.8153   0.4127   0.1809     O
C      0.81878      0.0      0.5     C
C      0.81878  0.18122      0.0     C
C      0.81878  0.18122      0.5     C
C      0.81878      0.5  0.18122     C
C      0.81878      0.5      1.0     C
C      0.81878      1.0  0.18122     C
O       0.8191   0.1847   0.5873     O
O       0.8191   0.1847   0.9089     O
O       0.8191   0.5873   0.1847     O
O       0.8191   0.5873   0.9089     O
O       0.8191   0.9089   0.1847     O
O       0.8191   0.9089   0.5873     O
C       0.8348    0.024   0.2198     C
C       0.8348    0.024   0.4214     C
C       0.8348   0.2198    0.024     C
C       0.8348   0.2198   0.4214     C
C       0.8348   0.4214    0.024     C
C       0.8348   0.4214   0.2198     C
C      0.84434  0.06438  0.74694     C
C      0.84434  0.06438  0.84434     C
C      0.84434  0.74694  0.06438     C
C      0.84434  0.74694  0.84434     C
C      0.84434  0.84434  0.06438     C
C      0.84434  0.84434  0.74694     C
O       0.8506  0.05208   0.6562     O
O       0.8506  0.05208  0.94112     O
O       0.8506   0.6562  0.05208     O
O       0.8506   0.6562  0.94112     O
O       0.8506  0.94112  0.05208     O
O       0.8506  0.94112   0.6562     O
O       0.8552   0.2056    0.584     O
O       0.8552   0.2056   0.8552     O
O       0.8552    0.584   0.2056     O
O       0.8552    0.584   0.8552     O
O       0.8552   0.8552   0.2056     O
O       0.8552   0.8552    0.584     O
O       0.8729   0.1887   0.4531     O
O       0.8729   0.1887   0.9853     O
O       0.8729   0.4531   0.1887     O
O       0.8729   0.4531   0.9853     O
O       0.8729   0.9853   0.1887     O
O       0.8729   0.9853   0.4531     O
C      0.87676  0.06448  0.77938     C
C      0.87676  0.77938  0.06448     C
C      0.87676  0.77938  0.77938     C
O       0.8776    0.227   0.5178     O
O       0.8776    0.227   0.8776     O
O       0.8776   0.5178    0.227     O
O       0.8776   0.5178   0.8776     O
O       0.8776   0.8776    0.227     O
O       0.8776   0.8776   0.5178     O
C      0.88143  0.05599  0.68115     C
C      0.88143  0.05599  0.88143     C
C      0.88143  0.68115  0.05599     C
C      0.88143  0.68115  0.88143     C
C      0.88143  0.88143  0.05599     C
C      0.88143  0.88143  0.68115     C
Zr     0.88253  0.02339  0.02339    Zr
Zr     0.88253  0.02339  0.57069    Zr
Zr     0.88253  0.57069  0.02339    Zr
O      0.90345  0.06559  0.06559     O
O      0.90345  0.06559  0.46537     O
O      0.90345  0.46537  0.06559     O
O       0.9089   0.1847   0.5873     O
O       0.9089   0.1847   0.8191     O
O       0.9089   0.5873   0.1847     O
O       0.9089   0.5873   0.8191     O
O       0.9089   0.8191   0.1847     O
O       0.9089   0.8191   0.5873     O
H        0.921   0.0646   0.7572     H
H        0.921   0.7572   0.0646     H
H        0.921   0.7572   0.7572     H
O      0.93441  0.09655  0.53463     O
O      0.93441  0.09655  0.93441     O
O      0.93441  0.53463  0.09655     O
O      0.93441  0.53463  0.93441     O
O      0.93441  0.93441  0.09655     O
O      0.93441  0.93441  0.53463     O
H       0.9354    0.079   0.2428     H
H       0.9354   0.2428    0.079     H
H       0.9354   0.2428   0.2428     H
C      0.93552  0.12324  0.22062     C
C      0.93552  0.22062  0.12324     C
C      0.93552  0.22062  0.22062     C
C      0.93562  0.15566  0.15566     C
C      0.93562  0.15566  0.25306     C
C      0.93562  0.25306  0.15566     C
O      0.94112  0.05208   0.6562     O
O      0.94112  0.05208   0.8506     O
O      0.94112   0.6562  0.05208     O
O      0.94112   0.6562   0.8506     O
O      0.94112   0.8506  0.05208     O
O      0.94112   0.8506   0.6562     O
C      0.94401  0.11857  0.11857     C
C      0.94401  0.11857  0.31885     C
C      0.94401  0.31885  0.11857     C
O      0.94792  0.05888   0.1494     O
O      0.94792  0.05888   0.3438     O
O      0.94792   0.1494  0.05888     O
O      0.94792   0.1494   0.3438     O
O      0.94792   0.3438  0.05888     O
O      0.94792   0.3438   0.1494     O
O       0.9607   0.6179   0.9607     O
O       0.9607   0.9607   0.6179     O
O       0.9607   0.9607   0.9607     O
O      0.97187  0.58439  0.97187     O
O      0.97187  0.97187  0.58439     O
O      0.97187  0.97187  0.97187     O
C        0.976   0.1652   0.5786     C
C        0.976   0.1652   0.7802     C
C        0.976   0.5786   0.1652     C
C        0.976   0.5786   0.7802     C
C        0.976   0.7802   0.1652     C
C        0.976   0.7802   0.5786     C
Zr     0.97661  0.11747  0.42931    Zr
Zr     0.97661  0.11747  0.97661    Zr
Zr     0.97661  0.42931  0.11747    Zr
Zr     0.97661  0.42931  0.97661    Zr
Zr     0.97661  0.97661  0.11747    Zr
Zr     0.97661  0.97661  0.42931    Zr
O        0.978    0.204   0.4322     O
O        0.978    0.204   0.8858     O
O        0.978   0.4322    0.204     O
O        0.978   0.4322   0.8858     O
O        0.978   0.8858    0.204     O
O        0.978   0.8858   0.4322     O
O       0.9897   0.2111   0.5723     O
O       0.9897   0.2111   0.7269     O
O       0.9897   0.5723   0.2111     O
O       0.9897   0.5723   0.7269     O
O       0.9897   0.7269   0.2111     O
O       0.9897   0.7269   0.5723     O
C          1.0  0.81878      0.5     C
