data_I
_chemical_name_common  '/home/zhangsd/repos/MofS-CGCNN/ML/data/WS24/clean_cifs/BOPWIO'
_cell_length_a 21.70250
_cell_length_b 10.03560
_cell_length_c 14.03430
_cell_angle_alpha 90.00000
_cell_angle_beta  91.71100
_cell_angle_gamma 90.00000
_space_group_name_H-M_alt      'P 1'


loop_
_space_group_symop_operation_xyz
  'x, y, z' 

loop_
_atom_site_label
_atom_site_fract_x
_atom_site_fract_y
_atom_site_fract_z
_atom_site_type_symbol
C       0.0065   0.5788   0.8564     C
C       0.0065   0.9212   0.3564     C
H       0.0151   0.7374   0.1251     H
H       0.0151   0.7626   0.6251     H
C      0.01665   0.5493   0.4131     C
C      0.01665   0.9507   0.9131     C
C      0.02059    0.052   0.3772     C
C      0.02059    0.448   0.8772     C
C      0.02451   0.6464   0.1372     C
C      0.02451   0.8536   0.6372     C
H        0.028   0.5827   0.3527     H
H        0.028   0.9173   0.8527     H
H       0.0374   0.6454   0.8637     H
H       0.0374   0.8546   0.3637     H
C       0.0416   0.5031   0.5765     C
C       0.0416   0.9969   0.0765     C
C      0.05239   0.1143   0.6752     C
C      0.05239   0.3857   0.1752     C
C      0.05903   0.5539   0.4893     C
C      0.05903   0.9461   0.9893     C
H       0.0615   0.2051   0.6886     H
H       0.0615   0.2949   0.1886     H
H         0.07   0.5043   0.6293     H
H         0.07   0.9957   0.1293     H
H       0.0793   0.1828   0.4455     H
H       0.0793   0.3172   0.9455     H
C      0.08297   0.0922   0.4183     C
C      0.08297   0.4078   0.9183     C
C      0.08297   0.6123   0.1688     C
C      0.08297   0.8877   0.6688     C
H       0.0937   0.0311   0.4717     H
H       0.0937   0.4689   0.9717     H
C      0.09788   0.0194   0.6873     C
C      0.09788   0.4806   0.1873     C
H       0.1133   0.6797    0.178     H
H       0.1133   0.8203    0.678     H
C      0.12203   0.6159    0.478     C
C      0.12203   0.8841    0.978     C
H       0.1239   0.7026   0.5116     H
H       0.1239   0.7974   0.0116     H
H        0.129   0.6323   0.4096     H
H        0.129   0.8677   0.9096     H
C      0.13514   0.0925   0.3516     C
C      0.13514   0.4075   0.8516     C
O      0.13967   0.0124  0.28532     O
O      0.13967   0.4876  0.78532     O
H       0.1619   0.1145   0.7764     H
H       0.1619   0.3855   0.2764     H
C      0.16295   0.0594   0.7179     C
C      0.16295   0.4406   0.2179     C
C      0.17182   0.5243   0.5183     C
C      0.17182   0.9757   0.0183     C
O      0.17742   0.1781  0.36466     O
O      0.17742   0.3219  0.86466     O
H       0.1878   0.5213   0.2323     H
H       0.1878   0.9787   0.7323     H
O      0.18889   0.0669   0.9654     O
O      0.18889   0.4331   0.4654     O
O      0.18998   0.2371  0.13828     O
O      0.18998   0.2629  0.63828     O
C      0.19179   0.1373   0.6391     C
C      0.19179   0.3627   0.1391     C
O      0.19191    0.545  0.60122     O
O      0.19191    0.955  0.10122     O
O      0.21596   0.0769  0.57143     O
O      0.21596   0.4231  0.07143     O
Ho      0.2409  0.06538   0.2283    Ho
Ho      0.2409  0.43462   0.7283    Ho
Ho     0.25061  0.24758    0.973    Ho
Ho     0.25061  0.25242    0.473    Ho
O      0.28162   0.0382  0.38639     O
O      0.28162   0.4618  0.88639     O
O      0.28741   0.2358   0.7777     O
O      0.28741   0.2642   0.2777     O
O      0.30153   0.1272  0.09041     O
O      0.30153   0.3728  0.59041     O
O      0.30999   0.0963   0.8873     O
O      0.30999   0.4037   0.3873     O
C      0.31709   0.1376   0.8053     C
C      0.31709   0.3624   0.3053     C
C      0.33305   0.0423   0.4319     C
C      0.33305   0.4577   0.9319     C
H       0.3392   0.5156   0.2162     H
H       0.3392   0.9844   0.7162     H
O      0.34329   0.1333   0.4901     O
O      0.34329   0.3667   0.9901     O
O      0.34965    0.017   0.2007     O
O      0.34965    0.483   0.7007     O
C      0.35126   0.0754   0.1235     C
C      0.35126   0.4246   0.6235     C
C      0.36011   0.0651   0.7417     C
C      0.36011   0.4349   0.2417     C
H       0.3651   0.6489   0.9444     H
H       0.3651   0.8511   0.4444     H
H       0.3697   0.1231    0.687     H
H       0.3697   0.3769    0.187     H
C      0.37998   0.5647   0.9164     C
C      0.37998   0.9353   0.4164     C
H       0.3838    0.579   0.8471     H
H       0.3838    0.921   0.3471     H
H       0.4034   0.0319   0.0085     H
H       0.4034   0.4681   0.5085     H
H       0.4043   0.6739   0.2935     H
H       0.4043   0.8261   0.7935     H
C       0.4087   0.0876   0.0664     C
C       0.4087   0.4124   0.5664     C
H       0.4124   0.1813   0.0453     H
H       0.4124   0.3187   0.5453     H
C      0.41967   0.0246   0.7924     C
C      0.41967   0.4754   0.2924     C
H       0.4263   0.5994   0.0932     H
H       0.4263   0.9006   0.5932     H
C      0.43322   0.6067   0.3115     C
C      0.43322   0.8933   0.8115     C
C      0.44232   0.5333   0.9591     C
C      0.44232   0.9667   0.4591     C
H       0.4532   0.6513   0.6171     H
H       0.4532   0.8487   0.1171     H
H       0.4541   0.2118   0.8089     H
H       0.4541   0.2882   0.3089     H
C      0.45634   0.5587   0.0548     C
C      0.45634   0.9413   0.5548     C
C      0.46268   0.1203   0.8204     C
C      0.46268   0.3797   0.3204     C
C      0.46839   0.0481   0.1168     C
C      0.46839   0.4519   0.6168     C
H       0.4785   0.0442   0.3398     H
H       0.4785   0.4558   0.8398     H
C      0.48212   0.5842   0.6352     C
C      0.48212   0.9158   0.1352     C
C        0.487   0.0259   0.4053     C
C        0.487   0.4741   0.9053     C
C      0.48822   0.6423   0.3566     C
C      0.48822   0.8577   0.8566     C
H       0.4963   0.7337   0.3695     H
H       0.4963   0.7663   0.8695     H
H       0.5037   0.2337   0.1305     H
H       0.5037   0.2663   0.6305     H
C      0.51178   0.1423   0.1434     C
C      0.51178   0.3577   0.6434     C
C        0.513   0.5259   0.0947     C
C        0.513   0.9741   0.5947     C
C      0.51788   0.0842   0.8648     C
C      0.51788   0.4158   0.3648     C
H       0.5215   0.5442   0.1602     H
H       0.5215   0.9558   0.6602     H
C      0.53161   0.5481   0.3832     C
C      0.53161   0.9519   0.8832     C
C      0.53732   0.6203   0.6796     C
C      0.53732   0.8797   0.1796     C
C      0.54366   0.0587   0.4452     C
C      0.54366   0.4413   0.9452     C
H       0.5459   0.7118   0.6911     H
H       0.5459   0.7882   0.1911     H
H       0.5468   0.1513   0.8829     H
H       0.5468   0.3487   0.3829     H
C      0.55768   0.0333   0.5409     C
C      0.55768   0.4667   0.0409     C
C      0.56678   0.1067   0.1885     C
C      0.56678   0.3933   0.6885     C
H       0.5737   0.0994   0.4068     H
H       0.5737   0.4006   0.9068     H
C      0.58033   0.5246   0.7076     C
C      0.58033   0.9754   0.2076     C
H       0.5876   0.6813   0.4547     H
H       0.5876   0.8187   0.9547     H
C       0.5913   0.5876   0.4336     C
C       0.5913   0.9124   0.9336     C
H       0.5957   0.1739   0.2065     H
H       0.5957   0.3261   0.7065     H
H       0.5966   0.5319   0.4915     H
H       0.5966   0.9681   0.9915     H
H       0.6162    0.079   0.6529     H
H       0.6162    0.421   0.1529     H
C      0.62002   0.0647   0.5836     C
C      0.62002   0.4353   0.0836     C
H       0.6303   0.6231    0.813     H
H       0.6303   0.8769    0.313     H
H       0.6349   0.1489   0.5556     H
H       0.6349   0.3511   0.0556     H
C      0.63989   0.5651   0.7583     C
C      0.63989   0.9349   0.2583     C
C      0.64874   0.5754   0.3765     C
C      0.64874   0.9246   0.8765     C
O      0.65035    0.517   0.2993     O
O      0.65035    0.983   0.7993     O
O      0.65671   0.6333   0.0099     O
O      0.65671   0.8667   0.5099     O
H       0.6608   0.0156   0.2838     H
H       0.6608   0.4844   0.7838     H
C      0.66695   0.5423   0.0681     C
C      0.66695   0.9577   0.5681     C
C      0.68291   0.6376   0.6947     C
C      0.68291   0.8624   0.1947     C
O      0.69001   0.5963   0.6127     O
O      0.69001   0.9037   0.1127     O
O      0.69847   0.6272  0.40959     O
O      0.69847   0.8728  0.90959     O
O      0.71259   0.7358   0.7223     O
O      0.71259   0.7642   0.2223     O
O      0.71838   0.5382  0.11361     O
O      0.71838   0.9618  0.61361     O
Ho     0.74939  0.74758    0.527    Ho
Ho     0.74939  0.75242    0.027    Ho
Ho      0.7591  0.56538   0.2717    Ho
Ho      0.7591  0.93462   0.7717    Ho
O      0.78404   0.5769  0.92857     O
O      0.78404   0.9231  0.42857     O
O      0.80809    0.045  0.89878     O
O      0.80809    0.455  0.39878     O
C      0.80821   0.6373   0.8609     C
C      0.80821   0.8627   0.3609     C
O      0.81002   0.7371  0.36172     O
O      0.81002   0.7629  0.86172     O
O      0.81111   0.5669   0.5346     O
O      0.81111   0.9331   0.0346     O
H       0.8122   0.0213   0.2677     H
H       0.8122   0.4787   0.7677     H
O      0.82258   0.6781  0.13534     O
O      0.82258   0.8219  0.63534     O
C      0.82818   0.0243   0.9817     C
C      0.82818   0.4757   0.4817     C
C      0.83705   0.5594   0.7821     C
C      0.83705   0.9406   0.2821     C
H       0.8381   0.6145   0.7236     H
H       0.8381   0.8855   0.2236     H
O      0.86033   0.5124  0.21468     O
O      0.86033   0.9876  0.71468     O
C      0.86486   0.5925   0.1484     C
C      0.86486   0.9075   0.6484     C
H        0.871   0.1323   0.0904     H
H        0.871   0.3677   0.5904     H
H       0.8761   0.2026   0.9884     H
H       0.8761   0.2974   0.4884     H
C      0.87797   0.1159    0.022     C
C      0.87797   0.3841    0.522     C
H       0.8867   0.1797    0.322     H
H       0.8867   0.3203    0.822     H
C      0.90212   0.5194   0.8127     C
C      0.90212   0.9806   0.3127     C
H       0.9063   0.5311   0.0283     H
H       0.9063   0.9689   0.5283     H
C      0.91703   0.1123   0.3312     C
C      0.91703   0.3877   0.8312     C
C      0.91703   0.5922   0.0817     C
C      0.91703   0.9078   0.5817     C
H       0.9207   0.6828   0.0545     H
H       0.9207   0.8172   0.5545     H
H         0.93   0.0043   0.8707     H
H         0.93   0.4957   0.3707     H
H       0.9385   0.7051   0.8114     H
H       0.9385   0.7949   0.3114     H
C      0.94097   0.0539   0.0107     C
C      0.94097   0.4461   0.5107     C
C      0.94761   0.6143   0.8248     C
C      0.94761   0.8857   0.3248     C
C       0.9584   0.0031   0.9235     C
C       0.9584   0.4969   0.4235     C
H       0.9626   0.1454   0.6363     H
H       0.9626   0.3546   0.1363     H
H        0.972   0.0827   0.1473     H
H        0.972   0.4173   0.6473     H
C      0.97549   0.1464   0.3628     C
C      0.97549   0.3536   0.8628     C
C      0.97941    0.552   0.1228     C
C      0.97941    0.948   0.6228     C
C      0.98335   0.0493   0.0869     C
C      0.98335   0.4507   0.5869     C
H       0.9849   0.2374   0.3749     H
H       0.9849   0.2626   0.8749     H
C       0.9935   0.0788   0.6436     C
C       0.9935   0.4212   0.1436     C
