data_I
_chemical_name_common  '/home/zhangsd/repos/MofS-CGCNN/ML/data/WS24/clean_cifs/BUCWAZ'
_cell_length_a 14.15120
_cell_length_b 14.50760
_cell_length_c 25.80730
_cell_angle_alpha 90.00000
_cell_angle_beta  92.16600
_cell_angle_gamma 90.00000
_space_group_name_H-M_alt      'P 1'


loop_
_space_group_symop_operation_xyz
  'x, y, z' 

loop_
_atom_site_label
_atom_site_fract_x
_atom_site_fract_y
_atom_site_fract_z
_atom_site_type_symbol
C       0.0022   0.2806   0.8506     C
O       0.0023   0.7717   0.2012     O
C        0.003   0.8028   0.0445     C
H       0.0046   0.6737    0.422     H
H       0.0057   0.8098   0.0087     H
C       0.0069   0.1811   0.6134     C
H       0.0172   0.0008   0.4929     H
C       0.0218   0.4335   0.4423     C
C       0.0313   0.4954    0.484     C
C        0.042    0.202   0.7187     C
C       0.0428   0.7341   0.3057     C
H       0.0467   0.1429   0.7905     H
C       0.0576   0.7281   0.3583     C
C       0.0589   0.2436   0.9363     C
C       0.0594   0.2033   0.7762     C
C       0.0607   0.8458   0.1284     C
O       0.0625   0.6156   0.5689     O
C       0.0637   0.8545    0.077     C
C       0.0647   0.2359   0.8832     C
C       0.0667   0.8742   0.5639     C
O       0.0731   0.8294   0.6044     O
H       0.0884   0.3839   0.3831     H
H       0.0894   0.7596   0.2856     H
C       0.0905   0.1434   0.6367     C
C       0.0941   0.4248   0.4108     C
H       0.0993   0.8819   0.1501     H
C       0.1044   0.1544   0.6893     C
O       0.1091   0.1809   0.0167     O
H       0.1119   0.1997   0.8695     H
C       0.1129   0.5494   0.4911     C
C       0.1207    0.185   0.9716     C
H        0.125   0.2186   0.7844     H
C        0.126   0.6135   0.5354     C
O       0.1267   0.8787   0.5289     O
C       0.1331    0.924   0.0547     C
O       0.1349   0.9365   0.0064     O
H       0.1406    0.096   0.5681     H
C        0.147    0.767    0.385     C
O       0.1543   0.7604   0.4305     O
H       0.1579   0.1286   0.7055     H
C       0.1583   0.0908   0.6047     C
H       0.1588   0.0262   0.6142     H
Cd     0.16287  0.70975  0.62415    Cd
C       0.1765   0.4744   0.4178     C
O       0.1812   0.9742   0.0865     O
C       0.1853   0.5363   0.4569     C
O       0.1855    0.139   0.9495     O
O          0.2   0.6597   0.5398     O
O       0.2027   0.8027   0.3545     O
H       0.2407   0.5706    0.461     H
O       0.2464   0.4532   0.3835     O
Cd     0.24669  0.05431  0.01853    Cd
Cd     0.25017  0.79244  0.49974    Cd
O       0.2509   0.1324   0.6155     O
H       0.2588   0.0115   0.5383     H
O       0.2946   0.7782   0.6458     O
O       0.3023   0.9214   0.4589     O
C       0.3127   0.0478   0.5423     C
C       0.3215   0.1124   0.5816     C
Cd     0.32825  0.16586  0.91143    Cd
H       0.3299   0.4285   0.2966     H
O       0.3302   0.1527   0.0667     O
O       0.3321   0.0164   0.9398     O
Cd     0.33675  0.87456  0.37526    Cd
C       0.3401   0.4875   0.3948     C
H       0.3443   0.5517   0.3847     H
O       0.3447   0.8259   0.5685     O
C        0.355   0.8157   0.6171     C
H       0.3551   0.4829   0.4317     H
H       0.3561   0.3434   0.2208     H
O       0.3728    0.707   0.4702     O
O       0.3762   0.9467   0.0108     O
C       0.3783   0.2037   0.0406     C
C       0.3785   0.9753   0.4649     C
O       0.3815   0.2028   0.9929     O
C       0.3824   0.9565   0.9637     C
C       0.3858   0.4065   0.3122     C
C       0.3881   0.0389   0.5084     C
H       0.3934   0.2507   0.1407     H
C       0.4033   0.1641   0.5892     C
H       0.4084   0.2064   0.6162     H
C        0.409   0.4301   0.3647     C
C       0.4212    0.327   0.2296     C
H       0.4263    0.789   0.7115     H
H       0.4285   0.2612   0.2245     H
O        0.429    0.758   0.3963     O
C        0.431   0.2892   0.1214     C
H       0.4324   0.9632    0.864     H
C       0.4327   0.7096   0.4363     C
C       0.4345   0.2771   0.0676     C
O       0.4367    0.972   0.4294     O
C       0.4448   0.3513   0.2838     C
C       0.4457   0.8466   0.6426     C
C       0.4495    0.903   0.9335     C
C       0.4624   0.9145   0.8814     C
C       0.4683   0.0907   0.5137     C
C       0.4684   0.8235   0.6927     C
C       0.4791   0.1519   0.5555     C
O       0.4811   0.3743   0.1984     O
C       0.4825   0.3568   0.1453     C
H       0.4845   0.5854   0.5102     H
C       0.4914   0.3992   0.3865     C
H       0.4932   0.9128    0.579     H
C        0.494   0.3336   0.0416     C
H       0.4977   0.3263   0.0059     H
H       0.5023   0.8263   0.9941     H
C        0.506   0.8336   0.9584     C
H       0.5068   0.4128    0.421     H
C       0.5086   0.8992   0.6135     C
H       0.5155   0.0854   0.4898     H
C       0.5175   0.8568   0.8547     C
O       0.5189   0.8743   0.8016     O
C       0.5209   0.6519   0.4445     C
C       0.5316   0.3235   0.3073     C
C       0.5317   0.5907   0.4863     C
C       0.5376   0.4145   0.1186     C
C       0.5505    0.403   0.0665     C
C       0.5543   0.3466   0.3574     C
C       0.5552   0.8513   0.7162     C
O       0.5633    0.472   0.5706     O
C       0.5655   0.7771   0.9324     C
C       0.5673   0.2096   0.5637     C
H       0.5676   0.4632    0.136     H
C        0.569   0.7892   0.8786     C
O        0.571    0.258   0.6037     O
H       0.5715   0.7612   0.7755     H
H       0.5737    0.289   0.2885     H
C       0.5788    0.827   0.7704     C
C        0.591   0.9301   0.6353     C
H       0.5916   0.7064   0.3838     H
C       0.5967   0.6641   0.4108     C
H       0.6066   0.7507   0.8593     H
C       0.6119   0.5389   0.4916     C
C       0.6142   0.9065   0.6878     C
C       0.6176   0.4565   0.0363     C
O       0.6185   0.7028   0.0071     O
C       0.6215   0.4753   0.5351     C
C       0.6217   0.7037   0.9594     C
O       0.6238   0.4467   0.9892     O
O       0.6272    0.207   0.5298     O
H       0.6439   0.8434   0.7792     H
H       0.6449   0.9829   0.5683     H
C        0.645   0.3157   0.3829     C
O       0.6553   0.3259   0.4315     O
H       0.6557   0.0517   0.6153     H
C       0.6599   0.9875   0.6052     C
Cd     0.66325  0.37456  0.62474    Cd
O       0.6679   0.5164   0.0602     O
O       0.6698   0.6527   0.9333     O
H       0.6701   0.9285   0.7034     H
Cd     0.67175  0.66586  0.08857    Cd
C       0.6785   0.6124   0.4184     C
C       0.6873   0.5478   0.4577     C
O       0.6977   0.4214   0.5411     O
O       0.7054   0.2782   0.3542     O
H       0.7412   0.5115   0.4617     H
O       0.7491   0.6324   0.3845     O
Cd     0.74983  0.29244  0.50026    Cd
Cd     0.75331  0.55431  0.98147    Cd
O       0.7536   0.9532   0.6165     O
H       0.7593   0.0706    0.539     H
O       0.7973   0.3027   0.6455     O
O          0.8   0.1597   0.4602     O
O       0.8145    0.639   0.0505     O
C       0.8147   0.0363   0.5431     C
O       0.8188   0.4742   0.9135     O
C       0.8235   0.9744   0.5822     C
Cd     0.83713  0.20975  0.37585    Cd
H       0.8412   0.5262   0.3858     H
C       0.8417   0.5908   0.3953     C
H       0.8421   0.6286   0.2945     H
O       0.8457   0.2604   0.5695     O
C        0.853    0.267    0.615     C
H       0.8594    0.596   0.4319     H
O       0.8651   0.4365   0.9936     O
C       0.8669    0.424   0.9453     C
O       0.8733   0.3787   0.4711     O
C        0.874   0.1135   0.4646     C
H        0.875   0.7186   0.2156     H
C       0.8793    0.685   0.0284     C
C       0.8871   0.0494   0.5089     C
H       0.8881   0.6997   0.1305     H
O       0.8909   0.6809   0.9833     O
C       0.8956   0.6544   0.3107     C
H       0.9007   0.3819   0.8499     H
C       0.9059   0.9248   0.5892     C
C       0.9095   0.6434   0.3633     C
H       0.9106   0.2596   0.7144     H
H       0.9116   0.8839   0.6169     H
O       0.9269   0.3294   0.3956     O
C       0.9333   0.3742   0.4361     C
C       0.9353   0.7359   0.1168     C
C       0.9363   0.3545    0.923     C
O       0.9375   0.1156   0.4311     O
C       0.9393   0.3458   0.8716     C
C       0.9406   0.7033   0.2238     C
C       0.9411   0.7436   0.0637     C
C       0.9424   0.2281   0.6417     C
H       0.9533   0.6429   0.2095     H
C       0.9572   0.2341   0.6943     C
C        0.958    0.702   0.2813     C
C       0.9687   0.9954    0.516     C
C       0.9782   0.9335   0.5577     C
H       0.9828   0.5008   0.5071     H
C       0.9931   0.6811   0.3866     C
H       0.9943   0.3098   0.9913     H
H       0.9954   0.1737    0.578     H
C        0.997   0.3028   0.9555     C
O       0.9977   0.2717   0.7988     O
C       0.9978   0.7806   0.1494     C
