data_I
_chemical_name_common  '/home/zhangsd/repos/MofS-CGCNN/ML/data/WS24/clean_cifs/CAU-6'
_cell_length_a 19.22750
_cell_length_b 19.22750
_cell_length_c 14.07410
_cell_angle_alpha 90.00000
_cell_angle_beta  90.00000
_cell_angle_gamma 120.00000
_space_group_name_H-M_alt      'P 1'


loop_
_space_group_symop_operation_xyz
  'x, y, z' 

loop_
_atom_site_label
_atom_site_fract_x
_atom_site_fract_y
_atom_site_fract_z
_atom_site_type_symbol
Al    -0.15864 -0.15864      0.0    Al
Al    -0.15864      0.0      0.0    Al
O     -0.09789  0.09789 -0.06295     O
O     -0.09789  0.09789  0.56295     O
O     -0.09789  0.80422  0.56295     O
O     -0.09789  0.80422  0.93705     O
O     -0.09506 -0.04753 -0.05707     O
O     -0.09506 -0.04753  0.55707     O
O     -0.05503  0.19169 0.083333     O
O     -0.05503  0.19169 0.416667     O
O     -0.05503  0.75328 0.416667     O
O     -0.05503  0.75328 1.083333     O
O     -0.04753 -0.09506  0.05707     O
O     -0.04753 -0.09506  0.44293     O
O     -0.04753  0.04753  0.05707     O
O     -0.04753  0.04753  0.44293     O
Al         0.0 -0.15864      0.0    Al
Al         0.0      0.0      0.0    Al
Al         0.0      0.0      0.5    Al
Al         0.0  0.15864      0.0    Al
Al         0.0  0.15864      0.5    Al
Al         0.0  0.15864      1.0    Al
Al         0.0  0.84136      0.5    Al
Al         0.0  0.84136      1.0    Al
Al         0.0      1.0      0.5    Al
O      0.04753 -0.04753 -0.05707     O
O      0.04753 -0.04753  0.55707     O
O      0.04753  0.09506 -0.05707     O
O      0.04753  0.09506  0.55707     O
O      0.05503  0.24672 -0.083333     O
O      0.05503  0.24672 0.583333     O
O      0.05503  0.80831 0.583333     O
O      0.05503  0.80831 0.916667     O
H     0.0620986 0.466492 0.596719     H
H     0.0620986 0.466492 0.903281     H
H     0.0620986 0.595606 0.596719     H
C      0.06648  0.49691   0.6636     C
C      0.06648  0.49691   0.8364     C
C      0.06648  0.56957   0.6636     C
C      0.06648  0.56957   0.8364     C
N      0.06657  0.60538  0.92533     N
H     0.0665715 0.658158 0.926858     H
H     0.0666324 0.578054 0.987008     H
C      0.07214   0.4628     0.75     C
C      0.07214  0.60934     0.75     C
O      0.09506  0.04753  0.05707     O
O      0.09506  0.04753  0.44293     O
C      0.09594  0.40052     0.75     C
C      0.09594  0.69542     0.75     C
O      0.09789 -0.09789  0.06295     O
O      0.09789 -0.09789  0.43705     O
O      0.09789  0.19578  0.06295     O
O      0.09789  0.19578  0.43705     O
O      0.11062  0.37641  0.68232     O
O      0.11062  0.37641  0.81768     O
O      0.11062  0.73421  0.68232     O
O      0.11062  0.73421  0.81768     O
O      0.12261  0.24522     0.75     O
O      0.12261  0.87739     0.75     O
H     0.145337 0.383166 0.493371     H
H     0.145337 0.762172  1.00663     H
Al     0.15331  0.30662  0.62799    Al
Al     0.15331  0.30662  0.87201    Al
Al     0.15331  0.84669  0.62799    Al
Al     0.15331  0.84669  0.87201    Al
Al     0.15864      0.0      0.0    Al
Al     0.15864      0.0      0.5    Al
Al     0.15864  0.15864      0.0    Al
Al     0.15864  0.15864      0.5    Al
Al     0.15864  0.15864      1.0    Al
Al     0.15864      1.0      0.5    Al
Al     0.15864      1.0      1.0    Al
H     0.169024 0.318193  1.04505     H
H     0.169024  0.85083 0.454946     H
O      0.17927  0.35854   0.5051     O
O      0.17927  0.35854   0.9949     O
O      0.17927  0.82073   0.5051     O
O      0.17927  0.82073   0.9949     O
O      0.19169 -0.05503 -0.083333     O
O      0.19169 -0.05503 0.583333     O
O      0.19169  0.24672 -0.083333     O
O      0.19169  0.24672 0.583333     O
O      0.19578  0.09789 -0.06295     O
O      0.19578  0.09789  0.56295     O
H     0.236781 0.400924 0.503873     H
H     0.236781 0.400924 0.996127     H
H     0.236781 0.835856 0.503873     H
H     0.236781 0.835856 0.996127     H
O      0.24522  0.12261     0.25     O
O      0.24672  0.05503 0.083333     O
O      0.24672  0.05503 0.416667     O
O      0.24672  0.19169 0.083333     O
O      0.24672  0.19169 0.416667     O
O      0.26579  0.37641  0.68232     O
O      0.26579  0.37641  0.81768     O
O      0.26579  0.88938  0.68232     O
O      0.26579  0.88938  0.81768     O
C      0.30458  0.40052     0.75     C
C      0.30458  0.90406     0.75     C
Al     0.30662  0.15331  0.12799    Al
Al     0.30662  0.15331  0.37201    Al
H     0.339883 0.410623 0.926946     H
H     0.342282 0.128973 0.530808     H
H     0.342282 0.213309 -0.0308077     H
O      0.35854  0.17927   0.0051     O
O      0.35854  0.17927   0.4949     O
O      0.37641  0.11062  0.18232     O
O      0.37641  0.11062  0.31768     O
O      0.37641  0.26579  0.18232     O
O      0.37641  0.26579  0.31768     O
C      0.39066   0.4628     0.75     C
C      0.39066  0.92786     0.75     C
N      0.39462  0.46119  0.92533     N
C      0.40052  0.09594     0.25     C
C      0.40052  0.30458     0.25     C
H     0.404394 0.466492 0.596719     H
H     0.404394 0.937901 0.596719     H
H     0.404394 0.937901 0.903281     H
H     0.410623 0.0707408 0.0730536     H
H     0.417719 0.208859 0.0138055     H
H     0.417719 0.208859 0.486194     H
H     0.423906 0.486369  0.98692     H
C      0.43043  0.49691   0.6636     C
C      0.43043  0.49691   0.8364     C
C      0.43043  0.93352   0.6636     C
C      0.43043  0.93352   0.8364     C
N      0.46119  0.06657  0.07467     N
C       0.4628  0.07214     0.25     C
C       0.4628  0.39066     0.25     C
H     0.466492 0.0620986 0.403281     H
H     0.466492 0.404394 0.0967186     H
H     0.466492 0.404394 0.403281     H
H     0.486369 0.0624632  0.01308     H
C      0.49691  0.06648   0.1636     C
C      0.49691  0.06648   0.3364     C
C      0.49691  0.43043   0.1636     C
C      0.49691  0.43043   0.3364     C
C      0.50309  0.56957   0.6636     C
C      0.50309  0.56957   0.8364     C
C      0.50309  0.93352   0.6636     C
C      0.50309  0.93352   0.8364     C
H     0.511421 0.933368 0.987008     H
H     0.533508 0.595606 0.596719     H
H     0.533508 0.595606 0.903281     H
H     0.533508 0.937901 0.596719     H
C       0.5372  0.60934     0.75     C
C       0.5372  0.92786     0.75     C
N      0.53881  0.93343  0.92533     N
C      0.56957  0.06648   0.1636     C
C      0.56957  0.06648   0.3364     C
C      0.56957  0.50309   0.1636     C
C      0.56957  0.50309   0.3364     C
H     0.578054 0.511421 0.012992     H
H     0.583531 0.802553 0.513066     H
H     0.591586 0.933428 0.926858     H
H     0.595606 0.0620986 0.0967186     H
H     0.595606 0.0620986 0.403281     H
H     0.595606 0.533508 0.403281     H
C      0.59948  0.69542     0.75     C
C      0.59948  0.90406     0.75     C
N      0.60538  0.53881  0.07467     N
C      0.60934  0.07214     0.25     C
C      0.60934   0.5372     0.25     C
O      0.62359  0.73421  0.68232     O
O      0.62359  0.73421  0.81768     O
O      0.62359  0.88938  0.68232     O
O      0.62359  0.88938  0.81768     O
O      0.64146  0.82073   0.5051     O
O      0.64146  0.82073   0.9949     O
H     0.647444 0.777209  1.02473     H
H     0.658158 0.591586 0.0731417     H
H     0.666741 0.869097 0.463856     H
H     0.666741 0.869097  1.03614     H
Al     0.69338  0.84669  0.62799    Al
Al     0.69338  0.84669  0.87201    Al
C      0.69542  0.09594     0.25     C
C      0.69542  0.59948     0.25     C
O      0.73421  0.11062  0.18232     O
O      0.73421  0.11062  0.31768     O
O      0.73421  0.62359  0.18232     O
O      0.73421  0.62359  0.31768     O
O      0.75328 -0.05503 -0.083333     O
O      0.75328 -0.05503 0.583333     O
O      0.75328  0.80831 -0.083333     O
O      0.75328  0.80831 0.583333     O
O      0.75478  0.87739     0.75     O
H     0.777209 0.129764 0.524732     H
H     0.777209 0.647444 -0.0247319     H
H     0.802553 0.219021 0.0130665     H
H     0.802553 0.583531 0.486934     H
O      0.80422 -0.09789  0.06295     O
O      0.80422 -0.09789  0.43705     O
O      0.80831  0.05503 0.083333     O
O      0.80831  0.05503 0.416667     O
O      0.80831  0.75328 0.083333     O
O      0.80831  0.75328 0.416667     O
O      0.82073  0.17927   0.0051     O
O      0.82073  0.17927   0.4949     O
O      0.82073  0.64146   0.0051     O
O      0.82073  0.64146   0.4949     O
Al     0.84136      0.0      0.0    Al
Al     0.84136      0.0      0.5    Al
Al     0.84136  0.84136      0.0    Al
Al     0.84136  0.84136      0.5    Al
Al     0.84136  0.84136      1.0    Al
Al     0.84136      1.0      0.0    Al
Al     0.84136      1.0      0.5    Al
Al     0.84136      1.0      1.0    Al
Al     0.84669  0.15331  0.12799    Al
Al     0.84669  0.15331  0.37201    Al
Al     0.84669  0.69338  0.12799    Al
Al     0.84669  0.69338  0.37201    Al
H     0.869097 0.202356 -0.0361445     H
H     0.869097 0.202356 0.536144     H
H     0.869097 0.666741 -0.0361445     H
H     0.869097 0.666741 0.536144     H
O      0.87739  0.12261     0.25     O
O      0.87739  0.75478     0.25     O
O      0.88938  0.26579  0.18232     O
O      0.88938  0.26579  0.31768     O
O      0.88938  0.62359  0.18232     O
O      0.88938  0.62359  0.31768     O
C      0.90406  0.30458     0.25     C
C      0.90406  0.59948     0.25     C
C      0.92786  0.39066     0.25     C
C      0.92786   0.5372     0.25     C
H     0.929259 0.339883 0.0730536     H
N      0.93343  0.39462  0.07467     N
C      0.93352  0.43043   0.1636     C
C      0.93352  0.43043   0.3364     C
C      0.93352  0.50309   0.1636     C
C      0.93352  0.50309   0.3364     C
H     0.937537 0.423906  0.01308     H
H     0.937901 0.404394 0.403281     H
H     0.937901 0.533508 0.0967186     H
H     0.937901 0.533508 0.403281     H
Al         1.0      0.0      0.0    Al
Al         1.0      0.0      0.5    Al
Al         1.0  0.15864      0.0    Al
Al         1.0  0.15864      0.5    Al
Al         1.0  0.84136      0.0    Al
Al         1.0  0.84136      0.5    Al
Al         1.0      1.0      0.0    Al
Al         1.0      1.0      0.5    Al
