data_I
_chemical_name_common  '/home/zhangsd/repos/MofS-CGCNN/ML/data/WS24/clean_cifs/CAU-10-OCH3'
_cell_length_a 21.36093
_cell_length_b 21.36093
_cell_length_c 10.56982
_cell_angle_alpha 90.00000
_cell_angle_beta  90.00000
_cell_angle_gamma 90.00000
_space_group_name_H-M_alt      'P 1'


loop_
_space_group_symop_operation_xyz
  'x, y, z' 

loop_
_atom_site_label
_atom_site_fract_x
_atom_site_fract_y
_atom_site_fract_z
_atom_site_type_symbol
H     0.003674 0.020096 0.111085     H
H     0.003674 0.520096 0.888915     H
C      0.00504  0.46335  0.20691     C
C      0.00504  0.96335  0.79311     C
C      0.00689  0.10949 0.669117     C
C      0.00689  0.60949 0.330917     C
H     0.009624 0.367811    0.755     H
H     0.009624 0.867811    0.245     H
H     0.022634 0.062166 0.691509     H
H     0.022634 0.562166 0.308491     H
C      0.03024  0.42236  0.46048     C
C      0.03024  0.92236  0.53968     C
C      0.03263  0.06735  0.41889     C
C      0.03263  0.56735  0.58129     C
O      0.04265  0.39375  0.58018     O
O      0.04265  0.89375  0.41998     O
C      0.04443  0.04675  0.29949     C
C      0.04443  0.54675  0.70069     C
H     0.045526 0.136033 0.629207     H
H     0.045526 0.636033 0.370793     H
C      0.06254  0.44985  0.25178     C
C      0.06254  0.94985  0.74838     C
H     0.071378 0.075936 0.483288     H
H     0.071378 0.575936 0.516712     H
C      0.07893  0.42876  0.37528     C
C      0.07893  0.92876  0.62488     C
C      0.11124  0.04074  0.25427     C
C      0.11124  0.54074  0.74587     C
H     0.113967 0.295526 0.620793     H
H     0.113967 0.795526 0.379207     H
O      0.11484  0.49874  0.82867     O
O      0.11484  0.99874  0.17147     O
O      0.11704  0.48924  0.07765     O
O      0.11704  0.98924  0.92245     O
H     0.117811 0.240376    0.495     H
H     0.117811 0.740376    0.505     H
C      0.12543  0.45544  0.17507     C
C      0.12543  0.95544  0.82507     C
H     0.127127 0.418208 0.401094     H
H     0.127127 0.918208 0.598906     H
C      0.14079  0.25689 0.580917     C
C      0.14079  0.75689 0.419117     C
O      0.14375  0.20745  0.66998     O
O      0.14375  0.70745  0.33018     O
O      0.15453  0.06395  0.31918     O
O      0.15453  0.56395  0.68098     O
H     0.168208 0.122873 0.848906     H
H     0.168208 0.622873 0.151094     H
C      0.17236  0.21984  0.78968     C
C      0.17236  0.71984  0.21048     C
H     0.174064 0.321378 0.766712     H
H     0.174064 0.821378 0.233288     H
O      0.17513  0.42964  0.21407     O
O      0.17513  0.92964  0.78607     O
C      0.17876  0.17113  0.87488     C
C      0.17876  0.67113  0.12528     C
O      0.17964  0.07493  0.03607     O
O      0.17964  0.57493  0.96407     O
C      0.18275  0.28263  0.83129     C
C      0.18275  0.78263  0.16889     C
Al     0.18333  0.49063  0.94605    Al
Al     0.18333  0.99063  0.05405    Al
O      0.18615  0.40453  0.93098     O
O      0.18615  0.90453  0.06918     O
H     0.187834 0.272634 0.558491     H
H     0.187834 0.772634 0.441509     H
C      0.19985  0.18754  0.99838     C
C      0.19985  0.68754  0.00178     C
C      0.20335  0.29443  0.95069     C
C      0.20335  0.79443  0.04949     C
C      0.20544  0.12463  0.07507     C
C      0.20544  0.62463  0.92507     C
C      0.20934  0.36124  0.99587     C
C      0.20934  0.86124  0.00427     C
C      0.21335  0.24504  0.04311     C
C      0.21335  0.74504  0.95691     C
H     0.229904 0.253674 0.138915     H
H     0.229904 0.753674 0.861085     H
O      0.23794  0.00084  0.18601     O
O      0.23794  0.50084  0.81401     O
O      0.23924  0.13304  0.17245     O
O      0.23924  0.63304  0.82765     O
Al     0.24063  0.06673  0.30405    Al
Al     0.24063  0.56673  0.69605    Al
O      0.24874  0.13524  0.42147     O
O      0.24874  0.63524  0.57867     O
O      0.24924  0.48794  0.06401     O
O      0.24924  0.98794  0.93601     O
O      0.25084  0.01214  0.43601     O
O      0.25084  0.51214  0.56401     O
O      0.25134  0.36484  0.07867     O
O      0.25134  0.86484  0.92147     O
Al     0.25943  0.43333  0.19605    Al
Al     0.25943  0.93333  0.80405    Al
O      0.26084  0.36704  0.32765     O
O      0.26084  0.86704  0.67245     O
O      0.26214  0.49924  0.31401     O
O      0.26214  0.99924  0.68601     O
H     0.270097 0.246326 0.361085     H
H     0.270097 0.746326 0.638915     H
C      0.28675  0.25504  0.45691     C
C      0.28675  0.75504  0.54311     C
C      0.29074  0.13884  0.50427     C
C      0.29074  0.63884  0.49587     C
C      0.29464  0.37543  0.42507     C
C      0.29464  0.87543  0.57507     C
C      0.29675  0.20563  0.54949     C
C      0.29675  0.70563  0.45069     C
C      0.30025  0.31254  0.50178     C
C      0.30025  0.81254  0.49838     C
H     0.312166 0.227366 0.941509     H
H     0.312166 0.727366 0.058491     H
O      0.31395  0.09553  0.56918     O
O      0.31395  0.59553  0.43098     O
Al     0.31673  0.00943  0.55405    Al
Al     0.31673  0.50943  0.44605    Al
C      0.31735  0.21743  0.66889     C
C      0.31735  0.71743  0.33129     C
O      0.32044  0.42513  0.46407     O
O      0.32044  0.92513  0.53607     O
C      0.32136  0.32893  0.62528     C
C      0.32136  0.82893  0.37488     C
O      0.32493  0.07044  0.28607     O
O      0.32493  0.57044  0.71407     O
H     0.325936 0.178622 0.733288     H
H     0.325936 0.678622 0.266712     H
C      0.32776  0.28024  0.71048     C
C      0.32776  0.78024  0.28968     C
H     0.331792 0.377127 0.651094     H
H     0.331792 0.877127 0.348906     H
O      0.34553  0.43615  0.18098     O
O      0.34553  0.93615  0.81918     O
O      0.35635  0.29265  0.83018     O
O      0.35635  0.79265  0.16998     O
C      0.35939  0.24329 0.919117     C
C      0.35939  0.74329 0.080917     C
H     0.372873 0.081792 0.098906     H
H     0.372873 0.581792 0.901094     H
C      0.37463  0.04464  0.32507     C
C      0.37463  0.54464  0.67507     C
H     0.382189 0.259624    0.005     H
H     0.382189 0.759624    0.995     H
O      0.38304  0.01084  0.42245     O
O      0.38304  0.51084  0.57765     O
O      0.38524  0.00134  0.67147     O
O      0.38524  0.50134  0.32867     O
H     0.386033 0.204474 0.879207     H
H     0.386033 0.704474 0.120793     H
C      0.38884  0.45934  0.24587     C
C      0.38884  0.95934  0.75427     C
C      0.42113  0.07136  0.12488     C
C      0.42113  0.57136  0.87528     C
H     0.428622 0.424064 0.016712     H
H     0.428622 0.924064 0.983288     H
C      0.43754  0.05025  0.24838     C
C      0.43754  0.55025  0.75178     C
H     0.454474 0.363967 0.870793     H
H     0.454474 0.863967 0.129207     H
C      0.45563  0.45335  0.20069     C
C      0.45563  0.95335  0.79949     C
O      0.45745  0.10635  0.91998     O
O      0.45745  0.60635  0.08018     O
C      0.46743  0.43275  0.08129     C
C      0.46743  0.93275  0.91889     C
C      0.46984  0.07776  0.03968     C
C      0.46984  0.57776  0.96048     C
H     0.477366 0.437834 0.808491     H
H     0.477366 0.937834 0.191509     H
H     0.490376 0.132189    0.745     H
H     0.490376 0.632189    0.255     H
C      0.49329  0.39079 0.830917     C
C      0.49329  0.89069 0.169117     C
C      0.49504  0.03675  0.29311     C
C      0.49504  0.53675  0.70691     C
H     0.496326 0.479903 0.388915     H
H     0.496326 0.979904 0.611085     H
H     0.503674 0.020096 0.388915     H
H     0.503674 0.520096 0.611085     H
C      0.50504  0.46335  0.29311     C
C      0.50504  0.96335  0.70691     C
C      0.50689  0.10949 0.830917     C
C      0.50689  0.60949 0.169117     C
H     0.509624 0.367811    0.745     H
H     0.509624 0.867811    0.255     H
H     0.522634 0.062166 0.808491     H
H     0.522634 0.562166 0.191509     H
C      0.53024  0.42236  0.03968     C
C      0.53024  0.92236  0.96048     C
C      0.53263  0.06735  0.08129     C
C      0.53263  0.56735  0.91889     C
O      0.54265  0.39375  0.91998     O
O      0.54265  0.89375  0.08018     O
C      0.54443  0.04675  0.20069     C
C      0.54443  0.54675  0.79949     C
H     0.545526 0.136033 0.870793     H
H     0.545526 0.636033 0.129207     H
C      0.56254  0.44985  0.24838     C
C      0.56254  0.94985  0.75178     C
H     0.571378 0.075936 0.016712     H
H     0.571378 0.575936 0.983288     H
C      0.57893  0.42876  0.12488     C
C      0.57893  0.92876  0.87528     C
C      0.61124  0.04074  0.24587     C
C      0.61124  0.54074  0.75427     C
H     0.613967 0.295526 0.879207     H
H     0.613967 0.795526 0.120793     H
O      0.61484  0.49874  0.67147     O
O      0.61484  0.99874  0.32867     O
O      0.61704  0.48924  0.42245     O
O      0.61704  0.98924  0.57765     O
H     0.617811 0.240376    0.005     H
H     0.617811 0.740376    0.995     H
C      0.62543  0.45544  0.32507     C
C      0.62543  0.95544  0.67507     C
H     0.627127 0.418208 0.098906     H
H     0.627127 0.918208 0.901094     H
C      0.64069  0.25689 0.919117     C
C      0.64069  0.75689 0.080917     C
O      0.64375  0.20745  0.83018     O
O      0.64375  0.70745  0.16998     O
O      0.65453  0.06395  0.18098     O
O      0.65453  0.56395  0.81918     O
H     0.668208 0.122873 0.651094     H
H     0.668208 0.622873 0.348906     H
C      0.67236  0.21984  0.71048     C
C      0.67236  0.71984  0.28968     C
H     0.674064 0.321378 0.733288     H
H     0.674064 0.821378 0.266712     H
O      0.67513  0.42964  0.28607     O
O      0.67513  0.92964  0.71407     O
C      0.67876  0.17113  0.62528     C
C      0.67876  0.67113  0.37488     C
O      0.67964  0.07493  0.46407     O
O      0.67964  0.57493  0.53607     O
C      0.68275  0.28263  0.66889     C
C      0.68275  0.78263  0.33129     C
Al     0.68333  0.49063  0.55405    Al
Al     0.68333  0.99063  0.44605    Al
O      0.68615  0.40453  0.56918     O
O      0.68615  0.90453  0.43098     O
H     0.687834 0.272634 0.941509     H
H     0.687834 0.772634 0.058491     H
C      0.69985  0.18754  0.50178     C
C      0.69985  0.68754  0.49838     C
C      0.70335  0.29443  0.54949     C
C      0.70335  0.79443  0.45069     C
C      0.70544  0.12463  0.42507     C
C      0.70544  0.62463  0.57507     C
C      0.70934  0.36124  0.50427     C
C      0.70934  0.86124  0.49587     C
C      0.71335  0.24504  0.45691     C
C      0.71335  0.74504  0.54311     C
H     0.729904 0.253674 0.361085     H
H     0.729904 0.753674 0.638915     H
O      0.73794  0.00084  0.31401     O
O      0.73794  0.50084  0.68601     O
O      0.73924  0.13304  0.32765     O
O      0.73924  0.63304  0.67245     O
Al     0.74063  0.06673  0.19605    Al
Al     0.74063  0.56673  0.80405    Al
O      0.74874  0.13524  0.07867     O
O      0.74874  0.63524  0.92147     O
O      0.74924  0.48794  0.43601     O
O      0.74924  0.98794  0.56401     O
O      0.75084  0.01214  0.06401     O
O      0.75084  0.51214  0.93601     O
O      0.75134  0.36484  0.42147     O
O      0.75134  0.86484  0.57867     O
Al     0.75943  0.43333  0.30405    Al
Al     0.75943  0.93333  0.69605    Al
O      0.76084  0.36704  0.17245     O
O      0.76084  0.86704  0.82765     O
O      0.76214  0.49924  0.18601     O
O      0.76214  0.99924  0.81401     O
H     0.770096 0.246326 0.138915     H
H     0.770096 0.746326 0.861085     H
C      0.78675  0.25504  0.04311     C
C      0.78675  0.75504  0.95691     C
C      0.79074  0.13884  0.99587     C
C      0.79074  0.63884  0.00427     C
C      0.79464  0.37543  0.07507     C
C      0.79464  0.87543  0.92507     C
C      0.79675  0.20563  0.95069     C
C      0.79675  0.70563  0.04949     C
C      0.80025  0.31254  0.99838     C
C      0.80025  0.81254  0.00178     C
H     0.812166 0.227366 0.558491     H
H     0.812166 0.727366 0.441509     H
O      0.81395  0.09553  0.93098     O
O      0.81395  0.59553  0.06918     O
Al     0.81673  0.00943  0.94605    Al
Al     0.81673  0.50943  0.05405    Al
C      0.81735  0.21743  0.83129     C
C      0.81735  0.71743  0.16889     C
O      0.82044  0.42513  0.03607     O
O      0.82044  0.92513  0.96407     O
C      0.82136  0.32893  0.87488     C
C      0.82136  0.82893  0.12528     C
O      0.82493  0.07044  0.21407     O
O      0.82493  0.57044  0.78607     O
H     0.825936 0.178622 0.766712     H
H     0.825936 0.678622 0.233288     H
C      0.82776  0.28024  0.78968     C
C      0.82776  0.78024  0.21048     C
H     0.831792 0.377127 0.848906     H
H     0.831792 0.877127 0.151094     H
O      0.84553  0.43615  0.31918     O
O      0.84553  0.93615  0.68098     O
O      0.85635  0.29265  0.66998     O
O      0.85635  0.79265  0.33018     O
C      0.85949  0.24329 0.580917     C
C      0.85949  0.74329 0.419117     C
H     0.872873 0.081792 0.401094     H
H     0.872873 0.581792 0.598906     H
C      0.87463  0.04464  0.17507     C
C      0.87463  0.54464  0.82507     C
H     0.882189 0.259624    0.495     H
H     0.882189 0.759624    0.505     H
O      0.88304  0.01084  0.07765     O
O      0.88304  0.51084  0.92245     O
O      0.88524  0.00134  0.82867     O
O      0.88524  0.50134  0.17147     O
H     0.886033 0.204474 0.620793     H
H     0.886033 0.704474 0.379207     H
C      0.88884  0.45934  0.25427     C
C      0.88884  0.95934  0.74587     C
C      0.92113  0.07136  0.37528     C
C      0.92113  0.57136  0.62488     C
H     0.928622 0.424064 0.483288     H
H     0.928622 0.924064 0.516712     H
C      0.93754  0.05025  0.25178     C
C      0.93754  0.55025  0.74838     C
H     0.954474 0.363967 0.629207     H
H     0.954474 0.863967 0.370793     H
C      0.95563  0.45335  0.29949     C
C      0.95563  0.95335  0.70069     C
O      0.95745  0.10635  0.58018     O
O      0.95745  0.60635  0.41998     O
C      0.96743  0.43275  0.41889     C
C      0.96743  0.93275  0.58129     C
C      0.96984  0.07776  0.46048     C
C      0.96984  0.57776  0.53968     C
H     0.977366 0.437834 0.691509     H
H     0.977366 0.937834 0.308491     H
H     0.990376 0.132189    0.755     H
H     0.990376 0.632189    0.245     H
C      0.99329  0.39079 0.669117     C
C      0.99329  0.89069 0.330917     C
C      0.99504  0.03675  0.20691     C
C      0.99504  0.53675  0.79311     C
H     0.996326 0.479903 0.111085     H
H     0.996326 0.979904 0.888915     H
