data_I
_chemical_name_common  '/home/zhangsd/repos/MofS-CGCNN/ML/data/WS24/clean_cifs/CAYCIQ'
_cell_length_a 10.51260
_cell_length_b 28.50210
_cell_length_c 28.50210
_cell_angle_alpha 120.00000
_cell_angle_beta  90.00000
_cell_angle_gamma 90.00000
_space_group_name_H-M_alt      'P 1'


loop_
_space_group_symop_operation_xyz
  'x, y, z' 

loop_
_atom_site_label
_atom_site_fract_x
_atom_site_fract_y
_atom_site_fract_z
_atom_site_type_symbol
O       0.0131   0.2426   0.5831     O
O       0.0131   0.3405   0.7574     O
O       0.0131   0.4169   0.6595     O
O       0.0144   0.1461    0.583     O
O       0.0144    0.417   0.5631     O
O       0.0144   0.4369   0.8539     O
O       0.0349     0.28   0.2064     O
O       0.0349   0.7936   0.0736     O
O       0.0349   0.9264     0.72     O
Mo     0.03636  0.17684  0.53388    Mo
Mo     0.03636  0.35704  0.82316    Mo
Mo     0.03636  0.46612  0.64296    Mo
O        0.081   0.0433   0.5628     O
O        0.081   0.4372   0.4805     O
O        0.081   0.5195   0.9567     O
O       0.1108   0.5046   0.3489     O
O       0.1108   0.6511   0.1557     O
O       0.1108   0.8443   0.4954     O
H       0.1155   0.0862   0.6986     H
H       0.1155   0.3014   0.3876     H
H       0.1155   0.6124   0.9138     H
O       0.1166   0.0887   0.4904     O
O       0.1166   0.4017   0.9113     O
O       0.1166   0.5096   0.5983     O
H       0.1185   0.5082   0.4801     H
H       0.1185   0.5199   0.0281     H
H       0.1185   0.9719   0.4918     H
O       0.1219    0.183   0.4819     O
O       0.1219   0.2989    0.817     O
O       0.1219   0.5181   0.7011     O
H       0.1254   0.1184   0.7573     H
H       0.1254   0.2427   0.3611     H
H       0.1254   0.6389   0.8816     H
O       0.1281   0.1954   0.0159     O
O       0.1281   0.8205   0.8046     O
O       0.1281   0.9841   0.1795     O
O       0.1285   0.1928    0.113     O
O       0.1285    0.887   0.0798     O
O       0.1285   0.9202   0.8072     O
H       0.1339   0.5389   0.4522     H
H       0.1339   0.5478   0.0867     H
H       0.1339   0.9133   0.4611     H
Mo     0.15478  0.10265  0.57692    Mo
Mo     0.15478  0.42308  0.52573    Mo
Mo     0.15478  0.47427  0.89735    Mo
N       0.1669   0.1067   0.7262     N
N       0.1669   0.2738   0.3805     N
N       0.1669   0.6195   0.8933     N
O       0.1701   0.1538   0.3758     O
O       0.1701    0.222   0.8462     O
O       0.1701   0.6242    0.778     O
N       0.1736   0.5262   0.4712     N
N       0.1736   0.5288    0.055     N
N       0.1736    0.945   0.4738     N
Mo     0.18222  0.25047  0.18689    Mo
Mo     0.18222  0.81311  0.06358    Mo
Mo     0.18222  0.93642  0.74953    Mo
O       0.1911   0.0044   0.7906     O
O       0.1911   0.2094   0.2138     O
O       0.1911   0.7862   0.9956     O
H       0.1928    0.135   0.7235     H
H       0.1928   0.2765   0.4115     H
H       0.1928   0.5885    0.865     H
O       0.2019   0.1305   0.6432     O
O       0.2019   0.3568   0.4873     O
O       0.2019   0.5127   0.8695     O
H       0.2059   0.4987   0.0525     H
H       0.2059   0.5538   0.5013     H
H       0.2059   0.9475   0.4462     H
O       0.2089   0.2829   0.1268     O
O       0.2089   0.8439   0.7171     O
O       0.2089   0.8732   0.1561     O
O        0.231   0.1762   0.5692     O
O        0.231    0.393   0.8238     O
O        0.231   0.4308    0.607     O
Mo     0.23448  0.19079  0.05877    Mo
Mo     0.23448  0.86798  0.80921    Mo
Mo     0.23448  0.94123  0.13202    Mo
O       0.2353   0.0051   0.4224     O
O       0.2353   0.4173   0.9949     O
O       0.2353   0.5776   0.5827     O
P       0.2356  0.06622  0.45271     P
P       0.2356  0.38649  0.93378     P
P       0.2356  0.54729  0.61351     P
H       0.2476   0.0424   0.7243     H
H       0.2476   0.2757   0.3181     H
H       0.2476   0.6819   0.9576     H
O       0.2497   0.0903   0.4161     O
O       0.2497   0.3258   0.9097     O
O       0.2497   0.5839   0.6742     O
H       0.2554   0.4706   0.3997     H
H       0.2554   0.6003   0.0709     H
H       0.2554   0.9291   0.5294     H
Mo     0.26839  0.17386  0.43057    Mo
Mo     0.26839  0.25671  0.82614    Mo
Mo     0.26839  0.56943  0.74329    Mo
O       0.2766   0.3409   0.0874     O
O       0.2766   0.7465   0.6591     O
O       0.2766   0.9126   0.2535     O
C        0.277    0.075   0.7249     C
C        0.277   0.2751   0.3501     C
C        0.277   0.6499    0.925     C
C       0.2792   0.4888   0.4377     C
C       0.2792   0.5623   0.0511     C
C       0.2792   0.9489   0.5112     C
O       0.2815   0.2131   0.7578     O
O       0.2815   0.2422   0.4553     O
O       0.2815   0.5447   0.7869     O
O       0.2847   0.1251   0.0258     O
O       0.2847   0.9007   0.8749     O
O       0.2847   0.9742   0.0993     O
O       0.2861    0.308   0.2319     O
O       0.2861   0.7681   0.0761     O
O       0.2861   0.9239    0.692     O
H        0.292   0.4614    0.448     H
H        0.292    0.552   0.0134     H
H        0.292   0.9866   0.5386     H
H       0.3155   0.1262   0.8053     H
H       0.3155   0.1947   0.3209     H
H       0.3155   0.6791   0.8738     H
P       0.3162   0.3202  0.12437     P
P       0.3162  0.80417   0.6798     P
P       0.3162  0.87563  0.19583     P
O       0.3183   0.0763   0.5429     O
O       0.3183   0.4571   0.5334     O
O       0.3183   0.4666   0.9237     O
H        0.324   0.0639   0.6917     H
H        0.324   0.3083   0.3722     H
H        0.324   0.6278   0.9361     H
O       0.3382   0.4161   0.2919     O
O       0.3382   0.7081   0.1242     O
O       0.3382   0.8758   0.5839     O
O       0.3579   0.3634   0.1809     O
O       0.3579   0.8175   0.6366     O
O       0.3579   0.8191   0.1825     O
C       0.3629   0.0915    0.504     C
C       0.3629   0.4125   0.9085     C
C       0.3629    0.496   0.5875     C
P       0.3646  0.16574  0.54183     P
P       0.3646  0.37609  0.83426     P
P       0.3646  0.45817  0.62391     P
C       0.3651   0.1054   0.7725     C
C       0.3651   0.2275   0.3329     C
C       0.3651   0.6671   0.8946     C
O       0.3658   0.2148   0.1361     O
O       0.3658   0.8639   0.0787     O
O       0.3658   0.9213   0.7852     O
O       0.3748   0.1857   0.5018     O
O       0.3748   0.3161   0.8143     O
O       0.3748   0.4982   0.6839     O
O       0.3792   0.2251   0.0467     O
O       0.3792   0.8216   0.7749     O
O       0.3792   0.9533   0.1784     O
H       0.3931    0.545   0.4322     H
H       0.3931   0.5678   0.1128     H
H       0.3931   0.8872    0.455     H
H        0.397   0.0444    0.788     H
H        0.397    0.212   0.2564     H
H        0.397   0.7436   0.9556     H
C       0.4027   0.5199   0.4456     C
C       0.4027   0.5544   0.0743     C
C       0.4027   0.9257   0.4801     C
O       0.4035   0.0936   0.2019     O
O       0.4035   0.1083   0.9064     O
O       0.4035   0.7981   0.8917     O
H       0.4166   0.1305    0.767     H
H       0.4166    0.233   0.3635     H
H       0.4166   0.6365   0.8695     H
H       0.4239   0.5162   0.0566     H
H       0.4239   0.5404   0.4838     H
H       0.4239   0.9434   0.4596     H
O       0.4244   0.1507   0.3964     O
O       0.4244   0.2457   0.8493     O
O       0.4244   0.6036   0.7543     O
Mo     0.42964   0.3599  0.25406    Mo
Mo     0.42964  0.74594  0.10584    Mo
Mo     0.42964  0.89416   0.6401    Mo
C       0.4427   0.2696    0.091     C
C       0.4427   0.8214   0.7304     C
C       0.4427    0.909   0.1786     C
C         0.45   0.0666   0.7789     C
C         0.45   0.2211   0.2877     C
C         0.45   0.7123   0.9334     C
O       0.4671   0.1874   0.5841     O
O       0.4671   0.3967   0.8126     O
O       0.4671   0.4159   0.6033     O
O       0.4714   0.0976   0.2886     O
O       0.4714    0.191   0.9024     O
O       0.4714   0.7114    0.809     O
H       0.4785    0.026   0.4567     H
H       0.4785   0.4307    0.974     H
H       0.4785   0.5433   0.5693     H
H       0.4797   0.4557   0.3775     H
H       0.4797   0.6225   0.0782     H
H       0.4797   0.9218   0.5443     H
H       0.4887   0.0426    0.744     H
H       0.4887    0.256   0.2986     H
H       0.4887   0.7014   0.9574     H
C       0.4916   0.0648   0.4792     C
C       0.4916   0.4144   0.9352     C
C       0.4916   0.5208   0.5856     C
O       0.4919   0.3473    0.302     O
O       0.4919    0.698   0.0453     O
O       0.4919   0.9547   0.6527     O
P      0.49233  0.24291  0.13512     P
P      0.49233  0.86488  0.10779     P
P      0.49233  0.89221  0.75709     P
P      0.50767  0.10779  0.24291     P
P      0.50767  0.13512  0.89221     P
P      0.50767  0.75709  0.86488     P
O       0.5081   0.0453   0.3473     O
O       0.5081    0.302   0.9547     O
O       0.5081   0.6527    0.698     O
C       0.5084   0.4792   0.4144     C
C       0.5084   0.5856   0.0648     C
C       0.5084   0.9352   0.5208     C
H       0.5113   0.2986   0.0426     H
H       0.5113    0.744   0.7014     H
H       0.5113   0.9574    0.256     H
H       0.5203   0.0782   0.4557     H
H       0.5203   0.3775   0.9218     H
H       0.5203   0.5443   0.6225     H
H       0.5215   0.4567   0.4307     H
H       0.5215   0.5693    0.026     H
H       0.5215    0.974   0.5433     H
O       0.5286   0.2886    0.191     O
O       0.5286    0.809   0.0976     O
O       0.5286   0.9024   0.7114     O
O       0.5329   0.5841   0.3967     O
O       0.5329   0.6033   0.1874     O
O       0.5329   0.8126   0.4159     O
C         0.55   0.2877   0.0666     C
C         0.55   0.7789   0.7123     C
C         0.55   0.9334   0.2211     C
C       0.5573    0.091   0.8214     C
C       0.5573   0.1786   0.2696     C
C       0.5573   0.7304    0.909     C
Mo     0.57036  0.10584   0.3599    Mo
Mo     0.57036  0.25406  0.89416    Mo
Mo     0.57036   0.6401  0.74594    Mo
O       0.5756   0.3964   0.2457     O
O       0.5756   0.7543   0.1507     O
O       0.5756   0.8493   0.6036     O
H       0.5761   0.0566   0.5404     H
H       0.5761   0.4596   0.5162     H
H       0.5761   0.4838   0.9434     H
H       0.5834   0.3635   0.1305     H
H       0.5834    0.767   0.6365     H
H       0.5834   0.8695    0.233     H
O       0.5965   0.2019   0.1083     O
O       0.5965   0.8917   0.0936     O
O       0.5965   0.9064   0.7981     O
C       0.5973   0.0743   0.5199     C
C       0.5973   0.4456   0.9257     C
C       0.5973   0.4801   0.5544     C
H        0.603   0.2564   0.0444     H
H        0.603    0.788   0.7436     H
H        0.603   0.9556    0.212     H
H       0.6069   0.1128    0.545     H
H       0.6069   0.4322   0.8872     H
H       0.6069    0.455   0.5678     H
O       0.6208   0.0467   0.8216     O
O       0.6208   0.1784   0.2251     O
O       0.6208   0.7749   0.9533     O
O       0.6252   0.5018   0.3161     O
O       0.6252   0.6839   0.1857     O
O       0.6252   0.8143   0.4982     O
O       0.6342   0.0787   0.2148     O
O       0.6342   0.1361   0.9213     O
O       0.6342   0.7852   0.8639     O
C       0.6349   0.3329   0.1054     C
C       0.6349   0.7725   0.6671     C
C       0.6349   0.8946   0.2275     C
P       0.6354  0.54183  0.37609     P
P       0.6354  0.62391  0.16574     P
P       0.6354  0.83426  0.45817     P
C       0.6371    0.504   0.4125     C
C       0.6371   0.5875   0.0915     C
C       0.6371   0.9085    0.496     C
O       0.6421   0.1809   0.8175     O
O       0.6421   0.1825   0.3634     O
O       0.6421   0.6366   0.8191     O
O       0.6618   0.1242   0.4161     O
O       0.6618   0.2919   0.8758     O
O       0.6618   0.5839   0.7081     O
H        0.676   0.3722   0.0639     H
H        0.676   0.6917   0.6278     H
H        0.676   0.9361   0.3083     H
O       0.6817   0.5334   0.0763     O
O       0.6817   0.5429   0.4666     O
O       0.6817   0.9237   0.4571     O
P       0.6838  0.12437  0.80417     P
P       0.6838  0.19583   0.3202     P
P       0.6838   0.6798  0.87563     P
H       0.6845   0.3209   0.1262     H
H       0.6845   0.8053   0.6791     H
H       0.6845   0.8738   0.1947     H
H        0.708   0.0134   0.4614     H
H        0.708    0.448   0.9866     H
H        0.708   0.5386    0.552     H
O       0.7139   0.0761    0.308     O
O       0.7139   0.2319   0.9239     O
O       0.7139    0.692   0.7681     O
O       0.7153   0.0258   0.9007     O
O       0.7153   0.0993   0.1251     O
O       0.7153   0.8749   0.9742     O
O       0.7185   0.4553   0.2131     O
O       0.7185   0.7578   0.5447     O
O       0.7185   0.7869   0.2422     O
C       0.7208   0.0511   0.4888     C
C       0.7208   0.4377   0.9489     C
C       0.7208   0.5112   0.5623     C
C        0.723   0.3501    0.075     C
C        0.723   0.7249   0.6499     C
C        0.723    0.925   0.2751     C
O       0.7234   0.0874   0.7465     O
O       0.7234   0.2535   0.3409     O
O       0.7234   0.6591   0.9126     O
Mo     0.73161  0.43057  0.25671    Mo
Mo     0.73161  0.74329  0.17386    Mo
Mo     0.73161  0.82614  0.56943    Mo
H       0.7446   0.0709   0.4706     H
H       0.7446   0.3997   0.9291     H
H       0.7446   0.5294   0.6003     H
O       0.7503   0.4161   0.3258     O
O       0.7503   0.6742   0.0903     O
O       0.7503   0.9097   0.5839     O
H       0.7524   0.3181   0.0424     H
H       0.7524   0.7243   0.6819     H
H       0.7524   0.9576   0.2757     H
P       0.7644  0.45271  0.38649     P
P       0.7644  0.61351  0.06622     P
P       0.7644  0.93378  0.54729     P
O       0.7647   0.4224   0.4173     O
O       0.7647   0.5827   0.0051     O
O       0.7647   0.9949   0.5776     O
Mo     0.76552  0.05877  0.86798    Mo
Mo     0.76552  0.13202  0.19079    Mo
Mo     0.76552  0.80921  0.94123    Mo
O        0.769   0.5692    0.393     O
O        0.769    0.607   0.1762     O
O        0.769   0.8238   0.4308     O
O       0.7911   0.1268   0.8439     O
O       0.7911   0.1561   0.2829     O
O       0.7911   0.7171   0.8732     O
H       0.7941   0.0525   0.5538     H
H       0.7941   0.4462   0.4987     H
H       0.7941   0.5013   0.9475     H
O       0.7981   0.4873   0.1305     O
O       0.7981   0.6432   0.5127     O
O       0.7981   0.8695   0.3568     O
H       0.8072   0.4115    0.135     H
H       0.8072   0.7235   0.5885     H
H       0.8072    0.865   0.2765     H
O       0.8089   0.2138   0.0044     O
O       0.8089   0.7906   0.7862     O
O       0.8089   0.9956   0.2094     O
Mo     0.81778  0.06358  0.25047    Mo
Mo     0.81778  0.18689  0.93642    Mo
Mo     0.81778  0.74953  0.81311    Mo
N       0.8264    0.055   0.5262     N
N       0.8264   0.4712    0.945     N
N       0.8264   0.4738   0.5288     N
O       0.8299   0.3758    0.222     O
O       0.8299    0.778   0.1538     O
O       0.8299   0.8462   0.6242     O
N       0.8331   0.3805   0.1067     N
N       0.8331   0.7262   0.6195     N
N       0.8331   0.8933   0.2738     N
Mo     0.84522  0.52573  0.10265    Mo
Mo     0.84522  0.57692  0.47427    Mo
Mo     0.84522  0.89735  0.42308    Mo
H       0.8661   0.0867   0.5389     H
H       0.8661   0.4522   0.9133     H
H       0.8661   0.4611   0.5478     H
O       0.8715   0.0798   0.1928     O
O       0.8715    0.113   0.9202     O
O       0.8715   0.8072    0.887     O
O       0.8719   0.0159   0.8205     O
O       0.8719   0.1795   0.1954     O
O       0.8719   0.8046   0.9841     O
H       0.8746   0.3611   0.1184     H
H       0.8746   0.7573   0.6389     H
H       0.8746   0.8816   0.2427     H
O       0.8781   0.4819   0.2989     O
O       0.8781   0.7011    0.183     O
O       0.8781    0.817   0.5181     O
H       0.8815   0.0281   0.5082     H
H       0.8815   0.4801   0.9719     H
H       0.8815   0.4918   0.5199     H
O       0.8834   0.4904   0.4017     O
O       0.8834   0.5983   0.0887     O
O       0.8834   0.9113   0.5096     O
H       0.8845   0.3876   0.0862     H
H       0.8845   0.6986   0.6124     H
H       0.8845   0.9138   0.3014     H
O       0.8892   0.1557   0.5046     O
O       0.8892   0.3489   0.8443     O
O       0.8892   0.4954   0.6511     O
O        0.919   0.4805   0.0433     O
O        0.919   0.5628   0.5195     O
O        0.919   0.9567   0.4372     O
Mo     0.96364  0.53388  0.35704    Mo
Mo     0.96364  0.64296  0.17684    Mo
Mo     0.96364  0.82316  0.46612    Mo
O       0.9651   0.0736     0.28     O
O       0.9651   0.2064   0.9264     O
O       0.9651     0.72   0.7936     O
O       0.9856   0.5631   0.1461     O
O       0.9856    0.583   0.4369     O
O       0.9856   0.8539    0.417     O
O       0.9869   0.5831   0.3405     O
O       0.9869   0.6595   0.2426     O
O       0.9869   0.7574   0.4169     O
