data_I
_chemical_name_common  '/home/zhangsd/repos/MofS-CGCNN/ML/data/WS24/clean_cifs/Cd_2-6-NDC_0_5_PCA'
_cell_length_a 15.38560
_cell_length_b 14.23750
_cell_length_c  6.91830
_cell_angle_alpha 90.00000
_cell_angle_beta  96.62280
_cell_angle_gamma 90.00000
_space_group_name_H-M_alt      'P 1'


loop_
_space_group_symop_operation_xyz
  'x, y, z' 

loop_
_atom_site_label
_atom_site_fract_x
_atom_site_fract_y
_atom_site_fract_z
_atom_site_type_symbol
C     0.001013 0.511416   0.5993     C
C     0.001013 0.988616   0.0993     C
C     0.061813 0.529916   0.2863     C
C     0.061813 0.970116   0.7863     C
H        0.063   0.5131   0.1561     H
H        0.063   0.9869   0.6561     H
C     0.063916   0.5772   0.6843     C
C     0.063916   0.9232   0.1843     C
H       0.0644   0.5939   0.8139     H
H       0.0644   0.9061   0.3139     H
C     0.120013 0.595217   0.3753     C
C     0.120013 0.904817   0.8753     C
C     0.122815 0.613118   0.5763     C
C     0.122815 0.886918   0.0763     C
H       0.1669   0.6514   0.6357     H
H       0.1669   0.8486   0.1357     H
C     0.187611 0.636313   0.2623     C
C     0.187611 0.863713   0.7623     C
O      0.19351 0.602711   0.0882     O
O      0.19351 0.897311   0.5882     O
O      0.23688  0.70059   0.3332     O
O      0.23688  0.79959   0.8332     O
Cd    0.313958 0.695908 0.0452518    Cd
Cd    0.313958 0.804108 0.5452518    Cd
H       0.3178   0.0178   0.7226     H
H       0.3178   0.4822   0.2226     H
O     0.338911 0.650414   0.7322     O
O     0.338911 0.849614   0.2322     O
C     0.377713 0.008113   0.7263     C
C     0.377713 0.491913   0.2263     C
H       0.3877   0.0306   0.2603     H
H       0.3877   0.4694   0.7603     H
N     0.407211 0.579011   0.1802     N
N     0.407211 0.921011   0.6802     N
H       0.4115   0.1396   0.8101     H
H       0.4115   0.3604   0.3101     H
C     0.414711 0.646313   0.6653     C
C     0.414711 0.853713   0.1653     C
C     0.433513 0.081413   0.7793     C
C     0.433513 0.418613   0.2793     C
O      0.43549  0.71039   0.5522     O
O      0.43549  0.78979   0.0522     O
C     0.447413 0.019914   0.2623     C
C     0.447413 0.480114   0.7623     C
C     0.478113 0.567613   0.7153     C
C     0.478113 0.932413   0.2153     C
H       0.4848   0.1496   0.3386     H
H       0.4848   0.3504   0.8386     H
C     0.493813 0.590613   0.1893     C
C     0.493813 0.909413   0.6893     C
C     0.506213 0.090613   0.3113     C
C     0.506213 0.409413   0.8113     C
H       0.5152   0.6496   0.1614     H
H       0.5152   0.8504   0.6614     H
C     0.521913 0.067613   0.7853     C
C     0.521913 0.432413   0.2853     C
C     0.552613 0.519914   0.2383     C
C     0.552613 0.980114   0.7383     C
O      0.56469  0.21039   0.9482     O
O      0.56469  0.28979   0.4482     O
C     0.566513 0.581413   0.7213     C
C     0.566513 0.918613   0.2213     C
C     0.585311 0.146313   0.8353     C
C     0.585311 0.353713   0.3353     C
H       0.5885   0.6396   0.6899     H
H       0.5885   0.8604   0.1899     H
N     0.592811 0.079011   0.3202     N
N     0.592811 0.421011   0.8202     N
H       0.6123   0.5306   0.2397     H
H       0.6123   0.9694   0.7397     H
C     0.622313 0.508113   0.7743     C
C     0.622313 0.991913   0.2743     C
O     0.661111 0.150414   0.7682     O
O     0.661111 0.349614   0.2682     O
H       0.6822   0.5178   0.7774     H
H       0.6822   0.9822   0.2774     H
Cd    0.686058 0.195908 0.4547518    Cd
Cd    0.686058 0.304108 0.9547518    Cd
O      0.76328  0.20059   0.1672     O
O      0.76328  0.29959   0.6672     O
O      0.80651 0.102711   0.4122     O
O      0.80651 0.397311   0.9122     O
C     0.812411 0.136313   0.2383     C
C     0.812411 0.363713   0.7383     C
H       0.8331   0.1514   0.8643     H
H       0.8331   0.3486   0.3643     H
C     0.877215 0.113118   0.9243     C
C     0.877215 0.386918   0.4243     C
C     0.880013 0.095217   0.1253     C
C     0.880013 0.404817   0.6253     C
H       0.9356   0.0939   0.6861     H
H       0.9356   0.4061   0.1861     H
C     0.936116   0.0772   0.8163     C
C     0.936116   0.4232   0.3163     C
H        0.937   0.0131   0.3439     H
H        0.937   0.4869   0.8439     H
C     0.938213 0.029916   0.2143     C
C     0.938213 0.470116   0.7143     C
C     0.999013 0.011416   0.9013     C
C     0.999013 0.488616   0.4013     C
