data_I
_chemical_name_common  '/home/zhangsd/repos/MofS-CGCNN/ML/data/WS24/clean_cifs/Cd_L2_Cl_H2O'
_cell_length_a  5.87512
_cell_length_b 15.06740
_cell_length_c 16.41650
_cell_angle_alpha 90.00000
_cell_angle_beta  90.00000
_cell_angle_gamma 90.00000
_space_group_name_H-M_alt      'P 1'


loop_
_space_group_symop_operation_xyz
  'x, y, z' 

loop_
_atom_site_label
_atom_site_fract_x
_atom_site_fract_y
_atom_site_fract_z
_atom_site_type_symbol
H       0.0119   0.9734   0.6674     H
H       0.0292   0.8871   0.2461     H
C      0.03278  0.01814  0.78294     C
H       0.0647     0.97   0.1237     H
C      0.06488  0.50504  0.79244     C
N      0.06897  0.56244  0.65672     N
C      0.09779  0.47364  0.38644     C
Cl     0.09912 0.030848 0.467419    Cl
C      0.10758  0.15114  0.15582     C
Cd    0.113005 0.08859518 0.96366116    Cd
C      0.11357  0.41234  0.24574     C
H       0.1181   0.2083   0.1827     H
C      0.12907  0.64054  0.38112     C
H       0.1315   0.1054   0.1965     H
H       0.1373   0.4249   0.4224     H
N      0.14437  0.55792  0.42982     N
H        0.152   0.3706   0.1308     H
O      0.16365  0.70742 0.5123817     O
H       0.1771   0.9949   0.7922     H
C      0.17877  0.71964  0.43682     C
H       0.1901   0.8104   0.5714     H
H       0.2133   0.4454   0.9514     H
O      0.21815  0.79172  0.40242     O
C      0.21908  0.46014  0.30734     C
O      0.21955  0.85522  0.59462     O
C      0.22388  0.40274  0.17184     C
H       0.2423   0.6387   0.3373     H
H       0.2577   0.3613   0.8373     H
C      0.27628  0.59734  0.67184     C
O      0.28055  0.14482  0.09462     O
C      0.28108  0.53994  0.80734     C
O      0.28195  0.20832  0.90242     O
H       0.2867   0.5546   0.4514     H
H       0.3101   0.1904   0.0714     H
C      0.32137  0.28044  0.93682     C
H       0.3229   0.0051   0.2922     H
O      0.33645  0.29262 0.0123817     O
H        0.348   0.6294   0.6308     H
N      0.35577  0.44212  0.92982     N
H       0.3627   0.5751   0.9224     H
H       0.3685   0.8946   0.6965     H
C      0.37107  0.35954  0.88112     C
H       0.3819   0.7917   0.6827     H
C      0.38657  0.58774  0.74574     C
Cd    0.387005 0.91140518 0.46366116    Cd
C      0.39258  0.84894  0.65582     C
Cl     0.40092 0.969168 0.967419    Cl
C      0.40239  0.52644  0.88644     C
N      0.43117  0.43764  0.15672     N
C      0.43528  0.49504  0.29244     C
H       0.4353     0.03   0.6237     H
C      0.46738  0.98194  0.28294     C
H       0.4708   0.1129   0.7461     H
H       0.4881   0.0266   0.1674     H
H       0.5119   0.5266   0.3326     H
H       0.5292   0.6129   0.7539     H
C      0.53278  0.48194  0.21714     C
H       0.5647     0.53   0.8763     H
C      0.56488  0.99504  0.20764     C
N      0.56897  0.93764  0.34332     N
C      0.59779  0.02644  0.61364     C
Cl     0.59912 0.469168 0.532599    Cl
C      0.60758  0.34894  0.84422     C
Cd    0.613005 0.41140518 0.03633916    Cd
C      0.61357  0.08774  0.75434     C
H       0.6181   0.2917   0.8173     H
C      0.62907  0.85954  0.61892     C
H       0.6315   0.3946   0.8035     H
H       0.6373   0.0751   0.5776     H
N      0.64437  0.94212  0.57022     N
H        0.652   0.1294   0.8692     H
O      0.66365  0.79262 0.4876217     O
H       0.6771   0.5051   0.2078     H
C      0.67877  0.78044  0.56322     C
H       0.6901   0.6904   0.4294     H
H       0.7133   0.0546   0.0486     H
O      0.71815  0.70832  0.59762     O
C      0.71908  0.03994  0.69274     C
O      0.71955  0.64482  0.40542     O
C      0.72388  0.09734  0.82824     C
H       0.7423   0.8613   0.6627     H
H       0.7577   0.1387   0.1627     H
C      0.77628  0.90274  0.32824     C
O      0.78055  0.35522  0.90542     O
C      0.78108  0.96014  0.19274     C
O      0.78195  0.29172  0.09762     O
H       0.7867   0.9454   0.5486     H
H       0.8101   0.3104   0.9294     H
C      0.82137  0.21964  0.06322     C
H       0.8229   0.4949   0.7078     H
O      0.83645  0.20742 0.9876217     O
H        0.848   0.8706   0.3692     H
N      0.85577  0.05792  0.07022     N
H       0.8627   0.9249   0.0776     H
H       0.8685   0.6054   0.3035     H
C      0.87107  0.14054  0.11892     C
H       0.8819   0.7083   0.3173     H
C      0.88657  0.91234  0.25434     C
Cd    0.887005 0.58859518 0.53633916    Cd
C      0.89258  0.65114  0.34422     C
Cl     0.90092 0.530848 0.032599    Cl
C      0.90239  0.97364  0.11364     C
N      0.93117  0.06244  0.84332     N
C      0.93528  0.00504  0.70764     C
H       0.9353     0.47   0.3763     H
C      0.96738  0.51814  0.71714     C
H       0.9708   0.3871   0.2539     H
H       0.9881   0.4734   0.8326     H
