data_I
_chemical_name_common  '/home/zhangsd/repos/MofS-CGCNN/ML/data/WS24/clean_cifs/CIKCEG'
_cell_length_a 10.14800
_cell_length_b 11.58389
_cell_length_c 11.79000
_cell_angle_alpha 104.22178
_cell_angle_beta  90.00000
_cell_angle_gamma 115.97776
_space_group_name_H-M_alt      'P 1'


loop_
_space_group_symop_operation_xyz
  'x, y, z' 

loop_
_atom_site_label
_atom_site_fract_x
_atom_site_fract_y
_atom_site_fract_z
_atom_site_type_symbol
C       0.0405    0.183   0.4232     C
C       0.0407   0.1818   0.5408     C
H        0.046    0.092   0.1896     H
H       0.0537   0.1074   0.9962     H
C       0.0874   0.1748   0.1739     C
O       0.0922   0.8848   0.1953     O
C        0.093    0.186   0.0571     C
O       0.0965    0.693   0.1754     O
C       0.1136   0.3838   0.5903     C
C        0.115    0.385   0.4727     C
N       0.1267   0.2822   0.6243     N
C       0.1295   0.2846   0.3891     C
C       0.1411   0.1818   0.5408     C
C       0.1425    0.183   0.4232     C
Cd     0.14337  0.28674  0.82554    Cd
C       0.1448   0.2896   0.2617     C
N       0.1493   0.2986   0.0281     N
C        0.159   0.8156   0.1841     C
C        0.166    0.572    0.839     C
C       0.2047   0.4094   0.1179     C
C       0.2051   0.4102   0.2346     C
O       0.2074   0.1152   0.8047     O
C       0.2385    0.705    0.818     C
H       0.2451   0.4902    0.294     H
H       0.2456   0.4912   0.1002     H
N       0.2598   0.5196   0.8696     N
C         0.27    0.385   0.4727     C
C       0.2702   0.3838   0.5903     C
H       0.2735   0.9426   0.8326     H
C       0.3231   0.8824   0.1784     C
H       0.3309   0.0574   0.1674     H
C       0.3434   0.1844   0.8159     C
H        0.366    0.732   0.1904     H
C       0.3751   0.9866   0.8313     C
C       0.3885   0.0134   0.1687     C
C       0.3914   0.7828   0.8519     C
C       0.3973   0.5926    0.886     C
O       0.4035    0.307   0.8246     O
C       0.4094   0.8188   0.1834     C
C       0.4407   0.1176   0.8216     C
C       0.4608   0.9216    0.839     C
C       0.4665    0.705    0.818     C
C       0.5273   0.2788   0.1231     C
C       0.5392   0.0784    0.161     C
C       0.5593   0.8824   0.1784     C
C       0.5906   0.1812   0.8166     C
C        0.594    0.428    0.161     C
O       0.5965    0.693   0.1754     O
C       0.6086   0.2172   0.1481     C
C       0.6115   0.9866   0.8313     C
C       0.6249   0.0134   0.1687     C
H        0.634    0.268   0.8096     H
C       0.6566   0.8156   0.1841     C
H       0.6691   0.9426   0.8326     H
C       0.6769   0.1176   0.8216     C
H       0.7265   0.0574   0.1674     H
C       0.7298   0.6162   0.4097     C
C         0.73    0.615   0.5273     C
N       0.7402   0.4804   0.1304     N
C       0.7515   0.2788   0.1231     C
H       0.7544   0.5088   0.8998     H
H       0.7549   0.5098    0.706     H
O       0.7926   0.8848   0.1953     O
C       0.7949   0.5898   0.7654     C
C       0.7953   0.5906   0.8821     C
C       0.8047   0.4074    0.114     C
C        0.841   0.1844   0.8159     C
N       0.8445   0.7178   0.3757     N
C       0.8449   0.7154   0.6109     C
N       0.8507   0.7014   0.9719     N
C       0.8552   0.7104   0.7383     C
Cd     0.85663  0.71326  0.17446    Cd
C       0.8575    0.817   0.5768     C
C       0.8589   0.8182   0.4592     C
C        0.885    0.615   0.5273     C
C       0.8864   0.6162   0.4097     C
O       0.9035    0.307   0.8246     O
C        0.907    0.814   0.9429     C
O       0.9078   0.1152   0.8047     O
C       0.9126   0.8252   0.8261     C
H       0.9463   0.8926   0.0038     H
H        0.954    0.908   0.8104     H
C       0.9593   0.8182   0.4592     C
C       0.9595    0.817   0.5768     C
