data_I
_chemical_name_common  '/home/zhangsd/repos/MofS-CGCNN/ML/data/WS24/clean_cifs/CIKCIK'
_cell_length_a  7.55250
_cell_length_b 10.22600
_cell_length_c 11.54675
_cell_angle_alpha 116.28322
_cell_angle_beta  90.00000
_cell_angle_gamma 90.00000
_space_group_name_H-M_alt      'P 1'


loop_
_space_group_symop_operation_xyz
  'x, y, z' 

loop_
_atom_site_label
_atom_site_fract_x
_atom_site_fract_y
_atom_site_fract_z
_atom_site_type_symbol
N       0.0663   0.1444   0.2888     N
H        0.088    0.166     0.47     H
H        0.088    0.304     0.47     H
H       0.1014   0.0519   0.1038     H
C       0.1603   0.0914   0.1828     C
C       0.1603   0.1509    0.393     C
C       0.1603   0.2421    0.393     C
C         0.19   0.5374   0.2886     C
C         0.19   0.7512   0.2886     C
C       0.1938   0.6084   0.4246     C
C       0.1938   0.8162   0.4246     C
O         0.25   0.0868   0.8722     O
O         0.25   0.0921   0.6846     O
C         0.25   0.1557    0.806     C
C         0.25   0.3195   0.8734     C
H         0.25   0.3307    0.053     H
H         0.25    0.359    0.718     H
C         0.25   0.3872   0.0082     C
C         0.25   0.4039   0.8078     C
C         0.25   0.5379   0.0758     C
C         0.25   0.5539   0.8734     C
O         0.25   0.5925   0.6846     O
C         0.25   0.6103   0.2206     C
C         0.25    0.621   0.0082     C
C         0.25   0.6503    0.806     C
H         0.25   0.7223    0.053     H
N         0.25   0.7456   0.4912     N
O         0.25   0.7854   0.8722     O
Cd        0.25  0.85655   0.7131    Cd
C       0.3062   0.6084   0.4246     C
C       0.3062   0.8162   0.4246     C
C         0.31   0.5374   0.2886     C
C         0.31   0.7512   0.2886     C
C       0.3397   0.0914   0.1828     C
C       0.3397   0.1509    0.393     C
C       0.3397   0.2421    0.393     C
H       0.3986   0.0519   0.1038     H
H        0.412    0.166     0.47     H
H        0.412    0.304     0.47     H
N       0.4337   0.1444   0.2888     N
N       0.5663   0.8556   0.7112     N
H        0.588    0.696     0.53     H
H        0.588    0.834     0.53     H
H       0.6014   0.9481   0.8962     H
C       0.6603   0.7579    0.607     C
C       0.6603   0.8491    0.607     C
C       0.6603   0.9086   0.8172     C
C         0.69   0.2488   0.7114     C
C         0.69   0.4626   0.7114     C
C       0.6938   0.1838   0.5754     C
C       0.6938   0.3916   0.5754     C
Cd        0.75  0.14345   0.2869    Cd
O         0.75   0.2146   0.1278     O
N         0.75   0.2544   0.5088     N
H         0.75   0.2777    0.947     H
C         0.75   0.3497    0.194     C
C         0.75    0.379   0.9918     C
C         0.75   0.3897   0.7794     C
O         0.75   0.4075   0.3154     O
C         0.75   0.4461   0.1266     C
C         0.75   0.4621   0.9242     C
C         0.75   0.5961   0.1922     C
C         0.75   0.6128   0.9918     C
H         0.75    0.641    0.282     H
H         0.75   0.6693    0.947     H
C         0.75   0.6805   0.1266     C
C         0.75   0.8443    0.194     C
O         0.75   0.9079   0.3154     O
O         0.75   0.9132   0.1278     O
C       0.8062   0.1838   0.5754     C
C       0.8062   0.3916   0.5754     C
C         0.81   0.2488   0.7114     C
C         0.81   0.4626   0.7114     C
C       0.8397   0.7579    0.607     C
C       0.8397   0.8491    0.607     C
C       0.8397   0.9086   0.8172     C
H       0.8986   0.9481   0.8962     H
H        0.912    0.696     0.53     H
H        0.912    0.834     0.53     H
N       0.9337   0.8556   0.7112     N
