data_I
_chemical_name_common  '/home/zhangsd/repos/MofS-CGCNN/ML/data/WS24/clean_cifs/Co-DOBDC'
_cell_length_a 25.88500
_cell_length_b 25.88500
_cell_length_c  6.80580
_cell_angle_alpha 90.00000
_cell_angle_beta  90.00000
_cell_angle_gamma 120.00000
_space_group_name_H-M_alt      'P 1'


loop_
_space_group_symop_operation_xyz
  'x, y, z' 

loop_
_atom_site_label
_atom_site_fract_x
_atom_site_fract_y
_atom_site_fract_z
_atom_site_type_symbol
O     0.004203 0.634097 0.800907     O
C     0.006067 0.546333 0.879633     C
C       0.0111   0.4553   0.9237     C
C     0.014067 0.593833 0.738633     C
C       0.0169   0.5018  0.80819     C
Co    0.019723 0.715167 0.691247    Co
O       0.0221   0.4144   0.8387     O
H       0.0284   0.5037   0.6778     H
Co    0.028777 0.646943 0.357913    Co
O     0.031967 0.594433 0.566733     O
O      0.03257  0.70344  0.13424     O
O     0.036773 0.337537 0.532427     O
Co      0.0485  0.36211  0.97542    Co
O     0.058967 0.311233 0.172033     O
O     0.072233 0.770867 0.900067     O
C     0.072833 0.753567 0.071967     C
O     0.081067 0.725633 0.494633     O
C       0.0869   0.3474   0.5947     C
O       0.1042   0.3653   0.7666     O
C     0.110867 0.322233 0.257033     C
C     0.120333 0.793067 0.212967     C
C     0.121967 0.777533 0.409633     C
C       0.1264   0.3394   0.4537     C
H     0.141967 0.304933 0.011133     H
C     0.151567 0.316433 0.141523     C
H     0.162967 0.858033 0.011133     H
C     0.164867 0.848433 0.141523     C
C     0.168467 0.818233 0.525143     C
H     0.170367 0.808633 0.655533     H
C     0.181767 0.350233 0.525143     C
H     0.191367 0.361733 0.655533     H
C     0.206933 0.327267 0.212967     C
C     0.211367 0.889133 0.257033     C
C        0.213   0.8736   0.4537     C
C     0.222467 0.344433 0.409633     C
O     0.229133 0.301367 0.900067     O
C     0.246433 0.319267 0.071967     C
O     0.252267 0.941033 0.172033     O
C       0.2605   0.9131   0.5947     C
O       0.2611   0.8958   0.7666     O
O     0.274367 0.355433 0.494633     O
Co    0.284833 0.304557 0.691247    Co
O      0.29656  0.32913  0.13424     O
O     0.300763 0.963227 0.532427     O
O     0.301367 0.072233 0.099933     O
Co    0.304557 0.019723 0.308753    Co
H     0.304933 0.162967 0.988867     H
O     0.311233 0.252267 0.827967     O
Co     0.31361   0.9515  0.97542    Co
C     0.316433 0.164867 0.858477     C
C     0.319267 0.072833 0.928033     C
C     0.322233 0.211367 0.742967     C
C     0.327267 0.120333 0.787033     C
O      0.32913  0.03257  0.86576     O
O     0.337537 0.300763 0.467573     O
C       0.3394    0.213   0.5463     C
C     0.344433 0.121967 0.590367     C
C       0.3474   0.2605   0.4053     C
C     0.350233 0.168467 0.474857     C
Co    0.353057 0.381833 0.357913    Co
O     0.355433 0.081067 0.505367     O
H     0.361733 0.170367 0.344467     H
Co     0.36211  0.31361  0.02458    Co
O       0.3653   0.2611   0.2334     O
O     0.365903 0.370107 0.800907     O
O     0.370107 0.004203 0.199093     O
Co    0.381833 0.028777 0.642087    Co
O       0.3923   0.9779   0.8387     O
O     0.405567 0.437533 0.566733     O
C     0.406167 0.420233 0.738633     C
O       0.4144   0.3923   0.1613     O
C     0.420233 0.014067 0.261367     C
O     0.437533 0.031967 0.433267     O
C       0.4442   0.9889   0.9237     C
C     0.453667 0.459733 0.879633     C
C       0.4553   0.4442   0.0763     C
C     0.459733 0.006067 0.120367     C
H       0.4753   0.9716   0.6778     H
C       0.4849   0.9831  0.80819     C
H       0.4963   0.5247   0.6778     H
C       0.4982   0.5151  0.80819     C
C       0.5018   0.4849  0.19181     C
H       0.5037   0.4753   0.3222     H
C       0.5151   0.0169  0.19181     C
H       0.5247   0.0284   0.3222     H
C     0.540267 0.993933 0.879633     C
C       0.5447   0.5558   0.9237     C
C     0.546333 0.540267 0.120367     C
C       0.5558   0.0111   0.0763     C
O     0.562467 0.968033 0.566733     O
C     0.579767 0.985933 0.738633     C
O       0.5856   0.6077   0.8387     O
C     0.593833 0.579767 0.261367     C
O     0.594433 0.562467 0.433267     O
O       0.6077   0.0221   0.1613     O
Co    0.618167 0.971223 0.357913    Co
O     0.629893 0.995797 0.800907     O
O     0.634097 0.629893 0.199093     O
O       0.6347   0.7389   0.7666     O
Co     0.63789  0.68639  0.97542    Co
H     0.638267 0.829633 0.655533     H
O     0.644567 0.918933 0.494633     O
Co    0.646943 0.618167 0.642087    Co
C     0.649767 0.831533 0.525143     C
C       0.6526   0.7395   0.5947     C
C     0.655567 0.878033 0.409633     C
C       0.6606    0.787   0.4537     C
O     0.662463 0.699237 0.532427     O
O      0.67087  0.96743  0.13424     O
C     0.672733 0.879667 0.212967     C
C     0.677767 0.788633 0.257033     C
C     0.680733 0.927167 0.071967     C
C     0.683567 0.835133 0.141523     C
Co     0.68639   0.0485  0.02458    Co
O     0.688767 0.747733 0.172033     O
H     0.695067 0.837033 0.011133     H
Co    0.695443 0.980277 0.691247    Co
O     0.698633 0.927767 0.900067     O
O     0.699237 0.036773 0.467573     O
O      0.70344  0.67087  0.86576     O
Co    0.715167 0.695443 0.308753    Co
O     0.725633 0.644567 0.505367     O
O       0.7389   0.1042   0.2334     O
C       0.7395   0.0869   0.4053     C
O     0.747733 0.058967 0.827967     O
C     0.753567 0.680733 0.928033     C
O     0.770867 0.698633 0.099933     O
C     0.777533 0.655567 0.590367     C
C        0.787   0.1264   0.5463     C
C     0.788633 0.110867 0.742967     C
C     0.793067 0.672733 0.787033     C
H     0.808633 0.638267 0.344467     H
C     0.818233 0.649767 0.474857     C
H     0.829633 0.191367 0.344467     H
C     0.831533 0.181767 0.474857     C
C     0.835133 0.151567 0.858477     C
H     0.837033 0.141967 0.988867     H
C     0.848433 0.683567 0.858477     C
H     0.858033 0.695067 0.988867     H
C       0.8736   0.6606   0.5463     C
C     0.878033 0.222467 0.590367     C
C     0.879667 0.206933 0.787033     C
C     0.889133 0.677767 0.742967     C
O       0.8958   0.6347   0.2334     O
C       0.9131   0.6526   0.4053     C
O     0.918933 0.274367 0.505367     O
C     0.927167 0.246433 0.928033     C
O     0.927767 0.229133 0.099933     O
O     0.941033 0.688767 0.827967     O
Co      0.9515  0.63789  0.02458    Co
O     0.963227 0.662463 0.467573     O
O      0.96743  0.29656  0.86576     O
O     0.968033 0.405567 0.433267     O
Co    0.971223 0.353057 0.642087    Co
H       0.9716   0.4963   0.3222     H
O       0.9779   0.5856   0.1613     O
Co    0.980277 0.284833 0.308753    Co
C       0.9831   0.4982  0.19181     C
C     0.985933 0.406167 0.261367     C
C       0.9889   0.5447   0.0763     C
C     0.993933 0.453667 0.120367     C
O     0.995797 0.365903 0.199093     O
