data_I
_chemical_name_common  '/home/zhangsd/repos/MofS-CGCNN/ML/data/WS24/clean_cifs/Co_L13_2'
_cell_length_a  8.40731
_cell_length_b 35.10860
_cell_length_c 11.49120
_cell_angle_alpha 90.00000
_cell_angle_beta  105.84230
_cell_angle_gamma 90.00000
_space_group_name_H-M_alt      'P 1'


loop_
_space_group_symop_operation_xyz
  'x, y, z' 

loop_
_atom_site_label
_atom_site_fract_x
_atom_site_fract_y
_atom_site_fract_z
_atom_site_type_symbol
H       0.0209   0.2082   0.4125     H
H       0.0209   0.2918   0.9125     H
H       0.0323    0.068   0.2599     H
H       0.0323    0.432   0.7599     H
C      0.04344 0.745609  0.97434     C
C      0.04344 0.754409  0.47434     C
C      0.05604 0.712901  0.04444     C
C      0.05604 0.787101  0.54444     C
C      0.07064 0.571159  0.83944     C
C      0.07064 0.928859  0.33944     C
C      0.07084 0.502539  0.85244     C
C      0.07084 0.997479  0.35244     C
C      0.09384 0.070349  0.72724     C
C      0.09384 0.429669  0.22724     C
C      0.09564 0.002469  0.71614     C
C      0.09564 0.497549  0.21614     C
C      0.09704 0.228079  0.03974     C
C      0.09704 0.271939  0.53974     C
H        0.108   0.2285   0.8675     H
H        0.108   0.2715   0.3675     H
O      0.10944 0.635437  0.79452     O
O      0.10944 0.864577  0.29452     O
C      0.12304 0.067141  0.32764     C
C      0.12304 0.432861  0.82764     C
H        0.131   0.1819   0.7293     H
H        0.131   0.3181   0.2293     H
H       0.1338   0.2191   0.2182     H
H       0.1338   0.2809   0.7182     H
H       0.1483    0.093   0.7544     H
H       0.1483    0.407   0.2544     H
C      0.14984 0.537219  0.88104     C
C      0.14984 0.962799  0.38104     C
H       0.1506   0.5206   0.2363     H
H       0.1506   0.9794   0.7363     H
C      0.15884 0.218721  0.94384     C
C      0.15884 0.281281  0.44384     C
C      0.16234 0.033529  0.39144     C
C      0.16234 0.466489  0.89144     C
C      0.16284 0.608119  0.86204     C
C      0.16284 0.891899  0.36204     C
C      0.16804 0.748261  0.41804     C
C      0.16804 0.751741  0.91804     C
H       0.1684   0.7263   0.3727     H
H       0.1684   0.7737   0.8727     H
C      0.17454 0.213219  0.15284     C
C      0.17454 0.286799  0.65284     C
C      0.17844 0.035981  0.75384     C
C      0.17844 0.464021  0.25384     C
C      0.18184 0.687549  0.05014     C
C      0.18184 0.812469  0.55014     C
H       0.1858   0.6656   0.0959     H
H       0.1858   0.8344   0.5959     H
H       0.1866   0.1212   0.3173     H
H       0.1866   0.3788   0.8173     H
C      0.21635 0.0991711  0.36324     C
C      0.21635 0.4008311  0.86324     C
H       0.2265    0.164   0.5703     H
H       0.2265    0.336   0.0703     H
C      0.24384 0.178431  0.74034     C
C      0.24384 0.321571  0.24034     C
H       0.2585   0.5378   0.9291     H
H       0.2585   0.9622   0.4291     H
C      0.29074 0.724881  0.93024     C
C      0.29074 0.775121  0.43024     C
O      0.29362 0.608296  0.95092     O
O      0.29362 0.891716  0.45092     O
C      0.29454 0.195199  0.95864     C
C      0.29454 0.304819  0.45864     C
C      0.29534 0.035461  0.49314     C
C      0.29534 0.464541  0.99314     C
N      0.29954 0.692777  0.99282     N
N      0.29954 0.807237  0.49282     N
C      0.30264 0.167711  0.64514     C
C      0.30264 0.332291  0.14514     C
N      0.30285 0.5367217  0.56315     N
N      0.30285 0.9632817  0.06315     N
H       0.3093   0.0128   0.1366     H
H       0.3093   0.4872   0.6366     H
C      0.31084 0.189879  0.16984     C
C      0.31084 0.310139  0.66984     C
H       0.3201   0.6642   0.7293     H
H       0.3201   0.8358   0.2293     H
H       0.3261    0.014   0.5417     H
H       0.3261    0.486   0.0417     H
O      0.34074 0.184256 0.3807618     O
O      0.34074 0.315756 0.8807618     O
N      0.34784 0.100747  0.46012     N
N      0.34784 0.399267  0.96012     N
C      0.35394 0.184049  0.85284     C
C      0.35394 0.315969  0.35284     C
H       0.3547   0.5861   0.5049     H
H       0.3547   0.9139   0.0049     H
C      0.35744 0.035771  0.82054     C
C      0.35744 0.464231  0.32054     C
H       0.3651   0.0864   0.9047     H
H       0.3651   0.4136   0.4047     H
C      0.37194 0.181019  0.07264     C
C      0.37194 0.318999  0.57264     C
H       0.3731   0.7295    0.892     H
H       0.3731   0.7705    0.392     H
C      0.37467 0.5078818  0.62895     C
C      0.37467 0.9921218  0.12895     C
C      0.38204 0.068631  0.52294     C
C      0.38204 0.431371  0.02294     C
C      0.38934 0.173779  0.29154     C
C      0.38934 0.326239  0.79154     C
H       0.4014   0.6814   0.5635     H
H       0.4014   0.8186   0.0635     H
C      0.40167 0.5653118  0.55217     C
C      0.40167 0.9346918  0.05217     C
H       0.4152   0.5151   0.2669     H
H       0.4152   0.9849   0.7669     H
C      0.42915 0.0659613  0.89295     C
C      0.42915 0.4340413  0.39295     C
C      0.43234 0.667741  0.73774     C
C      0.43234 0.832261  0.23774     C
C      0.45865 0.0063013  0.81244     C
C      0.45865 0.4937013  0.31244     C
N      0.46254 0.162247  0.65322     N
N      0.46254 0.337767  0.15322     N
H       0.4647   0.1656   0.0838     H
H       0.4647   0.3344   0.5838     H
H        0.471   0.0687    0.592     H
H        0.471   0.4313    0.092     H
Co    0.474255 0.64781411 0.003773    Co
Co    0.474255 0.85218611 0.503773    Co
C      0.47994 0.678221  0.63754     C
C      0.47994 0.821781  0.13754     C
O      0.49704 0.649386 0.1962118     O
O      0.49704 0.850626 0.6962118     O
O      0.50304 0.149386 0.3037918     O
O      0.50304 0.350626 0.8037918     O
C      0.52014 0.178221  0.86254     C
C      0.52014 0.321781  0.36254     C
Co    0.525755 0.14781411 0.496233    Co
Co    0.525755 0.35218611 0.996233    Co
H        0.529   0.5687    0.908     H
H        0.529   0.9313    0.408     H
H       0.5353   0.6656   0.4162     H
H       0.5353   0.8344   0.9162     H
N      0.53754 0.662247  0.84682     N
N      0.53754 0.837767  0.34682     N
C      0.54145 0.5063013  0.68764     C
C      0.54145 0.9937013  0.18764     C
C      0.56774 0.167741  0.76234     C
C      0.56774 0.332261  0.26234     C
C      0.57095 0.5659613  0.60715     C
C      0.57095 0.9340413  0.10715     C
H       0.5848   0.0151   0.2331     H
H       0.5848   0.4849   0.7331     H
C      0.59847 0.0653118  0.94797     C
C      0.59847 0.4346918  0.44797     C
H       0.5986   0.1814   0.9365     H
H       0.5986   0.3186   0.4365     H
C      0.61074 0.673779  0.20854     C
C      0.61074 0.826239  0.70854     C
C      0.61804 0.568631  0.97714     C
C      0.61804 0.931371  0.47714     C
C      0.62547 0.0078818  0.87115     C
C      0.62547 0.4921218  0.37115     C
H       0.6269   0.2295    0.608     H
H       0.6269   0.2705    0.108     H
C      0.62814 0.681019  0.42744     C
C      0.62814 0.818999  0.92744     C
H       0.6349   0.5864   0.5953     H
H       0.6349   0.9136   0.0953     H
C      0.64264 0.535771  0.67954     C
C      0.64264 0.964231  0.17954     C
H       0.6453   0.0861   0.9951     H
H       0.6453   0.4139   0.4951     H
C      0.64614 0.684049  0.64724     C
C      0.64614 0.815969  0.14724     C
N      0.65224 0.600747  0.03992     N
N      0.65224 0.899267  0.53992     N
O      0.65934 0.684256 0.1192418     O
O      0.65934 0.815756 0.6192418     O
H       0.6739    0.514   0.9583     H
H       0.6739    0.986   0.4583     H
H       0.6799   0.1642   0.7707     H
H       0.6799   0.3358   0.2707     H
C      0.68924 0.689879  0.33024     C
C      0.68924 0.810139  0.83024     C
H       0.6907   0.5128   0.3634     H
H       0.6907   0.9872   0.8634     H
N      0.69725 0.0367217  0.93695     N
N      0.69725 0.4632817  0.43695     N
C      0.69744 0.667711  0.85494     C
C      0.69744 0.832291  0.35494     C
N      0.70054 0.192777  0.50722     N
N      0.70054 0.307237  0.00722     N
C      0.70474 0.535461  0.00694     C
C      0.70474 0.964541  0.50694     C
C      0.70554 0.695199  0.54144     C
C      0.70554 0.804819  0.04144     C
O      0.70642 0.108296  0.54912     O
O      0.70642 0.391716  0.04912     O
C      0.70934 0.224881  0.56984     C
C      0.70934 0.275121  0.06984     C
H       0.7415   0.0378   0.5709     H
H       0.7415   0.4622   0.0709     H
C      0.75624 0.678431  0.75974     C
C      0.75624 0.821571  0.25974     C
H       0.7735    0.664   0.9297     H
H       0.7735    0.836   0.4297     H
C      0.78375 0.5991711  0.13684     C
C      0.78375 0.9008311  0.63684     C
H       0.8134   0.6212   0.1827     H
H       0.8134   0.8788   0.6827     H
H       0.8142   0.1656   0.4041     H
H       0.8142   0.3344   0.9041     H
C      0.81824 0.187549  0.44994     C
C      0.81824 0.312469  0.94994     C
C      0.82164 0.535981  0.74624     C
C      0.82164 0.964021  0.24624     C
C      0.82554 0.713219  0.34724     C
C      0.82554 0.786799  0.84724     C
H       0.8316   0.2263   0.1273     H
H       0.8316   0.2737   0.6273     H
C      0.83204 0.248261  0.08204     C
C      0.83204 0.251741  0.58204     C
C      0.83724 0.108119  0.63804     C
C      0.83724 0.391899  0.13804     C
C      0.83774 0.533529  0.10864     C
C      0.83774 0.966489  0.60864     C
C      0.84124 0.718721  0.55624     C
C      0.84124 0.781281  0.05624     C
H       0.8494   0.0206   0.2637     H
H       0.8494   0.4794   0.7637     H
C      0.85024 0.037219  0.61904     C
C      0.85024 0.462799  0.11904     C
H       0.8517    0.593   0.7456     H
H       0.8517    0.907   0.2456     H
H       0.8662   0.7191   0.2818     H
H       0.8662   0.7809   0.7818     H
H        0.869   0.6819   0.7707     H
H        0.869   0.8181   0.2707     H
C      0.87704 0.567141  0.17244     C
C      0.87704 0.932861  0.67244     C
O      0.89064 0.135437  0.70552     O
O      0.89064 0.364577  0.20552     O
H        0.892   0.7285   0.6325     H
H        0.892   0.7715   0.1325     H
C      0.90304 0.728079  0.46034     C
C      0.90304 0.771939  0.96034     C
C      0.90444 0.502469  0.78394     C
C      0.90444 0.997549  0.28394     C
C      0.90624 0.570349  0.77284     C
C      0.90624 0.929669  0.27284     C
C      0.92924 0.002539  0.64764     C
C      0.92924 0.497479  0.14764     C
C      0.92944 0.071159  0.66064     C
C      0.92944 0.428859  0.16064     C
C      0.94404 0.212901  0.45564     C
C      0.94404 0.287101  0.95564     C
C      0.95664 0.245609  0.52574     C
C      0.95664 0.254409  0.02574     C
H       0.9677    0.568   0.2401     H
H       0.9677    0.932   0.7401     H
H       0.9791   0.7082   0.0875     H
H       0.9791   0.7918   0.5875     H
