data_I
_chemical_name_common  '/home/zhangsd/repos/MofS-CGCNN/ML/data/WS24/clean_cifs/COWLAC01'
_cell_length_a  8.86590
_cell_length_b  9.57690
_cell_length_c 13.33700
_cell_angle_alpha 90.00000
_cell_angle_beta  102.91000
_cell_angle_gamma 90.00000
_space_group_name_H-M_alt      'P 1'


loop_
_space_group_symop_operation_xyz
  'x, y, z' 

loop_
_atom_site_label
_atom_site_fract_x
_atom_site_fract_y
_atom_site_fract_z
_atom_site_type_symbol
Cd         0.0      0.0      0.0    Cd
Cd         0.0      0.5      0.5    Cd
N       0.0289   0.7339   0.8529     N
N       0.0289   0.7661   0.3529     N
H        0.053    0.534     0.12     H
H        0.053    0.966     0.62     H
H        0.075    0.669    0.102     H
H        0.075    0.831    0.602     H
N       0.1035    0.678   0.4205     N
N       0.1035    0.822   0.9205     N
N       0.1096   0.5992   0.1073     N
N       0.1096   0.9008   0.6073     N
O       0.1148   0.1556   0.9097     O
O       0.1148   0.3444   0.4097     O
N       0.1244   0.6326   0.8347     N
N       0.1244   0.8674   0.3347     N
H        0.165    0.521    0.682     H
H        0.165    0.979    0.182     H
O       0.1983   0.0148   0.1396     O
O       0.1983   0.4852   0.6396     O
Cd     0.24567  0.23908  0.19497    Cd
Cd     0.24567  0.26092  0.69497    Cd
C       0.2514   0.5908   0.1723     C
C       0.2514   0.9092   0.6723     C
N       0.2535   0.7166   0.4495     N
N       0.2535   0.7834   0.9495     N
C       0.2615   0.6651   0.8957     C
C       0.2615   0.8349   0.3957     C
S      0.26959  0.21388  0.94871     S
S      0.26959  0.28612  0.44871     S
O       0.2701    0.192   0.5358     O
O       0.2701    0.308   0.0358     O
N       0.3048   0.0236   0.7266     N
N       0.3048   0.4764   0.2266     N
O       0.3163   0.2055   0.3665     O
O       0.3163   0.2945   0.8665     O
N       0.3557   0.6948   0.1895     N
N       0.3557   0.8052   0.6895     N
O       0.3843   0.1016   0.9816     O
O       0.3843   0.3984   0.4816     O
H        0.387    0.522    0.889     H
H        0.387    0.978    0.389     H
Cd     0.39155  0.60745  0.59239    Cd
Cd     0.39155  0.89255  0.09239    Cd
N       0.3935   0.5904   0.9028     N
N       0.3935   0.9096   0.4028     N
N       0.4473   0.5146   0.2808     N
N       0.4473   0.9854   0.7808     N
N       0.4779   0.6421   0.2593     N
N       0.4779   0.8579   0.7593     N
H        0.485    0.619     0.94     H
H        0.485    0.881     0.44     H
H        0.515    0.119     0.56     H
H        0.515    0.381     0.06     H
N       0.5221   0.1421   0.2407     N
N       0.5221   0.3579   0.7407     N
N       0.5527   0.0146   0.2192     N
N       0.5527   0.4854   0.7192     N
N       0.6065   0.0904   0.5972     N
N       0.6065   0.4096   0.0972     N
Cd     0.60845  0.10745  0.90761    Cd
Cd     0.60845  0.39255  0.40761    Cd
H        0.613    0.022    0.611     H
H        0.613    0.478    0.111     H
O       0.6157   0.6016   0.5184     O
O       0.6157   0.8984   0.0184     O
N       0.6443   0.1948   0.3105     N
N       0.6443   0.3052   0.8105     N
O       0.6837   0.7055   0.1335     O
O       0.6837   0.7945   0.6335     O
N       0.6952   0.5236   0.7734     N
N       0.6952   0.9764   0.2734     N
O       0.7299    0.692   0.9642     O
O       0.7299    0.808   0.4642     O
S      0.73041  0.71388  0.55129     S
S      0.73041  0.78612  0.05129     S
C       0.7385   0.1651   0.6043     C
C       0.7385   0.3349   0.1043     C
N       0.7465   0.2166   0.0505     N
N       0.7465   0.2834   0.5505     N
C       0.7486   0.0908   0.3277     C
C       0.7486   0.4092   0.8277     C
Cd     0.75433  0.73908  0.30503    Cd
Cd     0.75433  0.76092  0.80503    Cd
O       0.8017   0.5148   0.3604     O
O       0.8017   0.9852   0.8604     O
H        0.835    0.021    0.818     H
H        0.835    0.479    0.318     H
N       0.8756   0.1326   0.6653     N
N       0.8756   0.3674   0.1653     N
O       0.8852   0.6556   0.5903     O
O       0.8852   0.8444   0.0903     O
N       0.8904   0.0992   0.3927     N
N       0.8904   0.4008   0.8927     N
N       0.8965    0.178   0.0795     N
N       0.8965    0.322   0.5795     N
H        0.925    0.169    0.398     H
H        0.925    0.331    0.898     H
H        0.947    0.034     0.38     H
H        0.947    0.466     0.88     H
N       0.9711   0.2339   0.6471     N
N       0.9711   0.2661   0.1471     N
