data_I
_chemical_name_common  '/home/zhangsd/repos/MofS-CGCNN/ML/data/WS24/clean_cifs/COWWUH'
_cell_length_a 18.69200
_cell_length_b 22.29200
_cell_length_c 22.29200
_cell_angle_alpha 90.00000
_cell_angle_beta  90.00000
_cell_angle_gamma 90.00000
_space_group_name_H-M_alt      'P 1'


loop_
_space_group_symop_operation_xyz
  'x, y, z' 

loop_
_atom_site_label
_atom_site_fract_x
_atom_site_fract_y
_atom_site_fract_z
_atom_site_type_symbol
C       0.0018   0.1774  0.61072     C
C       0.0018   0.3226  0.88928     C
C       0.0018  0.61072   0.3226     C
C       0.0018  0.88928   0.1774     C
N      0.00405  0.22637  0.93403     N
N      0.00405  0.27363  0.56597     N
N      0.00405  0.56597  0.22637     N
N      0.00405  0.93403  0.27363     N
H        0.005   0.5775   0.6046     H
H        0.005   0.6046   0.9225     H
H        0.005   0.8954   0.5775     H
H        0.005   0.9225   0.8954     H
H       0.0087   0.6406   0.6861     H
H       0.0087   0.6861   0.8594     H
H       0.0087   0.8139   0.6406     H
H       0.0087   0.8594   0.8139     H
H       0.0132   0.1549   0.6445     H
H       0.0132   0.3451   0.8555     H
H       0.0132   0.6445   0.3451     H
H       0.0132   0.8555   0.1549     H
C       0.0231  0.14874  0.15507     C
C       0.0231  0.15507  0.35126     C
C       0.0231  0.34493  0.14874     C
C       0.0231  0.35126  0.34493     C
C      0.02392  0.10559  0.38857     C
C      0.02392  0.11143  0.10559     C
C      0.02392  0.38857  0.39441     C
C      0.02392  0.39441  0.11143     C
C        0.024  0.23771  0.60392     C
C        0.024  0.26229  0.89608     C
C        0.024  0.60392  0.26229     C
C        0.024  0.89608  0.23771     C
C       0.0349  0.01991  0.74895     C
C       0.0349  0.48009  0.75105     C
C       0.0349  0.74895  0.48009     C
C       0.0349  0.75105  0.01991     C
C      0.03834  0.06346  0.84606     C
C      0.03834  0.43654  0.65394     C
C      0.03834  0.65394  0.06346     C
C      0.03834  0.84606  0.43654     C
H       0.0421   0.1433   0.9388     H
H       0.0421   0.3567   0.5612     H
H       0.0421   0.5612   0.1433     H
H       0.0421   0.9388   0.3567     H
H       0.0476   0.5114   0.7765     H
H       0.0476   0.7235   0.5114     H
H       0.0476   0.7765   0.9886     H
H       0.0476   0.9886   0.7235     H
N       0.0535   0.1071  0.94788     N
N       0.0535   0.3929  0.55212     N
N       0.0535  0.55212   0.1071     N
N       0.0535  0.94788   0.3929     N
C      0.05633  0.01746  0.80729     C
C      0.05633  0.48254  0.69271     C
C      0.05633  0.69271  0.01746     C
C      0.05633  0.80729  0.48254     C
H       0.0576   0.2484   0.8686     H
H       0.0576   0.2516   0.6314     H
H       0.0576   0.6314   0.2484     H
H       0.0576   0.8686   0.2516     H
C      0.05788  0.06037  0.91079     C
C      0.05788  0.43963  0.58921     C
C      0.05788  0.58921  0.06037     C
C      0.05788  0.91079  0.43963     C
O        0.059     0.75     0.75     O
Cd     0.06473     0.25     0.25    Cd
N      0.06607  0.16001   0.3043     N
N      0.06607   0.1957  0.16001     N
N      0.06607   0.3043  0.33999     N
N      0.06607  0.33999   0.1957     N
C      0.06842  0.05706  0.37508     C
C      0.06842  0.12492  0.05706     C
C      0.06842  0.37508  0.44294     C
C      0.06842  0.44294  0.12492     C
C       0.0712  0.00435  0.41485     C
C       0.0712  0.08515  0.00435     C
C       0.0712  0.41485  0.49565     C
C       0.0712  0.49565  0.08515     C
H       0.0761   0.7094   0.7507     H
H       0.0761   0.7145   0.7303     H
H       0.0761   0.7303   0.7855     H
H       0.0761   0.7493   0.7094     H
H       0.0761   0.7507   0.7906     H
H       0.0761   0.7697   0.7145     H
H       0.0761   0.7855   0.7697     H
H       0.0761   0.7906   0.7493     H
N      0.07784  0.00989  0.93661     N
N      0.07784  0.49011  0.56339     N
N      0.07784  0.56339  0.00989     N
N      0.07784  0.93661  0.49011     N
H       0.0829    0.515    0.679     H
H       0.0829    0.679    0.985     H
H       0.0829    0.821    0.515     H
H       0.0829    0.985    0.821     H
C       0.0851  0.02452  0.99629     C
C       0.0851  0.47548  0.50371     C
C       0.0851  0.50371  0.02452     C
C       0.0851  0.99629  0.47548     C
H       0.1048   0.5157   0.9086     H
H       0.1048   0.5914   0.5157     H
H       0.1048   0.9086   0.9843     H
H       0.1048   0.9843   0.5914     H
C      0.10656  0.11348  0.29101     C
C      0.10656  0.20899  0.11348     C
C      0.10656  0.29101  0.38652     C
C      0.10656  0.38652  0.20899     C
C      0.10941  0.06173  0.32412     C
C      0.10941  0.17588  0.06173     C
C      0.10941  0.32412  0.43827     C
C      0.10941  0.43827  0.17588     C
C      0.11274  0.03912  0.51928     C
C      0.11274  0.46088  0.98072     C
C      0.11274  0.51928  0.46088     C
C      0.11274  0.98072  0.03912     C
C       0.1193  0.02228  0.57913     C
C       0.1193  0.47772  0.92087     C
C       0.1193  0.57913  0.47772     C
C       0.1193  0.92087  0.02228     C
H       0.1318   0.0345   0.1101     H
H       0.1318   0.1101   0.4655     H
H       0.1318   0.3899   0.0345     H
H       0.1318   0.4655   0.3899     H
C      0.13469  0.09627  0.50479     C
C      0.13469  0.40373  0.99521     C
C      0.13469  0.50479  0.40373     C
C      0.13469  0.99521  0.09627     C
H       0.1351   0.1159   0.2569     H
H       0.1351   0.2431   0.1159     H
H       0.1351   0.2569   0.3841     H
H       0.1351   0.3841   0.2431     H
H       0.1387   0.0302   0.3122     H
H       0.1387   0.1878   0.0302     H
H       0.1387   0.3122   0.4698     H
H       0.1387   0.4698   0.1878     H
C      0.14677  0.06125  0.61938     C
C      0.14677  0.43875  0.88062     C
C      0.14677  0.61938  0.43875     C
C      0.14677  0.88062  0.06125     C
H       0.1501    0.049   0.6592     H
H       0.1501    0.451   0.8408     H
H       0.1501   0.6592    0.451     H
H       0.1501   0.8408    0.049     H
C      0.16152  0.13317   0.5505     C
C      0.16152  0.36683   0.9495     C
C      0.16152   0.5505  0.36683     C
C      0.16152   0.9495  0.13317     C
N      0.16909  0.11557  0.60571     N
N      0.16909  0.38443  0.89429     N
N      0.16909  0.60571  0.38443     N
N      0.16909  0.89429  0.11557     N
H       0.1746   0.1722   0.5408     H
H       0.1746   0.3278   0.9592     H
H       0.1746   0.5408   0.3278     H
H       0.1746   0.9592   0.1722     H
O        0.196     0.25     0.25     O
O      0.19962    0.098  0.75085     O
O      0.19962    0.402  0.74915     O
O      0.19962  0.74915    0.098     O
O      0.19962  0.75085    0.402     O
O      0.20348  0.24024  0.84221     O
O      0.20348  0.25976  0.65779     O
O      0.20348  0.65779  0.24024     O
O      0.20348  0.84221  0.25976     O
H       0.2112   0.2141   0.2506     H
H       0.2112   0.2192   0.2685     H
H       0.2112   0.2315   0.2192     H
H       0.2112   0.2494   0.2141     H
H       0.2112   0.2506   0.2859     H
H       0.2112   0.2685   0.2808     H
H       0.2112   0.2808   0.2315     H
H       0.2112   0.2859   0.2494     H
H       0.2416   0.0165   0.8388     H
H       0.2416   0.4835   0.6612     H
H       0.2416   0.6612   0.0165     H
H       0.2416   0.8388   0.4835     H
H       0.2421   0.5073   0.5625     H
H       0.2421   0.5625   0.9927     H
H       0.2421   0.9375   0.5073     H
H       0.2421   0.9927   0.9375     H
C      0.24458  0.04694   0.8672     C
C      0.24458  0.45306   0.6328     C
C      0.24458   0.6328  0.04694     C
C      0.24458   0.8672  0.45306     C
C      0.24628  0.03271  0.92606     C
C      0.24628  0.46729  0.57394     C
C      0.24628  0.57394  0.03271     C
C      0.24628  0.92606  0.46729     C
C      0.24644  0.12065  0.78358     C
C      0.24644  0.37935  0.71642     C
C      0.24644  0.71642  0.12065     C
C      0.24644  0.78358  0.37935     C
C      0.24724  0.10777  0.84779     C
C      0.24724  0.39223  0.65221     C
C      0.24724  0.65221  0.10777     C
C      0.24724  0.84779  0.39223     C
Cd        0.25 0.168466 0.668466    Cd
Cd        0.25 0.331534 0.831534    Cd
Cd        0.25 0.668466 0.331534    Cd
Cd        0.25 0.831534 0.168466    Cd
C      0.25276  0.15221  0.89223     C
C      0.25276  0.34779  0.60777     C
C      0.25276  0.60777  0.15221     C
C      0.25276  0.89223  0.34779     C
C      0.25356  0.21642  0.87935     C
C      0.25356  0.28358  0.62065     C
C      0.25356  0.62065  0.21642     C
C      0.25356  0.87935  0.28358     C
C      0.25372  0.07394  0.96729     C
C      0.25372  0.42606  0.53271     C
C      0.25372  0.53271  0.07394     C
C      0.25372  0.96729  0.42606     C
C      0.25542   0.1328  0.95306     C
C      0.25542   0.3672  0.54694     C
C      0.25542  0.54694   0.1328     C
C      0.25542  0.95306   0.3672     C
H       0.2579   0.0073   0.4375     H
H       0.2579   0.0625   0.0073     H
H       0.2579   0.4375   0.4927     H
H       0.2579   0.4927   0.0625     H
H       0.2584   0.1612   0.9835     H
H       0.2584   0.3388   0.5165     H
H       0.2584   0.5165   0.1612     H
H       0.2584   0.9835   0.3388     H
H       0.2888   0.7141   0.7494     H
H       0.2888   0.7192   0.7315     H
H       0.2888   0.7315   0.7808     H
H       0.2888   0.7494   0.7859     H
H       0.2888   0.7506   0.7141     H
H       0.2888   0.7685   0.7192     H
H       0.2888   0.7808   0.7685     H
H       0.2888   0.7859   0.7506     H
O      0.29652  0.15779  0.75976     O
O      0.29652  0.34221  0.74024     O
O      0.29652  0.74024  0.15779     O
O      0.29652  0.75976  0.34221     O
O      0.30038  0.24915    0.902     O
O      0.30038  0.25085    0.598     O
O      0.30038    0.598  0.24915     O
O      0.30038    0.902  0.25085     O
O        0.304     0.75     0.75     O
H       0.3254   0.0408   0.6722     H
H       0.3254   0.4592   0.8278     H
H       0.3254   0.6722   0.4592     H
H       0.3254   0.8278   0.0408     H
N      0.33091  0.10571  0.61557     N
N      0.33091  0.39429  0.88443     N
N      0.33091  0.61557  0.39429     N
N      0.33091  0.88443  0.10571     N
C      0.33848   0.0505  0.63317     C
C      0.33848   0.4495  0.86683     C
C      0.33848  0.63317   0.4495     C
C      0.33848  0.86683   0.0505     C
H       0.3499   0.1592    0.549     H
H       0.3499   0.3408    0.951     H
H       0.3499    0.549   0.3408     H
H       0.3499    0.951   0.1592     H
C      0.35323  0.11938  0.56125     C
C      0.35323  0.38062  0.93875     C
C      0.35323  0.56125  0.38062     C
C      0.35323  0.93875  0.11938     C
H       0.3613   0.5302   0.6878     H
H       0.3613   0.6878   0.9698     H
H       0.3613   0.8122   0.5302     H
H       0.3613   0.9698   0.8122     H
H       0.3649   0.6159   0.7431     H
H       0.3649   0.7431   0.8841     H
H       0.3649   0.7569   0.6159     H
H       0.3649   0.8841   0.7569     H
C      0.36531  0.00479  0.59627     C
C      0.36531  0.49521  0.90373     C
C      0.36531  0.59627  0.49521     C
C      0.36531  0.90373  0.00479     C
H       0.3682   0.5345   0.8899     H
H       0.3682   0.6101   0.5345     H
H       0.3682   0.8899   0.9655     H
H       0.3682   0.9655   0.6101     H
C       0.3807  0.07913  0.52228     C
C       0.3807  0.42087  0.97772     C
C       0.3807  0.52228  0.42087     C
C       0.3807  0.97772  0.07913     C
C      0.38726  0.01928  0.53912     C
C      0.38726  0.48072  0.96088     C
C      0.38726  0.53912  0.48072     C
C      0.38726  0.96088  0.01928     C
C      0.39059  0.56173  0.67588     C
C      0.39059  0.67588  0.93827     C
C      0.39059  0.82412  0.56173     C
C      0.39059  0.93827  0.82412     C
C      0.39344  0.61348  0.70899     C
C      0.39344  0.70899  0.88652     C
C      0.39344  0.79101  0.61348     C
C      0.39344  0.88652  0.79101     C
H       0.3952   0.0157   0.0914     H
H       0.3952   0.0914   0.4843     H
H       0.3952   0.4086   0.0157     H
H       0.3952   0.4843   0.4086     H
C       0.4149  0.00371  0.97548     C
C       0.4149  0.49629  0.52452     C
C       0.4149  0.52452  0.00371     C
C       0.4149  0.97548  0.49629     C
H       0.4171    0.015    0.321     H
H       0.4171    0.179    0.015     H
H       0.4171    0.321    0.485     H
H       0.4171    0.485    0.179     H
N      0.42216  0.06339  0.99011     N
N      0.42216  0.43661  0.50989     N
N      0.42216  0.50989  0.06339     N
N      0.42216  0.99011  0.43661     N
H       0.4239   0.2094   0.2493     H
H       0.4239   0.2145   0.2697     H
H       0.4239   0.2303   0.2145     H
H       0.4239   0.2493   0.2906     H
H       0.4239   0.2507   0.2094     H
H       0.4239   0.2697   0.2855     H
H       0.4239   0.2855   0.2303     H
H       0.4239   0.2906   0.2507     H
C       0.4288  0.50435  0.58515     C
C       0.4288  0.58515  0.99565     C
C       0.4288  0.91485  0.50435     C
C       0.4288  0.99565  0.91485     C
C      0.43158  0.55706  0.62492     C
C      0.43158  0.62492  0.94294     C
C      0.43158  0.87508  0.55706     C
C      0.43158  0.94294  0.87508     C
N      0.43393  0.66001   0.6957     N
N      0.43393   0.6957  0.83999     N
N      0.43393   0.8043  0.66001     N
N      0.43393  0.83999   0.8043     N
Cd     0.43527     0.75     0.75    Cd
O        0.441     0.25     0.25     O
C      0.44212  0.08921  0.93963     C
C      0.44212  0.41079  0.56037     C
C      0.44212  0.56037  0.08921     C
C      0.44212  0.93963  0.41079     C
H       0.4424   0.1314   0.7516     H
H       0.4424   0.3686   0.7484     H
H       0.4424   0.7484   0.1314     H
H       0.4424   0.7516   0.3686     H
C      0.44367  0.19271  0.98254     C
C      0.44367  0.30729  0.51746     C
C      0.44367  0.51746  0.19271     C
C      0.44367  0.98254  0.30729     C
N       0.4465  0.05212   0.8929     N
N       0.4465  0.44788   0.6071     N
N       0.4465   0.6071  0.05212     N
N       0.4465   0.8929  0.44788     N
H       0.4524   0.0114   0.2235     H
H       0.4524   0.2235   0.4886     H
H       0.4524   0.2765   0.0114     H
H       0.4524   0.4886   0.2765     H
H       0.4579   0.0612   0.8567     H
H       0.4579   0.4388   0.6433     H
H       0.4579   0.6433   0.0612     H
H       0.4579   0.8567   0.4388     H
C      0.46166  0.15394  0.93654     C
C      0.46166  0.34606  0.56346     C
C      0.46166  0.56346  0.15394     C
C      0.46166  0.93654  0.34606     C
C       0.4651  0.24895  0.51991     C
C       0.4651  0.25105  0.98009     C
C       0.4651  0.51991  0.25105     C
C       0.4651  0.98009  0.24895     C
C        0.476  0.10392  0.73771     C
C        0.476  0.39608  0.76229     C
C        0.476  0.73771  0.39608     C
C        0.476  0.76229  0.10392     C
C      0.47608  0.60559  0.61143     C
C      0.47608  0.61143  0.89441     C
C      0.47608  0.88857  0.60559     C
C      0.47608  0.89441  0.88857     C
C       0.4769  0.64874  0.84493     C
C       0.4769  0.65507  0.64874     C
C       0.4769  0.84493  0.85126     C
C       0.4769  0.85126  0.65507     C
H       0.4868   0.1445   0.6549     H
H       0.4868   0.3555   0.8451     H
H       0.4868   0.6549   0.3555     H
H       0.4868   0.8451   0.1445     H
H       0.4913   0.1406   0.3139     H
H       0.4913   0.1861   0.1406     H
H       0.4913   0.3139   0.3594     H
H       0.4913   0.3594   0.1861     H
H        0.495   0.0775   0.3954     H
H        0.495   0.1046   0.0775     H
H        0.495   0.3954   0.4225     H
H        0.495   0.4225   0.1046     H
N      0.49595  0.06597  0.77363     N
N      0.49595  0.43403  0.72637     N
N      0.49595  0.72637  0.06597     N
N      0.49595  0.77363  0.43403     N
C       0.4982  0.11072   0.6774     C
C       0.4982  0.38928   0.8226     C
C       0.4982   0.6774  0.38928     C
C       0.4982   0.8226  0.11072     C
C       0.5018   0.1774  0.88928     C
C       0.5018   0.3226  0.61072     C
C       0.5018  0.61072   0.1774     C
C       0.5018  0.88928   0.3226     C
N      0.50405  0.22637  0.56597     N
N      0.50405  0.27363  0.93403     N
N      0.50405  0.56597  0.27363     N
N      0.50405  0.93403  0.22637     N
H        0.505   0.5775   0.8954     H
H        0.505   0.6046   0.5775     H
H        0.505   0.8954   0.9225     H
H        0.505   0.9225   0.6046     H
H       0.5087   0.6406   0.8139     H
H       0.5087   0.6861   0.6406     H
H       0.5087   0.8139   0.8594     H
H       0.5087   0.8594   0.6861     H
H       0.5132   0.1549   0.8555     H
H       0.5132   0.3451   0.6445     H
H       0.5132   0.6445   0.1549     H
H       0.5132   0.8555   0.3451     H
C       0.5231  0.14874  0.34493     C
C       0.5231  0.15507  0.14874     C
C       0.5231  0.34493  0.35126     C
C       0.5231  0.35126  0.15507     C
C      0.52392  0.10559  0.11143     C
C      0.52392  0.11143  0.39441     C
C      0.52392  0.38857  0.10559     C
C      0.52392  0.39441  0.38857     C
C        0.524  0.23771  0.89608     C
C        0.524  0.26229  0.60392     C
C        0.524  0.60392  0.23771     C
C        0.524  0.89608  0.26229     C
C       0.5349  0.01991  0.75105     C
C       0.5349  0.48009  0.74895     C
C       0.5349  0.74895  0.01991     C
C       0.5349  0.75105  0.48009     C
C      0.53834  0.06346  0.65394     C
C      0.53834  0.43654  0.84606     C
C      0.53834  0.65394  0.43654     C
C      0.53834  0.84606  0.06346     C
H       0.5421   0.1433   0.5612     H
H       0.5421   0.3567   0.9388     H
H       0.5421   0.5612   0.3567     H
H       0.5421   0.9388   0.1433     H
H       0.5476   0.5114   0.7235     H
H       0.5476   0.7235   0.9886     H
H       0.5476   0.7765   0.5114     H
H       0.5476   0.9886   0.7765     H
N       0.5535   0.1071  0.55212     N
N       0.5535   0.3929  0.94788     N
N       0.5535  0.55212   0.3929     N
N       0.5535  0.94788   0.1071     N
C      0.55633  0.01746  0.69271     C
C      0.55633  0.48254  0.80729     C
C      0.55633  0.69271  0.48254     C
C      0.55633  0.80729  0.01746     C
H       0.5576   0.2484   0.6314     H
H       0.5576   0.2516   0.8686     H
H       0.5576   0.6314   0.2516     H
H       0.5576   0.8686   0.2484     H
C      0.55788  0.06037  0.58921     C
C      0.55788  0.43963  0.91079     C
C      0.55788  0.58921  0.43963     C
C      0.55788  0.91079  0.06037     C
O        0.559     0.75     0.75     O
Cd     0.56473     0.25     0.25    Cd
N      0.56607  0.16001   0.1957     N
N      0.56607   0.1957  0.33999     N
N      0.56607   0.3043  0.16001     N
N      0.56607  0.33999   0.3043     N
C      0.56842  0.05706  0.12492     C
C      0.56842  0.12492  0.44294     C
C      0.56842  0.37508  0.05706     C
C      0.56842  0.44294  0.37508     C
C       0.5712  0.00435  0.08515     C
C       0.5712  0.08515  0.49565     C
C       0.5712  0.41485  0.00435     C
C       0.5712  0.49565  0.41485     C
H       0.5761   0.7094   0.7493     H
H       0.5761   0.7145   0.7697     H
H       0.5761   0.7303   0.7145     H
H       0.5761   0.7493   0.7906     H
H       0.5761   0.7507   0.7094     H
H       0.5761   0.7697   0.7855     H
H       0.5761   0.7855   0.7303     H
H       0.5761   0.7906   0.7507     H
N      0.57784  0.00989  0.56339     N
N      0.57784  0.49011  0.93661     N
N      0.57784  0.56339  0.49011     N
N      0.57784  0.93661  0.00989     N
H       0.5829    0.515    0.821     H
H       0.5829    0.679    0.515     H
H       0.5829    0.821    0.985     H
H       0.5829    0.985    0.679     H
C       0.5851  0.02452  0.50371     C
C       0.5851  0.47548  0.99629     C
C       0.5851  0.50371  0.47548     C
C       0.5851  0.99629  0.02452     C
H       0.6048   0.5157   0.5914     H
H       0.6048   0.5914   0.9843     H
H       0.6048   0.9086   0.5157     H
H       0.6048   0.9843   0.9086     H
C      0.60656  0.11348  0.20899     C
C      0.60656  0.20899  0.38652     C
C      0.60656  0.29101  0.11348     C
C      0.60656  0.38652  0.29101     C
C      0.60941  0.06173  0.17588     C
C      0.60941  0.17588  0.43827     C
C      0.60941  0.32412  0.06173     C
C      0.60941  0.43827  0.32412     C
C      0.61274  0.03912  0.98072     C
C      0.61274  0.46088  0.51928     C
C      0.61274  0.51928  0.03912     C
C      0.61274  0.98072  0.46088     C
C       0.6193  0.02228  0.92087     C
C       0.6193  0.47772  0.57913     C
C       0.6193  0.57913  0.02228     C
C       0.6193  0.92087  0.47772     C
H       0.6318   0.0345   0.3899     H
H       0.6318   0.1101   0.0345     H
H       0.6318   0.3899   0.4655     H
H       0.6318   0.4655   0.1101     H
C      0.63469  0.09627  0.99521     C
C      0.63469  0.40373  0.50479     C
C      0.63469  0.50479  0.09627     C
C      0.63469  0.99521  0.40373     C
H       0.6351   0.1159   0.2431     H
H       0.6351   0.2431   0.3841     H
H       0.6351   0.2569   0.1159     H
H       0.6351   0.3841   0.2569     H
H       0.6387   0.0302   0.1878     H
H       0.6387   0.1878   0.4698     H
H       0.6387   0.3122   0.0302     H
H       0.6387   0.4698   0.3122     H
C      0.64677  0.06125  0.88062     C
C      0.64677  0.43875  0.61938     C
C      0.64677  0.61938  0.06125     C
C      0.64677  0.88062  0.43875     C
H       0.6501    0.049   0.8408     H
H       0.6501    0.451   0.6592     H
H       0.6501   0.6592    0.049     H
H       0.6501   0.8408    0.451     H
C      0.66152  0.13317   0.9495     C
C      0.66152  0.36683   0.5505     C
C      0.66152   0.5505  0.13317     C
C      0.66152   0.9495  0.36683     C
N      0.66909  0.11557  0.89429     N
N      0.66909  0.38443  0.60571     N
N      0.66909  0.60571  0.11557     N
N      0.66909  0.89429  0.38443     N
H       0.6746   0.1722   0.9592     H
H       0.6746   0.3278   0.5408     H
H       0.6746   0.5408   0.1722     H
H       0.6746   0.9592   0.3278     H
O        0.696     0.25     0.25     O
O      0.69962    0.098  0.74915     O
O      0.69962    0.402  0.75085     O
O      0.69962  0.74915    0.402     O
O      0.69962  0.75085    0.098     O
O      0.70348  0.24024  0.65779     O
O      0.70348  0.25976  0.84221     O
O      0.70348  0.65779  0.25976     O
O      0.70348  0.84221  0.24024     O
H       0.7112   0.2141   0.2494     H
H       0.7112   0.2192   0.2315     H
H       0.7112   0.2315   0.2808     H
H       0.7112   0.2494   0.2859     H
H       0.7112   0.2506   0.2141     H
H       0.7112   0.2685   0.2192     H
H       0.7112   0.2808   0.2685     H
H       0.7112   0.2859   0.2506     H
H       0.7416   0.0165   0.6612     H
H       0.7416   0.4835   0.8388     H
H       0.7416   0.6612   0.4835     H
H       0.7416   0.8388   0.0165     H
H       0.7421   0.5073   0.9375     H
H       0.7421   0.5625   0.5073     H
H       0.7421   0.9375   0.9927     H
H       0.7421   0.9927   0.5625     H
C      0.74458  0.04694   0.6328     C
C      0.74458  0.45306   0.8672     C
C      0.74458   0.6328  0.45306     C
C      0.74458   0.8672  0.04694     C
C      0.74628  0.03271  0.57394     C
C      0.74628  0.46729  0.92606     C
C      0.74628  0.57394  0.46729     C
C      0.74628  0.92606  0.03271     C
C      0.74644  0.12065  0.71642     C
C      0.74644  0.37935  0.78358     C
C      0.74644  0.71642  0.37935     C
C      0.74644  0.78358  0.12065     C
C      0.74724  0.10777  0.65221     C
C      0.74724  0.39223  0.84779     C
C      0.74724  0.65221  0.39223     C
C      0.74724  0.84779  0.10777     C
Cd        0.75 0.168466 0.831534    Cd
Cd        0.75 0.331534 0.668466    Cd
Cd        0.75 0.668466 0.168466    Cd
Cd        0.75 0.831534 0.331534    Cd
C      0.75276  0.15221  0.60777     C
C      0.75276  0.34779  0.89223     C
C      0.75276  0.60777  0.34779     C
C      0.75276  0.89223  0.15221     C
C      0.75356  0.21642  0.62065     C
C      0.75356  0.28358  0.87935     C
C      0.75356  0.62065  0.28358     C
C      0.75356  0.87935  0.21642     C
C      0.75372  0.07394  0.53271     C
C      0.75372  0.42606  0.96729     C
C      0.75372  0.53271  0.42606     C
C      0.75372  0.96729  0.07394     C
C      0.75542   0.1328  0.54694     C
C      0.75542   0.3672  0.95306     C
C      0.75542  0.54694   0.3672     C
C      0.75542  0.95306   0.1328     C
H       0.7579   0.0073   0.0625     H
H       0.7579   0.0625   0.4927     H
H       0.7579   0.4375   0.0073     H
H       0.7579   0.4927   0.4375     H
H       0.7584   0.1612   0.5165     H
H       0.7584   0.3388   0.9835     H
H       0.7584   0.5165   0.3388     H
H       0.7584   0.9835   0.1612     H
H       0.7888   0.7141   0.7506     H
H       0.7888   0.7192   0.7685     H
H       0.7888   0.7315   0.7192     H
H       0.7888   0.7494   0.7141     H
H       0.7888   0.7506   0.7859     H
H       0.7888   0.7685   0.7808     H
H       0.7888   0.7808   0.7315     H
H       0.7888   0.7859   0.7494     H
O      0.79652  0.15779  0.74024     O
O      0.79652  0.34221  0.75976     O
O      0.79652  0.74024  0.34221     O
O      0.79652  0.75976  0.15779     O
O      0.80038  0.24915    0.598     O
O      0.80038  0.25085    0.902     O
O      0.80038    0.598  0.25085     O
O      0.80038    0.902  0.24915     O
O        0.804     0.75     0.75     O
H       0.8254   0.0408   0.8278     H
H       0.8254   0.4592   0.6722     H
H       0.8254   0.6722   0.0408     H
H       0.8254   0.8278   0.4592     H
N      0.83091  0.10571  0.88443     N
N      0.83091  0.39429  0.61557     N
N      0.83091  0.61557  0.10571     N
N      0.83091  0.88443  0.39429     N
C      0.83848   0.0505  0.86683     C
C      0.83848   0.4495  0.63317     C
C      0.83848  0.63317   0.0505     C
C      0.83848  0.86683   0.4495     C
H       0.8499   0.1592    0.951     H
H       0.8499   0.3408    0.549     H
H       0.8499    0.549   0.1592     H
H       0.8499    0.951   0.3408     H
C      0.85323  0.11938  0.93875     C
C      0.85323  0.38062  0.56125     C
C      0.85323  0.56125  0.11938     C
C      0.85323  0.93875  0.38062     C
H       0.8613   0.5302   0.8122     H
H       0.8613   0.6878   0.5302     H
H       0.8613   0.8122   0.9698     H
H       0.8613   0.9698   0.6878     H
H       0.8649   0.6159   0.7569     H
H       0.8649   0.7431   0.6159     H
H       0.8649   0.7569   0.8841     H
H       0.8649   0.8841   0.7431     H
C      0.86531  0.00479  0.90373     C
C      0.86531  0.49521  0.59627     C
C      0.86531  0.59627  0.00479     C
C      0.86531  0.90373  0.49521     C
H       0.8682   0.5345   0.6101     H
H       0.8682   0.6101   0.9655     H
H       0.8682   0.8899   0.5345     H
H       0.8682   0.9655   0.8899     H
C       0.8807  0.07913  0.97772     C
C       0.8807  0.42087  0.52228     C
C       0.8807  0.52228  0.07913     C
C       0.8807  0.97772  0.42087     C
C      0.88726  0.01928  0.96088     C
C      0.88726  0.48072  0.53912     C
C      0.88726  0.53912  0.01928     C
C      0.88726  0.96088  0.48072     C
C      0.89059  0.56173  0.82412     C
C      0.89059  0.67588  0.56173     C
C      0.89059  0.82412  0.93827     C
C      0.89059  0.93827  0.67588     C
C      0.89344  0.61348  0.79101     C
C      0.89344  0.70899  0.61348     C
C      0.89344  0.79101  0.88652     C
C      0.89344  0.88652  0.70899     C
H       0.8952   0.0157   0.4086     H
H       0.8952   0.0914   0.0157     H
H       0.8952   0.4086   0.4843     H
H       0.8952   0.4843   0.0914     H
C       0.9149  0.00371  0.52452     C
C       0.9149  0.49629  0.97548     C
C       0.9149  0.52452  0.49629     C
C       0.9149  0.97548  0.00371     C
H       0.9171    0.015    0.179     H
H       0.9171    0.179    0.485     H
H       0.9171    0.321    0.015     H
H       0.9171    0.485    0.321     H
N      0.92216  0.06339  0.50989     N
N      0.92216  0.43661  0.99011     N
N      0.92216  0.50989  0.43661     N
N      0.92216  0.99011  0.06339     N
H       0.9239   0.2094   0.2507     H
H       0.9239   0.2145   0.2303     H
H       0.9239   0.2303   0.2855     H
H       0.9239   0.2493   0.2094     H
H       0.9239   0.2507   0.2906     H
H       0.9239   0.2697   0.2145     H
H       0.9239   0.2855   0.2697     H
H       0.9239   0.2906   0.2493     H
C       0.9288  0.50435  0.91485     C
C       0.9288  0.58515  0.50435     C
C       0.9288  0.91485  0.99565     C
C       0.9288  0.99565  0.58515     C
C      0.93158  0.55706  0.87508     C
C      0.93158  0.62492  0.55706     C
C      0.93158  0.87508  0.94294     C
C      0.93158  0.94294  0.62492     C
N      0.93393  0.66001   0.8043     N
N      0.93393   0.6957  0.66001     N
N      0.93393   0.8043  0.83999     N
N      0.93393  0.83999   0.6957     N
Cd     0.93527     0.75     0.75    Cd
O        0.941     0.25     0.25     O
C      0.94212  0.08921  0.56037     C
C      0.94212  0.41079  0.93963     C
C      0.94212  0.56037  0.41079     C
C      0.94212  0.93963  0.08921     C
H       0.9424   0.1314   0.7484     H
H       0.9424   0.3686   0.7516     H
H       0.9424   0.7484   0.3686     H
H       0.9424   0.7516   0.1314     H
C      0.94367  0.19271  0.51746     C
C      0.94367  0.30729  0.98254     C
C      0.94367  0.51746  0.30729     C
C      0.94367  0.98254  0.19271     C
N       0.9465  0.05212   0.6071     N
N       0.9465  0.44788   0.8929     N
N       0.9465   0.6071  0.44788     N
N       0.9465   0.8929  0.05212     N
H       0.9524   0.0114   0.2765     H
H       0.9524   0.2235   0.0114     H
H       0.9524   0.2765   0.4886     H
H       0.9524   0.4886   0.2235     H
H       0.9579   0.0612   0.6433     H
H       0.9579   0.4388   0.8567     H
H       0.9579   0.6433   0.4388     H
H       0.9579   0.8567   0.0612     H
C      0.96166  0.15394  0.56346     C
C      0.96166  0.34606  0.93654     C
C      0.96166  0.56346  0.34606     C
C      0.96166  0.93654  0.15394     C
C       0.9651  0.24895  0.98009     C
C       0.9651  0.25105  0.51991     C
C       0.9651  0.51991  0.24895     C
C       0.9651  0.98009  0.25105     C
C        0.976  0.10392  0.76229     C
C        0.976  0.39608  0.73771     C
C        0.976  0.73771  0.10392     C
C        0.976  0.76229  0.39608     C
C      0.97608  0.60559  0.88857     C
C      0.97608  0.61143  0.60559     C
C      0.97608  0.88857  0.89441     C
C      0.97608  0.89441  0.61143     C
C       0.9769  0.64874  0.65507     C
C       0.9769  0.65507  0.85126     C
C       0.9769  0.84493  0.64874     C
C       0.9769  0.85126  0.84493     C
H       0.9868   0.1445   0.8451     H
H       0.9868   0.3555   0.6549     H
H       0.9868   0.6549   0.1445     H
H       0.9868   0.8451   0.3555     H
H       0.9913   0.1406   0.1861     H
H       0.9913   0.1861   0.3594     H
H       0.9913   0.3139   0.1406     H
H       0.9913   0.3594   0.3139     H
H        0.995   0.0775   0.1046     H
H        0.995   0.1046   0.4225     H
H        0.995   0.3954   0.0775     H
H        0.995   0.4225   0.3954     H
N      0.99595  0.06597  0.72637     N
N      0.99595  0.43403  0.77363     N
N      0.99595  0.72637  0.43403     N
N      0.99595  0.77363  0.06597     N
C       0.9982  0.11072   0.8226     C
C       0.9982  0.38928   0.6774     C
C       0.9982   0.6774  0.11072     C
C       0.9982   0.8226  0.38928     C
