data_I
_chemical_name_common  '/home/zhangsd/repos/MofS-CGCNN/ML/data/WS24/clean_cifs/COYBUO'
_cell_length_a 15.78720
_cell_length_b 17.18180
_cell_length_c 19.97340
_cell_angle_alpha 64.67200
_cell_angle_beta  85.65900
_cell_angle_gamma 89.49600
_space_group_name_H-M_alt      'P 1'


loop_
_space_group_symop_operation_xyz
  'x, y, z' 

loop_
_atom_site_label
_atom_site_fract_x
_atom_site_fract_y
_atom_site_fract_z
_atom_site_type_symbol
C       0.0077   0.1135   0.1713     C
C       0.0079    0.688   0.2168     C
N       0.0085   0.2621   0.7607     N
H       0.0101   0.1798   0.3004     H
C       0.0201   0.8757    0.767     C
H       0.0255   0.9194   0.8456     H
C        0.029    0.173   0.2569     C
S      0.03062   0.6186  0.18258     S
H       0.0419   0.9098   0.3601     H
Cu     0.04838  0.18862   0.7114    Cu
H       0.0579   0.6319   0.3773     H
N       0.0621   0.8891   0.2705     N
H       0.0763    0.535   0.6556     H
C       0.0806    0.921   0.3181     C
S      0.08103  0.25822  0.58625     S
H       0.0833    0.427   0.6163     H
C       0.0839   0.1502   0.1337     C
H       0.0898   0.4871   0.4063     H
H       0.0975   0.5739   0.7546     H
H       0.0996    0.677   0.7999     H
N       0.0999   0.9128    0.729     N
H        0.104   0.1408   0.0918     H
C       0.1057   0.2119   0.2178     C
H       0.1063   0.8851   0.1777     H
C       0.1119   0.6105   0.3937     C
C        0.118   0.9069   0.2126     C
H       0.1183   0.9061   0.6891     H
C       0.1299   0.5145   0.6463     C
H       0.1308   0.9424   0.7453     H
C       0.1309   0.5248     0.41     C
C       0.1317   0.2004   0.1554     C
C       0.1349   0.4504   0.6226     C
H       0.1391   0.2455   0.2339     H
C        0.141   0.6175   0.7362     C
C       0.1419   0.6798   0.7624     C
H       0.1525   0.3568   0.8404     H
C       0.1537   0.9697    0.309     C
H       0.1559   0.7207   0.3921     H
S      0.15634  0.09586  0.75858     S
H       0.1611   0.2543   0.7955     H
H       0.1638   0.9907   0.3447     H
H       0.1662   0.5126   0.9691     H
H       0.1691   0.4048   0.9289     H
C       0.1702   0.6633   0.4013     C
S      0.17552  0.77498  0.90457     S
O       0.1799   0.0843    0.599     O
Mo      0.1821  0.15932  0.63327    Mo
H        0.183   0.2273   0.1272     H
C       0.1915   0.9546   0.1998     C
H       0.1964   0.3734    0.447     H
N       0.1999   0.7441   0.7369     N
Cu     0.20145  0.83508   0.7789    Cu
H       0.2019   0.5915   0.0679     H
C       0.2027    0.618   0.6837     C
H        0.204   0.4346   0.1123     H
C       0.2046    0.549   0.6564     C
C       0.2065   0.3422   0.8254     C
N       0.2079   0.4188   0.6079     N
Cu     0.20818   0.3289  0.56525    Cu
C       0.2109   0.5136   0.9342     C
C       0.2117   0.4961   0.4317     C
C       0.2119   0.9883   0.2486     C
C       0.2121   0.4488   0.9104     C
C       0.2123   0.2809   0.7985     C
H       0.2288   0.9648   0.1571     H
N       0.2337   0.4093     0.45     N
C       0.2464   0.6355   0.4214     C
N       0.2578    0.594   0.0657     N
C       0.2606   0.7444   0.6853     C
C       0.2643   0.4386   0.1087     C
C        0.265    0.684   0.6582     C
H       0.2666   0.0794    0.318     H
C       0.2677   0.5532   0.4358     C
N       0.2693   0.5776   0.9106     N
Cu      0.2719  0.67141  0.94733    Cu
C        0.277   0.4489   0.8589     C
C        0.279   0.3825   0.8305     C
C       0.2795   0.4523   0.6174     C
C       0.2801   0.5171   0.6406     C
Cu     0.28374  0.16875  0.73107    Cu
H       0.2843   0.3099   0.1432     H
H       0.2845   0.3916   0.4642     H
H       0.2847   0.6439   0.0511     H
N       0.2855   0.2563   0.7762     N
H       0.2869   0.6732   0.4258     H
C       0.2922   0.0385   0.2373     C
H       0.3026   0.7894   0.6669     H
C       0.3048   0.5168   0.0859     C
Mo     0.30613  0.84077   0.8755    Mo
C       0.3087   0.0799   0.2812     C
H       0.3096   0.6865   0.6226     H
S      0.31005  0.22957  0.60623     S
C       0.3124   0.3644   0.1268     C
O       0.3148   0.9125   0.9134     O
H       0.3187   0.8163   0.3403     H
H       0.3234   0.5351   0.4491     H
S      0.32846  0.90798  0.74965     S
C       0.3312   0.5775   0.8608     C
H       0.3322   0.4305   0.6078     H
H       0.3326   0.5398   0.6457     H
C       0.3377   0.5156    0.834     C
H        0.346   0.0663   0.7661     H
H       0.3478   0.0174   0.1518     H
C       0.3561   0.0438    0.184     C
C       0.3561   0.3568   0.8082     C
C       0.3567   0.2951   0.7819     C
H       0.3582    0.802   0.2317     H
H       0.3656   0.0908   0.8282     H
H        0.373   0.6228   0.8429     H
C       0.3738    0.835    0.316     C
N       0.3818   0.0864   0.7869     N
H       0.3831   0.5184   0.7989     H
C        0.386   0.1223   0.2717     C
C       0.3917   0.5203   0.0801     C
H       0.3955   0.1503   0.3025     H
C       0.3971   0.3691   0.1212     C
C       0.3973   0.8264   0.2517     C
S       0.4036  0.73752  0.91779     S
H       0.4081   0.3821   0.8112     H
H       0.4098   0.2788   0.7669     H
H       0.4136   0.8781   0.3886     H
H       0.4203   0.5745   0.0636     H
H        0.429   0.3184   0.1336     H
C       0.4302   0.8707    0.345     C
C       0.4313   0.0867   0.1774     C
Cu     0.43361  0.81056   0.7918    Cu
C        0.438   0.4481   0.0973     C
N       0.4477   0.1253   0.2211     N
H       0.4492   0.0815   0.6683     H
N       0.4618   0.7411   0.7365     N
C       0.4654   0.1118   0.7539     C
H       0.4737   0.0892   0.1401     H
C        0.478   0.8531   0.2157     C
C       0.4795   0.6989   0.7072     C
C       0.4887   0.1041   0.6894     C
H        0.494   0.8475   0.1712     H
S      0.49724  0.36292  0.33559     S
H       0.4983    0.452   0.0929     H
H       0.5017    0.548   0.9071     H
S      0.50276  0.63708  0.66441     S
H        0.506   0.1525   0.8288     H
C       0.5113   0.8959   0.3106     C
C       0.5205   0.3011   0.2928     C
C        0.522   0.1469   0.7843     C
H       0.5263   0.9108   0.8599     H
C       0.5346   0.8882   0.2461     C
N       0.5382   0.2589   0.2635     N
H       0.5508   0.9185   0.3317     H
N       0.5523   0.8747   0.7789     N
C        0.562   0.5519   0.9027     C
Cu     0.56639  0.18944   0.2082    Cu
C       0.5687   0.9133   0.8226     C
C       0.5698   0.1293    0.655     C
H        0.571   0.6816   0.8664     H
H       0.5797   0.4255   0.9364     H
H       0.5864   0.1219   0.6114     H
H       0.5902   0.7212   0.2331     H
H       0.5919   0.6179   0.1888     H
S       0.5964  0.26248  0.08221     S
C       0.6027   0.1736   0.7483     C
C       0.6029   0.6309   0.8788     C
H       0.6045   0.8497   0.6975     H
C       0.6083   0.4797   0.9199     C
C        0.614   0.8777   0.7283     C
H       0.6169   0.4816   0.2011     H
N       0.6182   0.9136   0.2131     N
C       0.6262    0.165    0.684     C
H        0.627   0.3772   0.1571     H
H       0.6344   0.9092   0.1718     H
H       0.6418    0.198   0.7683     H
C       0.6433   0.7049   0.2181     C
C       0.6439   0.6432   0.1918     C
C       0.6439   0.9562    0.816     C
H       0.6522   0.9826   0.8482     H
H        0.654   0.9337   0.2339     H
C       0.6623   0.4844    0.166     C
H       0.6674   0.4602   0.3543     H
H       0.6678   0.5695   0.3922     H
C       0.6688   0.4225   0.1392     C
S      0.67154  0.09202  0.25035     S
H       0.6766   0.4649   0.5509     H
H       0.6813   0.1837   0.6597     H
O       0.6852   0.0875   0.0866     O
C       0.6876   0.6356   0.8732     C
S      0.68995  0.77043  0.39377     S
H       0.6904   0.3135   0.3774     H
C       0.6913   0.9201   0.7188     C
Mo     0.69387  0.15923   0.1245    Mo
C       0.6952   0.4832   0.9141     C
H       0.6974   0.2106   0.3331     H
C       0.7078   0.9615   0.7627     C
H       0.7131   0.3268   0.5742     H
N       0.7145   0.7437   0.2238     N
H       0.7153   0.3561   0.9489     H
H       0.7155   0.6084   0.5358     H
H       0.7157   0.6901   0.8568     H
Cu     0.71626  0.83125  0.26893    Cu
C       0.7199   0.4829   0.3594     C
C       0.7205   0.5477   0.3826     C
C        0.721   0.6175   0.1695     C
C        0.723   0.5511   0.1411     C
Cu      0.7281  0.32859  0.05267    Cu
N       0.7307   0.4224   0.0894     N
C       0.7323   0.4468   0.5642     C
H       0.7334   0.9206    0.682     H
C        0.735    0.316   0.3418     C
C       0.7357   0.5614   0.8913     C
C       0.7394   0.2556   0.3147     C
N       0.7422    0.406   0.9343     N
C       0.7536   0.3645   0.5786     C
N       0.7663   0.5907     0.55     N
H       0.7712   0.0352   0.8429     H
C       0.7877   0.7191   0.2015     C
C       0.7879   0.5512   0.0896     C
C       0.7881   0.0117   0.7514     C
C       0.7883   0.5039   0.5683     C
C       0.7891   0.4864   0.0658     C
Cu     0.79182   0.6711  0.43475    Cu
N       0.7921   0.5812   0.3921     N
C       0.7935   0.6578   0.1746     C
C       0.7954    0.451   0.3436     C
H        0.796   0.5654   0.8877     H
C       0.7973    0.382   0.3163     C
H       0.7981   0.4085   0.9321     H
Cu     0.79855  0.16492   0.2211    Cu
N       0.8001   0.2559   0.2631     N
H       0.8036   0.6266    0.553     H
C       0.8085   0.0454   0.8002     C
H        0.817   0.7727   0.8728     H
Mo      0.8179  0.84068  0.36673    Mo
O       0.8201   0.9157    0.401     O
S      0.82448  0.22502  0.09543     S
C       0.8298   0.3367   0.5987     C
H       0.8309   0.5952   0.0711     H
H       0.8338   0.4874   0.0309     H
H       0.8362   0.0093   0.6553     H
H       0.8389   0.7457   0.2045     H
S      0.84366  0.90414  0.24142     S
H       0.8441   0.2793   0.6079     H
C       0.8463   0.0303    0.691     C
H       0.8475   0.6432   0.1596     H
C       0.8581   0.3202   0.2376     C
C        0.859   0.3825   0.2638     C
H       0.8609   0.7545   0.7661     H
C       0.8651   0.5496   0.3774     C
C       0.8683   0.7996   0.8446     C
C       0.8691   0.4752     0.59     C
H       0.8692   0.0576   0.2547     H
C       0.8701   0.4855   0.3537     C
H       0.8817   0.0939   0.3109     H
C        0.882   0.0931   0.7874     C
C       0.8881   0.3895   0.6063     C
H       0.8937   0.1149   0.8223     H
C       0.8943   0.7881   0.7822     C
H        0.896   0.8592   0.9082     H
N       0.9001   0.0872    0.271     N
H       0.9004    0.323   0.2001     H
H       0.9025   0.4261   0.2454     H
H       0.9102   0.5129   0.5937     H
C       0.9161   0.8498   0.8663     C
H       0.9167    0.573   0.3837     H
S      0.91897  0.74178  0.41375     S
C       0.9194    0.079   0.6819     C
H       0.9237    0.465   0.3444     H
N       0.9379   0.1109   0.7295     N
H       0.9421   0.3681   0.6227     H
Cu     0.95162  0.81138   0.2886    Cu
H       0.9581   0.0902   0.6399     H
S      0.96938   0.3814  0.81742     S
C        0.971    0.827   0.7431     C
H       0.9745   0.0806   0.1544     H
C       0.9799   0.1243    0.233     C
H       0.9899   0.8202   0.6996     H
N       0.9915   0.7379   0.2393     N
C       0.9921    0.312   0.7832     C
C       0.9923   0.8865   0.8287     C
