data_I
_chemical_name_common  '/home/zhangsd/repos/MofS-CGCNN/ML/data/WS24/clean_cifs/COYCAV'
_cell_length_a  9.90100
_cell_length_b 18.88300
_cell_length_c 25.75200
_cell_angle_alpha 90.00000
_cell_angle_beta  90.00000
_cell_angle_gamma 97.90000
_space_group_name_H-M_alt      'P 1'


loop_
_space_group_symop_operation_xyz
  'x, y, z' 

loop_
_atom_site_label
_atom_site_fract_x
_atom_site_fract_y
_atom_site_fract_z
_atom_site_type_symbol
C        0.002   0.1321   0.4645     C
C        0.002   0.7003   0.4017     C
C       0.0029   0.5756   0.3864     C
C        0.004   0.1685   0.9167     C
C        0.014   0.1319   0.3742     C
C        0.025   0.3934   0.3411     C
H       0.0253   0.0643   0.9252     H
C        0.029   0.3786   0.4286     C
H       0.0358   0.1476   0.4977     H
H       0.0459     0.47   0.8785     H
H       0.0534   0.4188   0.3103     H
H       0.0551   0.1493   0.3426     H
H       0.0653   0.3947   0.4614     H
C       0.0709    0.235   0.9095     C
C        0.071   0.1583   0.4219     C
C       0.0728   0.3669   0.8932     C
C       0.0752   0.6726   0.9289     C
C        0.077   0.1099   0.9198     C
C        0.088    0.663   0.8402     C
N       0.0895     0.41   0.3869     N
S         0.09   0.0603    0.224     S
H       0.0924   0.8387   0.4198     H
C        0.102   0.9194   0.8729     C
H       0.1064    0.693   0.9612     H
C        0.115   0.9161    0.962     C
H       0.1283   0.6772   0.8077     H
N       0.1366   0.5811   0.3902     N
H       0.1402   0.9354   0.8404     H
C       0.1403   0.6976   0.8846     C
C       0.1465   0.7074   0.4041     C
N       0.1626    0.947   0.9184     N
H       0.1645   0.9277   0.9932     H
H       0.1697   0.3736   0.8922     H
C       0.1916   0.2133   0.4268     C
H       0.1988   0.7526   0.4107     H
N       0.2064   0.1119   0.9159     N
C       0.2073    0.061    0.273     C
C       0.2088    0.648   0.3966     C
C         0.21   0.2392   0.9054     C
H       0.2144   0.2385   0.3471     H
H        0.222    0.208   0.5036     H
Cu      0.2442  0.49003  0.38754    Cu
C        0.249   0.2504   0.3809     C
C       0.2549   0.2321   0.4727     C
N       0.2565   0.0578   0.3022     N
S       0.2569   0.5961   0.1127     S
H       0.2581   0.7667   0.8025     H
C       0.2611   0.7523   0.8794     C
S       0.2627   0.0126   0.4411     S
H       0.2631   0.2844   0.9001     H
C        0.272   0.1799   0.9088     C
H        0.295   0.7644   0.9584     H
C        0.305   0.7811   0.8338     C
H       0.3056   0.6532   0.3959     H
Cu      0.3173  0.02568  0.91985    Cu
C       0.3251   0.5988   0.0514     C
C        0.326   0.7813   0.9252     C
S       0.3264   0.5436   0.8809     S
N       0.3339   0.5969   0.0153     N
O       0.3396    0.849   0.4292     O
C        0.355   0.3036   0.3891     C
C        0.365   0.2847   0.4758     C
H       0.3685   0.1859    0.906     H
Cu      0.3782  0.04382  0.36642    Cu
S       0.3792    0.514   0.3159     S
S       0.3819   0.4975   0.4578     S
H       0.3917   0.3295   0.3594     H
H       0.4075   0.2943   0.5086     H
N       0.4097   0.1066    0.559     N
Cu      0.4137  0.03085  0.50555    Cu
N       0.4141   0.3227   0.4355     N
Mo     0.41541  0.93551  0.43091    Mo
O       0.4166   0.3835   0.8954     O
C        0.421   0.8332    0.833     C
N       0.4274   0.6273   0.7528     N
C       0.4323    0.151   0.5772     C
S       0.4328    0.044    0.997     S
C        0.435   0.8339   0.9208     C
C       0.4378   0.6717   0.7356     C
S       0.4462   0.7509   0.7028     S
S        0.449   0.2282   0.6127     S
Cu      0.4583  0.58012  0.94974    Cu
Cu      0.4593  0.55759  0.80991    Cu
H       0.4598   0.8482   0.8004     H
S       0.4716   0.0391   0.8562     S
N       0.4798   0.8623   0.8757     N
H        0.481   0.8511   0.9516     H
Mo      0.4882  0.46898  0.88751    Mo
Mo      0.5118  0.53102  0.38751    Mo
H        0.519   0.1489   0.4516     H
N       0.5202   0.1377   0.3757     N
S       0.5284   0.9609   0.3562     S
H       0.5402   0.1518   0.3004     H
Cu      0.5407  0.44241  0.30991    Cu
Cu      0.5417  0.41988  0.44974    Cu
S        0.551   0.7718   0.1127     S
S       0.5538   0.2491   0.2028     S
C       0.5622   0.3283   0.2356     C
C        0.565   0.1661   0.4208     C
S       0.5672    0.956    0.497     S
C       0.5677    0.849   0.0772     C
N       0.5726   0.3727   0.2528     N
C        0.579   0.1668    0.333     C
O       0.5834   0.6165   0.3954     O
Mo     0.58459  0.06449  0.93091    Mo
N       0.5859   0.6773   0.9355     N
Cu      0.5863  0.96915  0.00555    Cu
N       0.5903   0.8934    0.059     N
H       0.5925   0.7057   0.0086     H
H       0.6083   0.6705   0.8594     H
S       0.6181   0.5025   0.9578     S
S       0.6208    0.486   0.8159     S
Cu      0.6218  0.95618  0.86642    Cu
H       0.6315   0.8141    0.406     H
C        0.635   0.7153   0.9758     C
C        0.645   0.6964   0.8891     C
O       0.6604    0.151   0.9292     O
N       0.6661   0.4031   0.5153     N
S       0.6736   0.4564   0.3809     S
C        0.674   0.2187   0.4252     C
C       0.6749   0.4012   0.5514     C
Cu      0.6827  0.97432  0.41985    Cu
H       0.6944   0.3468   0.8959     H
C        0.695   0.2189   0.3338     C
H        0.705   0.2356   0.4584     H
C        0.728   0.8201   0.4088     C
H       0.7369   0.7156   0.4001     H
S       0.7373   0.9874   0.9411     S
C       0.7389   0.2477   0.3794     C
H       0.7419   0.2333   0.3025     H
S       0.7431   0.4039   0.6127     S
N       0.7435   0.9422   0.8022     N
C       0.7451   0.7679   0.9727     C
C        0.751   0.7496   0.8809     C
Cu      0.7558  0.50997  0.88754    Cu
H        0.778    0.792   0.0036     H
H       0.7856   0.7615   0.8471     H
C         0.79   0.7608   0.4054     C
C       0.7912    0.352   0.8966     C
C       0.7927    0.939    0.773     C
N       0.7936   0.8881   0.4159     N
H       0.8012   0.2474   0.9107     H
C       0.8084   0.7867   0.9268     C
H       0.8303   0.6264   0.3922     H
H       0.8355   0.0723   0.4932     H
N       0.8374    0.053   0.4184     N
C       0.8535   0.2926   0.9041     C
C       0.8597   0.3024   0.3846     C
H       0.8598   0.0646   0.3404     H
N       0.8634   0.4189   0.8902     N
H       0.8717   0.3228   0.3077     H
C        0.885   0.0839    0.462     C
H       0.8936    0.307   0.4612     H
C        0.898   0.0806   0.3729     C
H       0.9076   0.1613   0.9198     H
S         0.91   0.9397    0.724     S
N       0.9105     0.59   0.8869     N
C        0.912    0.337   0.3402     C
C        0.923   0.8901   0.4198     C
C       0.9248   0.3274   0.4289     C
C       0.9272   0.6331   0.3932     C
C        0.929   0.8417   0.9219     C
C       0.9291    0.765   0.4095     C
H       0.9347   0.6053   0.9614     H
H       0.9449   0.8507   0.8426     H
H       0.9466   0.5812   0.8103     H
H       0.9541     0.53   0.3785     H
H       0.9642   0.8524   0.9977     H
C        0.971   0.6214   0.9286     C
H       0.9747   0.9357   0.4252     H
C        0.975   0.6066   0.8411     C
C        0.986   0.8681   0.8742     C
C        0.996   0.8315   0.4167     C
C       0.9971   0.4244   0.8864     C
C        0.998   0.2997   0.9017     C
C        0.998   0.8679   0.9645     C
