data_I
_chemical_name_common  '/home/zhangsd/repos/MofS-CGCNN/ML/data/WS24/clean_cifs/Cu-HF'
_cell_length_a 18.72340
_cell_length_b  7.27101
_cell_length_c 20.48140
_cell_angle_alpha 90.00000
_cell_angle_beta  107.02300
_cell_angle_gamma 90.00000
_space_group_name_H-M_alt      'P 1'


loop_
_space_group_symop_operation_xyz
  'x, y, z' 

loop_
_atom_site_label
_atom_site_fract_x
_atom_site_fract_y
_atom_site_fract_z
_atom_site_type_symbol
O     0.0047314  0.01744 0.1083812     O
F     0.0103512  0.31824 0.4290212     F
F     0.0154413  0.73364 0.4340511     F
C      0.01782  0.39247  0.37172     C
H       0.0235   0.0021   0.2316     H
F     0.0238913  0.25304 0.3316912     F
Cu    0.027902 0.853496 0.978002    Cu
C      0.03622  0.86337 0.1166218     C
C      0.04002  0.88115 0.2393117     C
H       0.0402   0.8742   0.3376     H
F     0.0463511  0.52404 0.6593112     F
C      0.05032  0.80495 0.3031518     C
C      0.05352  0.78255 0.1870017     C
O     0.0540214  0.77084 0.0720412     O
O     0.0708913  0.25864 0.0418113     O
C     0.0755318  0.62595 0.3161317     C
C      0.07882  0.60325  0.19922     C
C      0.08262  0.65817 0.4428918     C
C      0.08462  0.52475 0.3839617     C
O     0.0874612  0.64434 0.9356912     O
H       0.0881   0.5339   0.1644     H
H       0.0893   0.3463   0.8684     H
C      0.09032  0.52765 0.2635318     C
F     0.0999813  0.57094 0.502601     F
H       0.1082    0.408   0.2716     H
O     0.1183513  0.01444 0.0038512     O
C      0.12372  0.17455 0.0301617     C
F     0.1260613  0.13024 0.6760013     F
H       0.1283   0.1449   0.7995     H
H       0.1297   0.1941   0.4443     H
F     0.1311913  0.79434 0.4490211     F
C      0.13352  0.36887  0.85792     C
C      0.14652  0.66107 0.9233818     C
C      0.15692  0.24855  0.81642     C
H       0.1605   0.9017    0.968     H
C      0.16142  0.42755 0.4081017     C
H       0.1653   0.5017   0.0813     H
F     0.1683016  0.89744 0.7396016     F
C      0.17062  0.25547  0.43772     C
C      0.17552  0.52315 0.8838718     C
C      0.18724  0.03527  0.70494     C
H       0.1897   0.4499   0.6813     H
O     0.1906616  0.80354 0.9420116     O
C      0.19892  0.26505 0.0498517     C
C      0.20692  0.43825 0.0771417     C
F     0.2091316  0.95884 0.6548316     F
H       0.2187   0.6358   0.3827     H
C      0.22232  0.27945  0.79972     C
C      0.22382  0.51855 0.4016318     C
H       0.2264   0.6479     0.61     H
C      0.23462  0.42955  0.67182     C
C      0.23982  0.17387  0.45772     C
C      0.24322  0.54947  0.87052     C
H       0.2451   0.0562   0.4763     H
C         0.25  0.15788     0.75     C
H       0.2549   0.0562   0.0237     H
C      0.25682  0.54947  0.62952     C
C      0.26022  0.17387  0.04232     C
C      0.26542  0.42955  0.82822     C
H       0.2736   0.6479     0.89     H
C      0.27622  0.51855 0.0983718     C
C      0.27772  0.27945  0.70032     C
H       0.2813   0.6358   0.1173     H
F     0.2908716  0.95884 0.8451716     F
C      0.29312  0.43825 0.4228617     C
C      0.30112  0.26505 0.4501517     C
O     0.3093416  0.80354 0.5579916     O
H       0.3103   0.4499   0.8187     H
C      0.31284  0.03527  0.79514     C
C      0.32452  0.52315 0.6161318     C
C      0.32942  0.25547  0.06232     C
F     0.3317016  0.89744 0.7604016     F
H       0.3347   0.5017   0.4187     H
C      0.33862  0.42755 0.0919017     C
H       0.3395   0.9017    0.532     H
C      0.34312  0.24855  0.68362     C
C      0.35352  0.66107 0.5766218     C
C      0.36652  0.36887  0.64212     C
F     0.3688113  0.79434 0.0509811     F
H       0.3703   0.1941   0.0557     H
H       0.3717   0.1449   0.7005     H
F     0.3739413  0.13024 0.8240013     F
C      0.37632  0.17455 0.4698417     C
O     0.3816513  0.01444 0.4961512     O
H       0.3918    0.408   0.2284     H
F     0.4000213  0.57094 0.997401     F
C      0.40972  0.52765 0.2364718     C
H       0.4107   0.3463   0.6316     H
H       0.4119   0.5339   0.3356     H
O     0.4125412  0.64434 0.5643112     O
C      0.41542  0.52475 0.1160417     C
C      0.41742  0.65817 0.0571118     C
C      0.42122  0.60325  0.30082     C
C     0.4244718  0.62595 0.1838717     C
O     0.4291113  0.25864 0.4581913     O
O     0.4459814  0.77084 0.4279612     O
C      0.44652  0.78255 0.3130017     C
C      0.44972  0.80495 0.1968518     C
F     0.4536511  0.52404 0.8406912     F
H       0.4598   0.8742   0.1624     H
C      0.46002  0.88115 0.2606917     C
C      0.46382  0.86337 0.3833818     C
Cu    0.472102 0.853496 0.522002    Cu
F     0.4761113  0.25304 0.1683112     F
H       0.4765   0.0021   0.2684     H
C      0.48222  0.39247  0.12832     C
F     0.4845613  0.73364 0.0659511     F
F     0.4896512  0.31824 0.0709812     F
O     0.4952714  0.01744 0.3916212     O
O     0.5047314  0.98264 0.6083812     O
F     0.5103512  0.68184 0.9290212     F
F     0.5154413  0.26644 0.9340511     F
C      0.51782  0.60767  0.87172     C
H       0.5235   0.9979   0.7316     H
F     0.5238913  0.74704 0.8316912     F
Cu    0.527902 0.146516 0.478002    Cu
C      0.53622  0.13677 0.6166218     C
C      0.54002  0.11895 0.7393117     C
H       0.5402   0.1258   0.8376     H
F     0.5463511  0.47604 0.1593112     F
C      0.55032  0.19515 0.8031518     C
C      0.55352  0.21755 0.6870017     C
O     0.5540214  0.22924 0.5720412     O
O     0.5708913  0.74144 0.5418113     O
C     0.5755318  0.37415 0.8161317     C
C      0.57882  0.39685  0.69922     C
C      0.58262  0.34197 0.9428918     C
C      0.58462  0.47535 0.8839617     C
O     0.5874612  0.35574 0.4356912     O
H       0.5881   0.4661   0.6644     H
H       0.5893   0.6537   0.3684     H
C      0.59032  0.47245 0.7635318     C
F     0.5999813  0.42914 0.002601     F
H       0.6082    0.592   0.7716     H
O     0.6183513  0.98564 0.5038512     O
C      0.62372  0.82555 0.5301617     C
F     0.6260613  0.86984 0.1760013     F
H       0.6283   0.8551   0.2995     H
H       0.6297   0.8059   0.9443     H
F     0.6311913  0.20574 0.9490211     F
C      0.63352  0.63127  0.35792     C
C      0.64652  0.33907 0.4233818     C
C      0.65692  0.75155  0.31642     C
H       0.6605   0.0983    0.468     H
C      0.66142  0.57255 0.9081017     C
H       0.6653   0.4983   0.5813     H
F     0.6683016  0.10264 0.2396016     F
C      0.67062  0.74467  0.93772     C
C      0.67552  0.47695 0.3838718     C
C      0.68724  0.96487  0.20494     C
H       0.6897   0.5501   0.1813     H
O     0.6906616  0.19654 0.4420116     O
C      0.69892  0.73505 0.5498517     C
C      0.70692  0.56185 0.5771417     C
F     0.7091316  0.04124 0.1548316     F
H       0.7187   0.3642   0.8827     H
C      0.72232  0.72065  0.29972     C
C      0.72382  0.48155 0.9016318     C
H       0.7264   0.3521     0.11     H
C      0.73462  0.57055  0.17182     C
C      0.73982  0.82627  0.95772     C
C      0.74322  0.45067  0.37052     C
H       0.7451   0.9438   0.9763     H
C         0.75  0.84228     0.25     C
H       0.7549   0.9438   0.5237     H
C      0.75682  0.45067  0.12952     C
C      0.76022  0.82627  0.54232     C
C      0.76542  0.57055  0.32822     C
H       0.7736   0.3521     0.39     H
C      0.77622  0.48155 0.5983718     C
C      0.77772  0.72065  0.20032     C
H       0.7813   0.3642   0.6173     H
F     0.7908716  0.04124 0.3451716     F
C      0.79312  0.56185 0.9228617     C
C      0.80112  0.73505 0.9501517     C
O     0.8093416  0.19654 0.0579916     O
H       0.8103   0.5501   0.3187     H
C      0.81284  0.96487  0.29514     C
C      0.82452  0.47695 0.1161318     C
C      0.82942  0.74467  0.56232     C
F     0.8317016  0.10264 0.2604016     F
H       0.8347   0.4983   0.9187     H
C      0.83862  0.57255 0.5919017     C
H       0.8395   0.0983    0.032     H
C      0.84312  0.75155  0.18362     C
C      0.85352  0.33907 0.0766218     C
C      0.86652  0.63127  0.14212     C
F     0.8688113  0.20574 0.5509811     F
H       0.8703   0.8059   0.5557     H
H       0.8717   0.8551   0.2005     H
F     0.8739413  0.86984 0.3240013     F
C      0.87632  0.82555 0.9698417     C
O     0.8816513  0.98564 0.9961512     O
H       0.8918    0.592   0.7284     H
F     0.9000213  0.42914 0.497401     F
C      0.90972  0.47245 0.7364718     C
H       0.9107   0.6537   0.1316     H
H       0.9119   0.4661   0.8356     H
O     0.9125412  0.35574 0.0643112     O
C      0.91542  0.47535 0.6160417     C
C      0.91742  0.34197 0.5571118     C
C      0.92122  0.39685  0.80082     C
C     0.9244718  0.37415 0.6838717     C
O     0.9291113  0.74144 0.9581913     O
O     0.9459814  0.22924 0.9279612     O
C      0.94652  0.21755 0.8130017     C
C      0.94972  0.19515 0.6968518     C
F     0.9536511  0.47604 0.3406912     F
H       0.9598   0.1258   0.6624     H
C      0.96002  0.11895 0.7606917     C
C      0.96382  0.13677 0.8833818     C
Cu    0.972102 0.146516 0.022002    Cu
F     0.9761113  0.74704 0.6683112     F
H       0.9765   0.9979   0.7684     H
C      0.98222  0.60767  0.62832     C
F     0.9845613  0.26644 0.5659511     F
F     0.9896512  0.68184 0.5709812     F
O     0.9952714  0.98264 0.8916212     O
