data_I
_chemical_name_common  '/home/zhangsd/repos/MofS-CGCNN/ML/data/WS24/clean_cifs/CUK-1'
_cell_length_a 17.07835
_cell_length_b 14.33384
_cell_length_c 10.77384
_cell_angle_alpha 90.00000
_cell_angle_beta  106.39701
_cell_angle_gamma 90.00000
_space_group_name_H-M_alt      'P 1'


loop_
_space_group_symop_operation_xyz
  'x, y, z' 

loop_
_atom_site_label
_atom_site_fract_x
_atom_site_fract_y
_atom_site_fract_z
_atom_site_type_symbol
Co         0.0 0.091483     0.75    Co
Co         0.0 0.908523     0.25    Co
O     0.020761 0.0806113 0.9498317     O
O     0.020761 0.9193913 0.4498317     O
H       0.0342   0.1322   0.9813     H
H       0.0342   0.8682   0.4813     H
O     0.0837211 0.1978213  0.77232     O
O     0.0837211 0.8021813  0.27232     O
O     0.0842311 0.0119813 0.2347317     O
O     0.0842311 0.9880213 0.7347317     O
Co    0.09359319 0.027482 0.552413    Co
Co    0.09359319 0.972522 0.052413    Co
C     0.1372816 0.0661118  0.30302     C
C     0.1372816 0.9338918  0.80302     C
C     0.1447316 0.2023618  0.73024     C
C     0.1447316 0.7976418  0.23024     C
O     0.1453912 0.0855913 0.4181318     O
O     0.1453912 0.9144113 0.9181318     O
O     0.1641011 0.1458713 0.6544418     O
O     0.1641011 0.8541313 0.1544418     O
H       0.1682   0.3052   0.9393     H
H       0.1682   0.6952   0.4393     H
N     0.1926613 0.0692916  0.12152     N
N     0.1926613 0.9307116  0.62152     N
C     0.1956816 0.1076117  0.23672     C
C     0.1956816 0.8923917  0.73672     C
C     0.2014616 0.2842218  0.77884     C
C     0.2014616 0.7157818  0.27884     C
C     0.2017718  0.32642  0.89484     C
C     0.2017718  0.67362  0.39484     C
C     0.2439917  0.10142  0.05834     C
C     0.2439917  0.89862  0.55834     C
H       0.2442   0.0702   0.9793     H
H       0.2442   0.9302   0.4793     H
H       0.2462   0.2062   0.3613     H
H       0.2462   0.7942   0.8613     H
C     0.2470416  0.18122  0.28944     C
C     0.2470416  0.81882  0.78944     C
C     0.2529616  0.31882  0.71064     C
C     0.2529616  0.68122  0.21064     C
H       0.2542   0.2942   0.6393     H
H       0.2542   0.7062   0.1393     H
C     0.2560117  0.39862  0.94174     C
C     0.2560117  0.60142  0.44174     C
H       0.2562   0.4302   0.0213     H
H       0.2562   0.5702   0.5213     H
C     0.2982318  0.17362  0.10524     C
C     0.2982318  0.82642  0.60524     C
C     0.2985416 0.2157818  0.22124     C
C     0.2985416 0.7842218  0.72124     C
C     0.3043216 0.3923917  0.76332     C
C     0.3043216 0.6076117  0.26332     C
N     0.3073413 0.4307116  0.87852     N
N     0.3073413 0.5692916  0.37852     N
H       0.3322   0.1952   0.0613     H
H       0.3322   0.8052   0.5613     H
O     0.3359011 0.3541313 0.3455618     O
O     0.3359011 0.6458713 0.8455618     O
O     0.3546112 0.4144113 0.5818718     O
O     0.3546112 0.5855913 0.0818718     O
C     0.3552716 0.2976418  0.26984     C
C     0.3552716 0.7023618  0.76984     C
C     0.3627216 0.4338918  0.69702     C
C     0.3627216 0.5661118  0.19702     C
Co    0.40640719 0.472522 0.447593    Co
Co    0.40640719 0.527482 0.947593    Co
O     0.4157711 0.4880213 0.7652717     O
O     0.4157711 0.5119813 0.2652717     O
O     0.4162811 0.3021813  0.22772     O
O     0.4162811 0.6978213  0.72772     O
H       0.4662   0.3682   0.0193     H
H       0.4662   0.6322   0.5193     H
O     0.479241 0.4193913 0.0501717     O
O     0.479241 0.5806113 0.5501717     O
Co         0.5 0.408523     0.25    Co
Co         0.5 0.591483     0.75    Co
O     0.520761 0.4193913 0.4498317     O
O     0.520761 0.5806113 0.9498317     O
H       0.5342   0.3682   0.4813     H
H       0.5342   0.6322   0.9813     H
O     0.5837211 0.3021813  0.27232     O
O     0.5837211 0.6978213  0.77232     O
O     0.5842311 0.4880213 0.7347317     O
O     0.5842311 0.5119813 0.2347317     O
Co    0.59359319 0.472522 0.052413    Co
Co    0.59359319 0.527482 0.552413    Co
C     0.6372816 0.4338918  0.80302     C
C     0.6372816 0.5661118  0.30302     C
C     0.6447316 0.2976418  0.23024     C
C     0.6447316 0.7023618  0.73024     C
O     0.6453912 0.4144113 0.9181318     O
O     0.6453912 0.5855913 0.4181318     O
O     0.6641011 0.3541313 0.1544418     O
O     0.6641011 0.6458713 0.6544418     O
H       0.6682   0.1952   0.4393     H
H       0.6682   0.8052   0.9393     H
N     0.6926613 0.4307116  0.62152     N
N     0.6926613 0.5692916  0.12152     N
C     0.6956816 0.3923917  0.73672     C
C     0.6956816 0.6076117  0.23672     C
C     0.7014616 0.2157818  0.27884     C
C     0.7014616 0.7842218  0.77884     C
C     0.7017718  0.17362  0.39484     C
C     0.7017718  0.82642  0.89484     C
C     0.7439917  0.39862  0.55834     C
C     0.7439917  0.60142  0.05834     C
H       0.7442   0.4302   0.4793     H
H       0.7442   0.5702   0.9793     H
H       0.7462   0.2942   0.8613     H
H       0.7462   0.7062   0.3613     H
C     0.7470416  0.31882  0.78944     C
C     0.7470416  0.68122  0.28944     C
C     0.7529616  0.18122  0.21064     C
C     0.7529616  0.81882  0.71064     C
H       0.7542   0.2062   0.1393     H
H       0.7542   0.7942   0.6393     H
C     0.7560117  0.10142  0.44174     C
C     0.7560117  0.89862  0.94174     C
H       0.7562   0.0702   0.5213     H
H       0.7562   0.9302   0.0213     H
C     0.7982318  0.32642  0.60524     C
C     0.7982318  0.67362  0.10524     C
C     0.7985416 0.2842218  0.72124     C
C     0.7985416 0.7157818  0.22124     C
C     0.8043216 0.1076117  0.26332     C
C     0.8043216 0.8923917  0.76332     C
N     0.8073413 0.0692916  0.37852     N
N     0.8073413 0.9307116  0.87852     N
H       0.8322   0.3052   0.5613     H
H       0.8322   0.6952   0.0613     H
O     0.8359011 0.1458713 0.8455618     O
O     0.8359011 0.8541313 0.3455618     O
O     0.8546112 0.0855913 0.0818718     O
O     0.8546112 0.9144113 0.5818718     O
C     0.8552716 0.2023618  0.76984     C
C     0.8552716 0.7976418  0.26984     C
C     0.8627216 0.0661118  0.19702     C
C     0.8627216 0.9338918  0.69702     C
Co    0.90640719 0.027482 0.947593    Co
Co    0.90640719 0.972522 0.447593    Co
O     0.9157711 0.0119813 0.2652717     O
O     0.9157711 0.9880213 0.7652717     O
O     0.9162811 0.1978213  0.72772     O
O     0.9162811 0.8021813  0.22772     O
H       0.9662   0.1322   0.5193     H
H       0.9662   0.8682   0.0193     H
O     0.979241 0.0806113 0.5501717     O
O     0.979241 0.9193913 0.0501717     O
