data_I
_chemical_name_common  '/home/zhangsd/repos/MofS-CGCNN/ML/data/WS24/clean_cifs/CUKWOV'
_cell_length_a 18.61955
_cell_length_b 18.61955
_cell_length_c 18.61955
_cell_angle_alpha 109.47122
_cell_angle_beta  109.47122
_cell_angle_gamma 109.47122
_space_group_name_H-M_alt      'P 1'


loop_
_space_group_symop_operation_xyz
  'x, y, z' 

loop_
_atom_site_label
_atom_site_fract_x
_atom_site_fract_y
_atom_site_fract_z
_atom_site_type_symbol
S          0.0  0.10562      0.5     S
O          0.0  0.18374      0.5     O
H          0.0  0.38312      0.5     H
O          0.0  0.42716      0.5     O
S          0.0  0.60562      0.5     S
O          0.0  0.68374      0.5     O
H          0.0  0.88312      0.5     H
O          0.0  0.92716      0.5     O
H       0.0032   0.2759   0.8769     H
N        0.005   0.7347   0.8865     N
O       0.0063   0.5555   0.4254     O
N      0.00842  0.16709  0.97473     N
N       0.0092   0.6917   0.2179     N
Cd    0.015753  0.93233 0.385173    Cd
N       0.0171   0.2671     0.25     N
N      0.01877  0.96311  0.27308     N
C       0.0188   0.2357   0.9609     C
N      0.02075  0.45872  0.16077     N
N      0.02527  0.03369  0.69236     N
N       0.0262   0.8083   0.3175     N
H       0.0283   0.7081   0.8638     H
N      0.02947  0.43022  0.21651     N
N      0.03369  0.02527  0.19236     N
N      0.03689  0.55566  0.80997     N
C       0.0391   0.0579   0.7748     C
N      0.04128  0.20205  0.06203     N
Cd    0.047157 0.114827  0.13058    Cd
N       0.0483   0.8577   0.6636     N
O       0.0492   0.9937   0.9191     O
O       0.0555   0.9254   0.0063     O
N      0.05566  0.30997  0.03689     N
C       0.0563   0.7016   0.3005     C
C       0.0579   0.0391   0.2748     C
N      0.06203  0.54128  0.70205     N
Cd     0.06767 0.583423 0.952843    Cd
C       0.0677   0.7747   0.3606     C
N      0.06978  0.28629  0.09925     N
O      0.07284  0.57284  0.07284     O
O       0.0746   0.6301   0.5809     O
O       0.0809   0.1301   0.5746     O
Cd    0.083423 0.452843  0.06767    Cd
O       0.0943   0.3102   0.4697     O
N      0.09925  0.56978  0.78629     N
H        0.101   0.2241   0.7273     H
S      0.10562      0.0      1.0     S
N       0.1135   0.1185   0.3482     N
Cd    0.114827 0.047157  0.63058    Cd
N       0.1153   0.8094   0.4517     N
H      0.11688  0.61688  0.11688     H
N       0.1185   0.1135   0.8482     N
H       0.1231   0.1263    0.899     H
O       0.1246   0.8405   0.5303     O
Cd       0.125    0.375     0.25    Cd
H       0.1263   0.1231    0.399     H
O       0.1301   0.0809   0.0746     O
Cd     0.13058 0.547157 0.614827    Cd
H       0.1362   0.1645   0.3443     H
C       0.1394   0.9141   0.7071     C
N      0.14002  0.47925  0.43797     N
N       0.1518   0.2703   0.7653     N
H       0.1557   0.3202   0.7919     H
N      0.15867  0.46631  0.99158     N
N      0.16077  0.52075  0.95872     N
N       0.1636   0.3577   0.5483     N
H       0.1645   0.1362   0.8443     H
N      0.16709  0.00842  0.47473     N
H       0.1798   0.9717   0.3355     H
N       0.1825   0.9908   0.7087     N
O      0.18374      0.0      0.0     O
N      0.18704  0.47053  0.40075     N
N      0.19003  0.22692  0.24569     N
N       0.1917   0.7179   0.0092     N
N      0.19236  0.53369  0.52527     N
C       0.1995   0.9011   0.7558     C
C       0.2016   0.8005   0.0563     C
N      0.20205  0.04128  0.56203     N
C       0.2071   0.4141   0.6394     C
H       0.2081   0.3638   0.0283     H
N       0.2087   0.4908   0.6825     N
N      0.21371  0.31296  0.28349     N
N      0.21651  0.52947  0.93022     N
C       0.2169   0.4421   0.9812     C
N       0.2179   0.5092   0.1917     N
H       0.2241    0.101   0.2273     H
C       0.2252   0.2643   0.7831     C
N      0.22692  0.19003  0.74569     N
H       0.2273   0.7241    0.601     H
N       0.2297    0.995   0.3815     N
N       0.2329   0.4829     0.25     N
N       0.2347   0.3865    0.005     N
C       0.2357   0.0188   0.4609     C
N      0.24569  0.69003  0.72692     N
N         0.25   0.5171   0.7671     N
Cd        0.25    0.625    0.875    Cd
N         0.25   0.7329   0.9829     N
N      0.25431  0.48123  0.94434     N
C       0.2558   0.4011   0.6995     C
C       0.2643   0.2252   0.2831     C
N       0.2653   0.7703   0.6518     N
N       0.2671   0.0171     0.75     N
N       0.2703   0.1518   0.2653     N
H       0.2727   0.3737   0.9968     H
N      0.27308  0.51877  0.46311     N
C       0.2747   0.8606   0.0677     C
C       0.2748   0.5579   0.5391     C
H       0.2759   0.0032   0.3769     H
N       0.2821   0.9738   0.7913     N
C       0.2831   0.7643   0.7252     C
N      0.28349  0.71371  0.81296     N
O       0.2841   0.6898   0.1595     O
N      0.28629  0.06978  0.59925     N
N       0.2913   0.4738   0.7821     N
H       0.2919   0.8202   0.6557     H
C        0.293   0.5859   0.2253     C
N      0.29795  0.35998  0.33923     N
N       0.3059   0.6423   0.1906     N
N      0.30764  0.33291  0.84133     N
N       0.3083   0.8175   0.0262     N
N       0.3094   0.9517   0.1153     N
N      0.30997  0.05566  0.53689     N
O       0.3102   0.0943   0.9697     O
N      0.31296  0.21371  0.78349     N
O      0.31626  0.81626  0.31626     O
N       0.3175   0.5262   0.3083     N
H       0.3202   0.1557   0.2919     H
N      0.33291  0.30764  0.34133     N
H       0.3355   0.6798   0.4717     H
N      0.33923  0.79795  0.85998     N
O       0.3405   0.0303   0.1246     O
N      0.34133  0.83291  0.80764     N
H       0.3443   0.6362   0.6645     H
N       0.3482   0.6135   0.6185     N
C       0.3547   0.5989   0.2984     C
N       0.3577   0.1636   0.0483     N
N      0.35998  0.29795  0.83923     N
H       0.3638   0.2081   0.5283     H
Cd     0.36942 0.484247 0.916577    Cd
O       0.3699   0.9445   0.4508     O
H       0.3737   0.2727   0.4968     H
Cd       0.375    0.125     0.75    Cd
H       0.3769   0.7759   0.5032     H
N       0.3815   0.7297    0.495     N
H      0.38312      0.0      1.0     H
Cd    0.385173 0.515753  0.43233    Cd
N       0.3865   0.2347    0.505     N
S      0.39438  0.89438  0.39438     S
H        0.399   0.6263   0.6231     H
N      0.40075  0.68704  0.97053     N
C       0.4011   0.2558   0.1995     C
C       0.4141   0.2071   0.1394     C
Cd    0.416577 0.984247  0.86942    Cd
O       0.4191   0.4937   0.5492     O
O       0.4254   0.5063   0.0555     O
O      0.42716      0.0      1.0     O
N      0.43022  0.02947  0.71651     N
Cd     0.43233 0.885173 0.015753    Cd
N      0.43797  0.64002  0.97925     N
C       0.4421   0.2169   0.4812     C
N      0.44434  0.98123  0.75431     N
O       0.4445   0.9508   0.3699     O
O       0.4508   0.8699   0.4445     O
Cd    0.452843 0.083423  0.56767    Cd
N      0.45872  0.02075  0.66077     N
C       0.4609   0.7357   0.5188     C
N      0.46311  0.77308  0.01877     N
N      0.46631  0.15867  0.49158     N
O       0.4697   0.5943   0.8102     O
N      0.47053  0.18704  0.90075     N
H       0.4717   0.8355   0.1798     H
N       0.4738   0.2913   0.2821     N
N      0.47473  0.66709  0.50842     N
N      0.47925  0.14002  0.93797     N
C       0.4812   0.9421   0.7169     C
N      0.48123  0.25431  0.44434     N
N       0.4829   0.2329     0.75     N
Cd    0.484247  0.36942 0.416577    Cd
N       0.4908   0.2087   0.1825     N
N      0.49158  0.96631  0.65867     N
O       0.4937   0.4191   0.0492     O
N        0.495   0.8815   0.2297     N
H       0.4968   0.8737   0.7727     H
S          0.5      0.5  0.10562     S
O          0.5      0.5  0.18374     O
H          0.5      0.5  0.38312     H
O          0.5      0.5  0.42716     O
S          0.5      0.5  0.60562     S
O          0.5      0.5  0.68374     O
H          0.5      0.5  0.88312     H
O          0.5      0.5  0.92716     O
H       0.5032   0.8769   0.2759     H
N        0.505   0.8865   0.7347     N
O       0.5063   0.4254   0.5555     O
N      0.50842  0.97473  0.16709     N
N       0.5092   0.2179   0.6917     N
Cd    0.515753 0.385173  0.93233    Cd
N       0.5171     0.25   0.2671     N
N      0.51877  0.27308  0.96311     N
C       0.5188   0.9609   0.2357     C
N      0.52075  0.16077  0.45872     N
N      0.52527  0.69236  0.03369     N
N       0.5262   0.3175   0.8083     N
H       0.5283   0.8638   0.7081     H
N      0.52947  0.21651  0.43022     N
N      0.53369  0.19236  0.02527     N
N      0.53689  0.80997  0.55566     N
C       0.5391   0.7748   0.0579     C
N      0.54128  0.06203  0.20205     N
Cd    0.547157  0.13058 0.114827    Cd
N       0.5483   0.6636   0.8577     N
O       0.5492   0.9191   0.9937     O
O       0.5555   0.0063   0.9254     O
N      0.55566  0.03689  0.30997     N
C       0.5563   0.3005   0.7016     C
C       0.5579   0.2748   0.0391     C
N      0.56203  0.70205  0.54128     N
Cd     0.56767 0.952843 0.583423    Cd
C       0.5677   0.3606   0.7747     C
N      0.56978  0.09925  0.28629     N
O      0.57284  0.07284  0.57284     O
O       0.5746   0.5809   0.6301     O
O       0.5809   0.5746   0.1301     O
Cd    0.583423  0.06767 0.452843    Cd
O       0.5943   0.4697   0.3102     O
N      0.59925  0.78629  0.56978     N
H        0.601   0.7273   0.2241     H
S      0.60562      0.0      0.0     S
N       0.6135   0.3482   0.1185     N
Cd    0.614827  0.63058 0.047157    Cd
N       0.6153   0.4517   0.8094     N
H      0.61688  0.11688  0.61688     H
N       0.6185   0.8482   0.1135     N
H       0.6231    0.899   0.1263     H
O       0.6246   0.5303   0.8405     O
Cd       0.625     0.25    0.375    Cd
H       0.6263    0.399   0.1231     H
O       0.6301   0.0746   0.0809     O
Cd     0.63058 0.614827 0.547157    Cd
H       0.6362   0.3443   0.1645     H
C       0.6394   0.7071   0.9141     C
N      0.64002  0.43797  0.47925     N
N       0.6518   0.7653   0.2703     N
H       0.6557   0.7919   0.3202     H
N      0.65867  0.99158  0.46631     N
N      0.66077  0.95872  0.52075     N
N       0.6636   0.5483   0.3577     N
H       0.6645   0.8443   0.1362     H
N      0.66709  0.47473  0.00842     N
H       0.6798   0.3355   0.9717     H
N       0.6825   0.7087   0.9908     N
O      0.68374      0.0      0.0     O
N      0.68704  0.40075  0.47053     N
N      0.69003  0.24569  0.22692     N
N       0.6917   0.0092   0.7179     N
N      0.69236  0.52527  0.53369     N
C       0.6995   0.7558   0.9011     C
C       0.7016   0.0563   0.8005     C
N      0.70205  0.56203  0.04128     N
C       0.7071   0.6394   0.4141     C
H       0.7081   0.0283   0.3638     H
N       0.7087   0.6825   0.4908     N
N      0.71371  0.28349  0.31296     N
N      0.71651  0.93022  0.52947     N
C       0.7169   0.9812   0.4421     C
N       0.7179   0.1917   0.5092     N
H       0.7241   0.2273    0.101     H
C       0.7252   0.7831   0.2643     C
N      0.72692  0.74569  0.19003     N
H       0.7273    0.601   0.7241     H
N       0.7297   0.3815    0.995     N
N       0.7329     0.25   0.4829     N
N       0.7347    0.005   0.3865     N
C       0.7357   0.4609   0.0188     C
N      0.74569  0.72692  0.69003     N
N         0.75   0.7671   0.5171     N
Cd        0.75    0.875    0.625    Cd
N         0.75   0.9829   0.7329     N
N      0.75431  0.94434  0.48123     N
C       0.7558   0.6995   0.4011     C
C       0.7643   0.2831   0.2252     C
N       0.7653   0.6518   0.7703     N
N       0.7671     0.75   0.0171     N
N       0.7703   0.2653   0.1518     N
H       0.7727   0.9968   0.3737     H
N      0.77308  0.46311  0.51877     N
C       0.7747   0.0677   0.8606     C
C       0.7748   0.5391   0.5579     C
H       0.7759   0.3769   0.0032     H
N       0.7821   0.7913   0.9738     N
C       0.7831   0.7252   0.7643     C
N      0.78349  0.81296  0.71371     N
O       0.7841   0.1595   0.6898     O
N      0.78629  0.59925  0.06978     N
N       0.7913   0.7821   0.4738     N
H       0.7919   0.6557   0.8202     H
C        0.793   0.2253   0.5859     C
N      0.79795  0.33923  0.35998     N
N       0.8059   0.1906   0.6423     N
N      0.80764  0.84133  0.33291     N
N       0.8083   0.0262   0.8175     N
N       0.8094   0.1153   0.9517     N
N      0.80997  0.53689  0.05566     N
O       0.8102   0.9697   0.0943     O
N      0.81296  0.78349  0.21371     N
O      0.81626  0.31626  0.81626     O
N       0.8175   0.3083   0.5262     N
H       0.8202   0.2919   0.1557     H
N      0.83291  0.34133  0.30764     N
H       0.8355   0.4717   0.6798     H
N      0.83923  0.85998  0.79795     N
O       0.8405   0.1246   0.0303     O
N      0.84133  0.80764  0.83291     N
H       0.8443   0.6645   0.6362     H
N       0.8482   0.6185   0.6135     N
C       0.8547   0.2984   0.5989     C
N       0.8577   0.0483   0.1636     N
N      0.85998  0.83923  0.29795     N
H       0.8638   0.5283   0.2081     H
Cd     0.86942 0.916577 0.484247    Cd
O       0.8699   0.4508   0.9445     O
H       0.8737   0.4968   0.2727     H
Cd       0.875     0.75    0.125    Cd
H       0.8769   0.5032   0.7759     H
N       0.8815    0.495   0.7297     N
H      0.88312      0.0      1.0     H
Cd    0.885173  0.43233 0.515753    Cd
N       0.8865    0.505   0.2347     N
S      0.89438  0.39438  0.89438     S
H        0.899   0.6231   0.6263     H
N      0.90075  0.97053  0.68704     N
C       0.9011   0.1995   0.2558     C
C       0.9141   0.1394   0.2071     C
Cd    0.916577  0.86942 0.984247    Cd
O       0.9191   0.5492   0.4937     O
O       0.9254   0.0555   0.5063     O
O      0.92716      0.0      1.0     O
N      0.93022  0.71651  0.02947     N
Cd     0.93233 0.015753 0.885173    Cd
N      0.93797  0.97925  0.64002     N
C       0.9421   0.4812   0.2169     C
N      0.94434  0.75431  0.98123     N
O       0.9445   0.3699   0.9508     O
O       0.9508   0.4445   0.8699     O
Cd    0.952843  0.56767 0.083423    Cd
N      0.95872  0.66077  0.02075     N
C       0.9609   0.5188   0.7357     C
N      0.96311  0.01877  0.77308     N
N      0.96631  0.49158  0.15867     N
O       0.9697   0.8102   0.5943     O
N      0.97053  0.90075  0.18704     N
H       0.9717   0.1798   0.8355     H
N       0.9738   0.2821   0.2913     N
N      0.97473  0.50842  0.66709     N
N      0.97925  0.93797  0.14002     N
C       0.9812   0.7169   0.9421     C
N      0.98123  0.44434  0.25431     N
N       0.9829     0.75   0.2329     N
Cd    0.984247 0.416577  0.36942    Cd
N       0.9908   0.1825   0.2087     N
N      0.99158  0.65867  0.96631     N
O       0.9937   0.0492   0.4191     O
N        0.995   0.2297   0.8815     N
H       0.9968   0.7727   0.8737     H
