data_I
_chemical_name_common  '/home/zhangsd/repos/MofS-CGCNN/ML/data/WS24/clean_cifs/CUNFEX'
_cell_length_a  4.21080
_cell_length_b  8.93700
_cell_length_c 15.80585
_cell_angle_alpha 98.47919
_cell_angle_beta  97.65477
_cell_angle_gamma 90.00000
_space_group_name_H-M_alt      'P 1'


loop_
_space_group_symop_operation_xyz
  'x, y, z' 

loop_
_atom_site_label
_atom_site_fract_x
_atom_site_fract_y
_atom_site_fract_z
_atom_site_type_symbol
C       0.0138   0.2741   0.2472     C
N       0.0482   0.2467   0.3968     N
H        0.065   0.0919   0.7908     H
H       0.0673   0.4569     0.63     H
H       0.0752   0.3302   0.7382     H
C       0.1114   0.5271   0.8068     C
N      0.15332   0.3746  0.78864     N
C       0.2089   0.4026   0.2678     C
O       0.2145   0.6041    0.873     O
C       0.2263   0.1302   0.8346     C
C       0.2308   0.3724   0.4156     C
H       0.2742   0.9081   0.2092     H
C       0.3046   0.4729   0.1932     C
H       0.3054   0.4067   0.4732     H
C        0.314   0.4547    0.354     C
C       0.3161   0.2834   0.8466     C
H       0.3223   0.9338   0.8816     H
H        0.337   0.6698   0.2618     H
O       0.3415   0.3959    0.127     O
N      0.36468   0.6254  0.21136     N
C       0.3812   0.0356   0.8884     C
C       0.3917   0.8698   0.1654     C
H       0.4373   0.5431     0.37     H
H       0.4407   0.0662   0.1184     H
C       0.4695   0.7166   0.1534     C
C       0.4928   0.9644   0.1116     C
Cu      0.4979  0.88376   0.5114    Cu
H       0.5174   0.8872    0.701     H
C       0.5594   0.3379   0.9108     C
I     0.563286  0.16546 0.594872     I
H       0.6218   0.4393    0.918     H
C       0.6233   0.0953   0.9526     C
C       0.6304   0.7998   0.6868     C
C       0.6486   0.6621   0.0892     C
N       0.6514   0.7533   0.6032     N
C       0.6707   0.9047   0.0474     C
H       0.7038   0.5607    0.082     H
C       0.7102   0.2443   0.9644     C
H       0.7418   0.7614   0.8098     H
C       0.7458   0.7557   0.0356     C
C       0.7666   0.7259   0.7528     C
O        0.815      1.0      0.0     O
C       0.8152   0.6276   0.5844     C
H       0.8164   0.1128    0.299     H
H       0.8322   0.5933   0.5268     H
H        0.863   0.7173   0.9916     H
H       0.8714   0.2827   0.0084     H
H        0.932   0.2386   0.1902     H
C       0.9411   0.5974   0.7322     C
C       0.9436   0.2002   0.3132     C
C         0.96   0.5453    0.646     C
I     0.968414  0.83454 0.405128     I
Cu      0.9865  0.11624   0.4886    Cu
