data_I
_chemical_name_common  '/home/zhangsd/repos/MofS-CGCNN/ML/data/WS24/clean_cifs/CUNFOH01'
_cell_length_a 15.41910
_cell_length_b 15.41910
_cell_length_c 15.41910
_cell_angle_alpha 68.76910
_cell_angle_beta  73.99350
_cell_angle_gamma 111.23100
_space_group_name_H-M_alt      'P 1'


loop_
_space_group_symop_operation_xyz
  'x, y, z' 

loop_
_atom_site_label
_atom_site_fract_x
_atom_site_fract_y
_atom_site_fract_z
_atom_site_type_symbol
C       0.0047   0.8677   0.1936     C
C        0.007   0.0118   0.1062     C
C       0.0251   0.9073    0.932     C
H       0.0284   0.7443   0.2675     H
C       0.0325   0.2474   0.7281     C
H       0.0341   0.1659   0.0374     H
H       0.0457   0.9122   0.9855     H
N       0.0589   0.0923   0.8142     N
H       0.0734   0.2646   0.6568     H
H       0.0769   0.2971   0.7438     H
H       0.0848   0.9226   0.8728     H
N       0.1047   0.9415   0.1218     N
N       0.1067   0.0352   0.0657     N
H       0.1568   0.7302   0.0786     H
Cu     0.20558   0.1765  0.72598    Cu
H       0.2159   0.2041   0.5284     H
Cu     0.22598  0.93156  0.09752    Cu
C       0.2281   0.7606   0.0245     C
H       0.2325   0.7041   0.0118     H
H       0.2438   0.8207   0.9591     H
Cu      0.2456  0.16109  0.94745    Cu
I      0.25436   0.3348  0.82474     I
H       0.2798   0.3207   0.4231     H
C       0.2851   0.2606   0.4675     C
H       0.2954   0.4226   0.1622     H
H       0.2967   0.3341   0.1318     H
C       0.3064   0.8017   0.0613     C
H       0.3088   0.2302   0.4266     H
N       0.3142   0.8731   0.0935     N
I      0.32474   0.0791  0.84046     I
N       0.3368   0.2735   0.6047     N
H       0.3378   0.5424   0.5848     H
C       0.3393   0.4073   0.1178     C
I      0.34046   0.1652  0.08044     I
C        0.363   0.3017   0.5047     C
H       0.3665   0.4688   0.5457     H
H       0.3682   0.5715   0.4659     H
H       0.3728   0.9576   0.2046     H
N       0.3782   0.7735   0.0633     N
C        0.382   0.4882   0.0048     C
C       0.3822   0.5429   0.5251     C
Cu     0.39146  0.33891  0.91549    Cu
C       0.3938   0.8868    0.118     C
H       0.3977   0.4122   0.1335     H
N       0.3991   0.4648   0.9285     N
Cu     0.40248   0.6765  0.02908    Cu
N       0.4065   0.5923   0.9666     N
Cu     0.41549  0.30695   0.7456    Cu
I      0.41956   0.5791  0.24564     I
H       0.4214   0.7646   0.8088     H
N       0.4285   0.3276   0.6067     N
C        0.432   0.9571   0.1607     C
N       0.4343   0.8276   0.1009     N
N       0.4367   0.5585   0.8368     N
C       0.4387   0.6323    0.863     C
Cu     0.44745  0.19305  0.89146    Cu
H       0.4591   0.2029   0.2202     H
H       0.4626   0.9285   0.2033     H
N       0.4666   0.3731   0.4411     N
Cu     0.47092  0.56844  0.70558    Cu
C       0.4755   0.7474   0.7851     C
H       0.4855   0.0312   0.1023     H
H       0.4882   0.7557   0.7159     H
C       0.4952   0.6132    0.493     C
C       0.5048   0.3868    0.507     C
H       0.5118   0.2443   0.2841     H
H       0.5145   0.9688   0.8977     H
C       0.5245   0.2526   0.2149     C
Cu     0.52908  0.43156  0.29442    Cu
N       0.5334   0.6269   0.5589     N
H       0.5374   0.0715   0.7967     H
H       0.5409   0.7971   0.7798     H
Cu     0.55255  0.80695  0.10854    Cu
C       0.5613   0.3677    0.137     C
N       0.5633   0.4415   0.1632     N
N       0.5657   0.1724   0.8991     N
C        0.568   0.0429   0.8393     C
N       0.5715   0.6724   0.3933     N
H       0.5786   0.2354   0.1912     H
I      0.58044   0.4209  0.75436     I
Cu     0.58451  0.69305   0.2544    Cu
N       0.5935   0.4077   0.0334     N
Cu     0.59752   0.3235  0.97092    Cu
N       0.6009   0.5352   0.0715     N
H       0.6023   0.5878   0.8665     H
C       0.6062   0.1132    0.882     C
Cu     0.60854  0.66109  0.08451    Cu
C       0.6178   0.4571   0.4749     C
C        0.618   0.5118   0.9952     C
N       0.6218   0.2265   0.9367     N
H       0.6272   0.0424   0.7954     H
H       0.6318   0.4285   0.5341     H
H       0.6335   0.5312   0.4543     H
C        0.637   0.6983   0.4953     C
I      0.65954   0.8348  0.91956     I
C       0.6607   0.5927   0.8822     C
H       0.6622   0.4576   0.4152     H
N       0.6632   0.7265   0.3953     N
I      0.67526   0.9209  0.15954     I
N       0.6858   0.1269   0.9065     N
H       0.6912   0.7698   0.5734     H
C       0.6936   0.1983   0.9387     C
H       0.7033   0.6659   0.8682     H
H       0.7046   0.5774   0.8378     H
C       0.7149   0.7394   0.5325     C
H       0.7202   0.6793   0.5769     H
I      0.74564   0.6652  0.17526     I
Cu      0.7544  0.83891  0.05255    Cu
H       0.7562   0.1793   0.0409     H
H       0.7675   0.2959   0.9882     H
C       0.7719   0.2394   0.9755     C
Cu     0.77402  0.06844  0.90248    Cu
H       0.7841   0.7959   0.4716     H
Cu     0.79442   0.8235  0.27402    Cu
H       0.8432   0.2698   0.9214     H
N       0.8933   0.9648   0.9343     N
N       0.8953   0.0585   0.8782     N
H       0.9152   0.0774   0.1272     H
H       0.9231   0.7029   0.2562     H
H       0.9266   0.7354   0.3432     H
N       0.9411   0.9077   0.1858     N
H       0.9543   0.0878   0.0145     H
H       0.9659   0.8341   0.9626     H
C       0.9675   0.7526   0.2719     C
H       0.9716   0.2557   0.7325     H
C       0.9749   0.0927    0.068     C
C        0.993   0.9882   0.8938     C
C       0.9953   0.1323   0.8064     C
