data_I
_chemical_name_common  '/home/zhangsd/repos/MofS-CGCNN/ML/data/WS24/clean_cifs/DAGJAZ'
_cell_length_a 22.19800
_cell_length_b 22.19800
_cell_length_c 22.19800
_cell_angle_alpha 90.00000
_cell_angle_beta  90.00000
_cell_angle_gamma 90.00000
_space_group_name_H-M_alt      'P 1'


loop_
_space_group_symop_operation_xyz
  'x, y, z' 

loop_
_atom_site_label
_atom_site_fract_x
_atom_site_fract_y
_atom_site_fract_z
_atom_site_type_symbol
Cd         0.0  0.37466  0.37466    Cd
Cd         0.0  0.37466  0.62534    Cd
Cd         0.0  0.62534  0.37466    Cd
Cd         0.0  0.62534  0.62534    Cd
H       0.0233    0.221   0.6098     H
H       0.0233   0.3902    0.221     H
H       0.0233   0.6098    0.779     H
H       0.0233    0.779   0.3902     H
C       0.0521   0.2366    0.636     C
C       0.0521    0.364   0.2366     C
C       0.0521    0.636   0.7634     C
C       0.0521   0.7634    0.364     C
O      0.05653   0.3917   0.4555     O
O      0.05653   0.4555   0.6083     O
O      0.05653   0.5445   0.3917     O
O      0.05653   0.6083   0.5445     O
N       0.0602   0.2964   0.6473     N
N       0.0602   0.3527   0.2964     N
N       0.0602   0.6473   0.7036     N
N       0.0602   0.7036   0.3527     N
O       0.0673   0.2961   0.4312     O
O       0.0673   0.4312   0.7039     O
O       0.0673   0.5688   0.2961     O
O       0.0673   0.7039   0.5688     O
C       0.0809    0.341   0.4626     C
C       0.0809   0.4626    0.659     C
C       0.0809   0.5374    0.341     C
C       0.0809    0.659   0.5374     C
C       0.0917   0.2027   0.6679     C
C       0.0917   0.3321   0.2027     C
C       0.0917   0.6679   0.7973     C
C       0.0917   0.7973   0.3321     C
H       0.0955    0.161   0.6677     H
H       0.0955   0.3323    0.161     H
H       0.0955   0.6677    0.839     H
H       0.0955    0.839   0.3323     H
C       0.1041   0.2992    0.686     C
C       0.1041    0.314   0.2992     C
C       0.1041    0.686   0.7008     C
C       0.1041   0.7008    0.314     C
H       0.1192   0.2984   0.3351     H
H       0.1192   0.3351   0.7016     H
H       0.1192   0.6649   0.2984     H
H       0.1192   0.7016   0.6649     H
N       0.1252    0.244   0.7009     N
N       0.1252   0.2991    0.244     N
N       0.1252   0.7009    0.756     N
N       0.1252    0.756   0.2991     N
C       0.1306   0.3344   0.5075     C
C       0.1306   0.4925   0.3344     C
C       0.1306   0.5075   0.6656     C
C       0.1306   0.6656   0.4925     C
H       0.1384   0.2446   0.5054     H
H       0.1384   0.4946   0.2446     H
H       0.1384   0.5054   0.7554     H
H       0.1384   0.7554   0.4946     H
H       0.1403   0.4236   0.5241     H
H       0.1403   0.4759   0.4236     H
H       0.1403   0.5241   0.5764     H
H       0.1403   0.5764   0.4759     H
C       0.1538   0.2793   0.5232     C
C       0.1538   0.4768   0.2793     C
C       0.1538   0.5232   0.7207     C
C       0.1538   0.7207   0.4768     C
C       0.1551   0.3858   0.5342     C
C       0.1551   0.4658   0.3858     C
C       0.1551   0.5342   0.6142     C
C       0.1551   0.6142   0.4658     C
H        0.159   0.2051   0.3039     H
H        0.159   0.3039   0.7949     H
H        0.159   0.6961   0.2051     H
H        0.159   0.7949   0.6961     H
H        0.161   0.0955   0.3323     H
H        0.161   0.3323   0.9045     H
H        0.161   0.6677   0.0955     H
H        0.161   0.9045   0.6677     H
C       0.1734   0.2323   0.7413     C
C       0.1734   0.2587   0.2323     C
C       0.1734   0.7413   0.7677     C
C       0.1734   0.7677   0.2587     C
C       0.1837   0.2116   0.2707     C
C       0.1837   0.2707   0.7884     C
C       0.1837   0.7293   0.2116     C
C       0.1837   0.7884   0.7293     C
C       0.1998   0.2746   0.5654     C
C       0.1998   0.4346   0.2746     C
C       0.1998   0.5654   0.7254     C
C       0.1998   0.7254   0.4346     C
C        0.201   0.3809   0.5756     C
C        0.201   0.4244   0.3809     C
C        0.201   0.5756   0.6191     C
C        0.201   0.6191   0.4244     C
C       0.2027   0.0917   0.3321     C
C       0.2027   0.3321   0.9083     C
C       0.2027   0.6679   0.0917     C
C       0.2027   0.9083   0.6679     C
H       0.2051    0.159   0.6961     H
H       0.2051   0.3039    0.159     H
H       0.2051   0.6961    0.841     H
H       0.2051    0.841   0.3039     H
C       0.2116   0.1837   0.7293     C
C       0.2116   0.2707   0.1837     C
C       0.2116   0.7293   0.8163     C
C       0.2116   0.8163   0.2707     C
H       0.2145   0.2368   0.5758     H
H       0.2145   0.4242   0.2368     H
H       0.2145   0.5758   0.7632     H
H       0.2145   0.7632   0.4242     H
H       0.2167   0.4074   0.4158     H
H       0.2167   0.4158   0.5926     H
H       0.2167   0.5842   0.4074     H
H       0.2167   0.5926   0.5842     H
H        0.221   0.0233   0.3902     H
H        0.221   0.3902   0.9767     H
H        0.221   0.6098   0.0233     H
H        0.221   0.9767   0.6098     H
C       0.2244   0.3261   0.5924     C
C       0.2244   0.4076   0.3261     C
C       0.2244   0.5924   0.6739     C
C       0.2244   0.6739   0.4076     C
C       0.2323   0.1734   0.2587     C
C       0.2323   0.2587   0.8266     C
C       0.2323   0.7413   0.1734     C
C       0.2323   0.8266   0.7413     C
C       0.2366   0.0521    0.364     C
C       0.2366    0.364   0.9479     C
C       0.2366    0.636   0.0521     C
C       0.2366   0.9479    0.636     C
H       0.2368   0.2145   0.4242     H
H       0.2368   0.4242   0.7855     H
H       0.2368   0.5758   0.2145     H
H       0.2368   0.7855   0.5758     H
N        0.244   0.1252   0.2991     N
N        0.244   0.2991   0.8748     N
N        0.244   0.7009   0.1252     N
N        0.244   0.8748   0.7009     N
H       0.2446   0.1384   0.4946     H
H       0.2446   0.4946   0.8616     H
H       0.2446   0.5054   0.1384     H
H       0.2446   0.8616   0.5054     H
H        0.247   0.3113   0.3938     H
H        0.247   0.3938   0.6887     H
H        0.247   0.6062   0.3113     H
H        0.247   0.6887   0.6062     H
C       0.2587   0.1734   0.7677     C
C       0.2587   0.2323   0.1734     C
C       0.2587   0.7677   0.8266     C
C       0.2587   0.8266   0.2323     C
C       0.2707   0.1837   0.2116     C
C       0.2707   0.2116   0.8163     C
C       0.2707   0.7884   0.1837     C
C       0.2707   0.8163   0.7884     C
C       0.2722   0.3224   0.6388     C
C       0.2722   0.3612   0.3224     C
C       0.2722   0.6388   0.6776     C
C       0.2722   0.6776   0.3612     C
C       0.2746   0.1998   0.4346     C
C       0.2746   0.4346   0.8002     C
C       0.2746   0.5654   0.1998     C
C       0.2746   0.8002   0.5654     C
C        0.276   0.3145   0.3637     C
C        0.276   0.3637   0.6855     C
C        0.276   0.6363   0.3145     C
C        0.276   0.6855   0.6363     C
C       0.2793   0.1538   0.4768     C
C       0.2793   0.4768   0.8462     C
C       0.2793   0.5232   0.1538     C
C       0.2793   0.8462   0.5232     C
O       0.2961   0.0673   0.5688     O
O       0.2961   0.4312   0.0673     O
O       0.2961   0.5688   0.9327     O
O       0.2961   0.9327   0.4312     O
N       0.2964   0.0602   0.3527     N
N       0.2964   0.3527   0.9398     N
N       0.2964   0.6473   0.0602     N
N       0.2964   0.9398   0.6473     N
H       0.2984   0.1192   0.6649     H
H       0.2984   0.3351   0.1192     H
H       0.2984   0.6649   0.8808     H
H       0.2984   0.8808   0.3351     H
N       0.2991   0.1252    0.756     N
N       0.2991    0.244   0.1252     N
N       0.2991    0.756   0.8748     N
N       0.2991   0.8748    0.244     N
C       0.2992   0.1041    0.314     C
C       0.2992    0.314   0.8959     C
C       0.2992    0.686   0.1041     C
C       0.2992   0.8959    0.686     C
H       0.3039    0.159   0.2051     H
H       0.3039   0.2051    0.841     H
H       0.3039   0.7949    0.159     H
H       0.3039    0.841   0.7949     H
H       0.3113    0.247   0.6062     H
H       0.3113   0.3938    0.247     H
H       0.3113   0.6062    0.753     H
H       0.3113    0.753   0.3938     H
C        0.314   0.1041   0.7008     C
C        0.314   0.2992   0.1041     C
C        0.314   0.7008   0.8959     C
C        0.314   0.8959   0.2992     C
C       0.3145    0.276   0.6363     C
C       0.3145   0.3637    0.276     C
C       0.3145   0.6363    0.724     C
C       0.3145    0.724   0.3637     C
C       0.3224   0.2722   0.3612     C
C       0.3224   0.3612   0.7278     C
C       0.3224   0.6388   0.2722     C
C       0.3224   0.7278   0.6388     C
C       0.3261   0.2244   0.4076     C
C       0.3261   0.4076   0.7756     C
C       0.3261   0.5924   0.2244     C
C       0.3261   0.7756   0.5924     C
C       0.3321   0.0917   0.7973     C
C       0.3321   0.2027   0.0917     C
C       0.3321   0.7973   0.9083     C
C       0.3321   0.9083   0.2027     C
H       0.3323   0.0955    0.839     H
H       0.3323    0.161   0.0955     H
H       0.3323    0.839   0.9045     H
H       0.3323   0.9045    0.161     H
C       0.3344   0.1306   0.4925     C
C       0.3344   0.4925   0.8694     C
C       0.3344   0.5075   0.1306     C
C       0.3344   0.8694   0.5075     C
H       0.3351   0.1192   0.2984     H
H       0.3351   0.2984   0.8808     H
H       0.3351   0.7016   0.1192     H
H       0.3351   0.8808   0.7016     H
C        0.341   0.0809   0.5374     C
C        0.341   0.4626   0.0809     C
C        0.341   0.5374   0.9191     C
C        0.341   0.9191   0.4626     C
N       0.3527   0.0602   0.7036     N
N       0.3527   0.2964   0.0602     N
N       0.3527   0.7036   0.9398     N
N       0.3527   0.9398   0.2964     N
C       0.3612   0.2722   0.6776     C
C       0.3612   0.3224   0.2722     C
C       0.3612   0.6776   0.7278     C
C       0.3612   0.7278   0.3224     C
C       0.3637    0.276   0.3145     C
C       0.3637   0.3145    0.724     C
C       0.3637   0.6855    0.276     C
C       0.3637    0.724   0.6855     C
C        0.364   0.0521   0.7634     C
C        0.364   0.2366   0.0521     C
C        0.364   0.7634   0.9479     C
C        0.364   0.9479   0.2366     C
Cd     0.37466      0.0  0.37466    Cd
Cd     0.37466      0.0  0.62534    Cd
Cd     0.37466  0.37466      0.0    Cd
Cd     0.37466  0.62534      0.0    Cd
C       0.3809    0.201   0.4244     C
C       0.3809   0.4244    0.799     C
C       0.3809   0.5756    0.201     C
C       0.3809    0.799   0.5756     C
C       0.3858   0.1551   0.4658     C
C       0.3858   0.4658   0.8449     C
C       0.3858   0.5342   0.1551     C
C       0.3858   0.8449   0.5342     C
H       0.3902   0.0233    0.779     H
H       0.3902    0.221   0.0233     H
H       0.3902    0.779   0.9767     H
H       0.3902   0.9767    0.221     H
O       0.3917  0.05653   0.5445     O
O       0.3917   0.4555  0.05653     O
O       0.3917   0.5445  0.94347     O
O       0.3917  0.94347   0.4555     O
H       0.3938    0.247   0.3113     H
H       0.3938   0.3113    0.753     H
H       0.3938   0.6887    0.247     H
H       0.3938    0.753   0.6887     H
H       0.4074   0.2167   0.5842     H
H       0.4074   0.4158   0.2167     H
H       0.4074   0.5842   0.7833     H
H       0.4074   0.7833   0.4158     H
C       0.4076   0.2244   0.6739     C
C       0.4076   0.3261   0.2244     C
C       0.4076   0.6739   0.7756     C
C       0.4076   0.7756   0.3261     C
H       0.4158   0.2167   0.4074     H
H       0.4158   0.4074   0.7833     H
H       0.4158   0.5926   0.2167     H
H       0.4158   0.7833   0.5926     H
H       0.4236   0.1403   0.4759     H
H       0.4236   0.4759   0.8597     H
H       0.4236   0.5241   0.1403     H
H       0.4236   0.8597   0.5241     H
H       0.4242   0.2145   0.7632     H
H       0.4242   0.2368   0.2145     H
H       0.4242   0.7632   0.7855     H
H       0.4242   0.7855   0.2368     H
C       0.4244    0.201   0.6191     C
C       0.4244   0.3809    0.201     C
C       0.4244   0.6191    0.799     C
C       0.4244    0.799   0.3809     C
O       0.4312   0.0673   0.2961     O
O       0.4312   0.2961   0.9327     O
O       0.4312   0.7039   0.0673     O
O       0.4312   0.9327   0.7039     O
C       0.4346   0.1998   0.7254     C
C       0.4346   0.2746   0.1998     C
C       0.4346   0.7254   0.8002     C
C       0.4346   0.8002   0.2746     C
O       0.4555  0.05653   0.3917     O
O       0.4555   0.3917  0.94347     O
O       0.4555   0.6083  0.05653     O
O       0.4555  0.94347   0.6083     O
C       0.4626   0.0809    0.341     C
C       0.4626    0.341   0.9191     C
C       0.4626    0.659   0.0809     C
C       0.4626   0.9191    0.659     C
C       0.4658   0.1551   0.6142     C
C       0.4658   0.3858   0.1551     C
C       0.4658   0.6142   0.8449     C
C       0.4658   0.8449   0.3858     C
H       0.4759   0.1403   0.5764     H
H       0.4759   0.4236   0.1403     H
H       0.4759   0.5764   0.8597     H
H       0.4759   0.8597   0.4236     H
C       0.4768   0.1538   0.7207     C
C       0.4768   0.2793   0.1538     C
C       0.4768   0.7207   0.8462     C
C       0.4768   0.8462   0.2793     C
C       0.4925   0.1306   0.6656     C
C       0.4925   0.3344   0.1306     C
C       0.4925   0.6656   0.8694     C
C       0.4925   0.8694   0.3344     C
H       0.4946   0.1384   0.7554     H
H       0.4946   0.2446   0.1384     H
H       0.4946   0.7554   0.8616     H
H       0.4946   0.8616   0.2446     H
H       0.5054   0.1384   0.2446     H
H       0.5054   0.2446   0.8616     H
H       0.5054   0.7554   0.1384     H
H       0.5054   0.8616   0.7554     H
C       0.5075   0.1306   0.3344     C
C       0.5075   0.3344   0.8694     C
C       0.5075   0.6656   0.1306     C
C       0.5075   0.8694   0.6656     C
C       0.5232   0.1538   0.2793     C
C       0.5232   0.2793   0.8462     C
C       0.5232   0.7207   0.1538     C
C       0.5232   0.8462   0.7207     C
H       0.5241   0.1403   0.4236     H
H       0.5241   0.4236   0.8597     H
H       0.5241   0.5764   0.1403     H
H       0.5241   0.8597   0.5764     H
C       0.5342   0.1551   0.3858     C
C       0.5342   0.3858   0.8449     C
C       0.5342   0.6142   0.1551     C
C       0.5342   0.8449   0.6142     C
C       0.5374   0.0809    0.659     C
C       0.5374    0.341   0.0809     C
C       0.5374    0.659   0.9191     C
C       0.5374   0.9191    0.341     C
O       0.5445  0.05653   0.6083     O
O       0.5445   0.3917  0.05653     O
O       0.5445   0.6083  0.94347     O
O       0.5445  0.94347   0.3917     O
C       0.5654   0.1998   0.2746     C
C       0.5654   0.2746   0.8002     C
C       0.5654   0.7254   0.1998     C
C       0.5654   0.8002   0.7254     C
O       0.5688   0.0673   0.7039     O
O       0.5688   0.2961   0.0673     O
O       0.5688   0.7039   0.9327     O
O       0.5688   0.9327   0.2961     O
C       0.5756    0.201   0.3809     C
C       0.5756   0.3809    0.799     C
C       0.5756   0.6191    0.201     C
C       0.5756    0.799   0.6191     C
H       0.5758   0.2145   0.2368     H
H       0.5758   0.2368   0.7855     H
H       0.5758   0.7632   0.2145     H
H       0.5758   0.7855   0.7632     H
H       0.5764   0.1403   0.5241     H
H       0.5764   0.4759   0.1403     H
H       0.5764   0.5241   0.8597     H
H       0.5764   0.8597   0.4759     H
H       0.5842   0.2167   0.5926     H
H       0.5842   0.4074   0.2167     H
H       0.5842   0.5926   0.7833     H
H       0.5842   0.7833   0.4074     H
C       0.5924   0.2244   0.3261     C
C       0.5924   0.3261   0.7756     C
C       0.5924   0.6739   0.2244     C
C       0.5924   0.7756   0.6739     C
H       0.5926   0.2167   0.4158     H
H       0.5926   0.4158   0.7833     H
H       0.5926   0.5842   0.2167     H
H       0.5926   0.7833   0.5842     H
H       0.6062    0.247   0.6887     H
H       0.6062   0.3113    0.247     H
H       0.6062   0.6887    0.753     H
H       0.6062    0.753   0.3113     H
O       0.6083  0.05653   0.4555     O
O       0.6083   0.4555  0.94347     O
O       0.6083   0.5445  0.05653     O
O       0.6083  0.94347   0.5445     O
H       0.6098   0.0233    0.221     H
H       0.6098    0.221   0.9767     H
H       0.6098    0.779   0.0233     H
H       0.6098   0.9767    0.779     H
C       0.6142   0.1551   0.5342     C
C       0.6142   0.4658   0.1551     C
C       0.6142   0.5342   0.8449     C
C       0.6142   0.8449   0.4658     C
C       0.6191    0.201   0.5756     C
C       0.6191   0.4244    0.201     C
C       0.6191   0.5756    0.799     C
C       0.6191    0.799   0.4244     C
Cd     0.62534      0.0  0.37466    Cd
Cd     0.62534      0.0  0.62534    Cd
Cd     0.62534  0.37466      0.0    Cd
Cd     0.62534  0.62534      0.0    Cd
C        0.636   0.0521   0.2366     C
C        0.636   0.2366   0.9479     C
C        0.636   0.7634   0.0521     C
C        0.636   0.9479   0.7634     C
C       0.6363    0.276   0.6855     C
C       0.6363   0.3145    0.276     C
C       0.6363   0.6855    0.724     C
C       0.6363    0.724   0.3145     C
C       0.6388   0.2722   0.3224     C
C       0.6388   0.3224   0.7278     C
C       0.6388   0.6776   0.2722     C
C       0.6388   0.7278   0.6776     C
N       0.6473   0.0602   0.2964     N
N       0.6473   0.2964   0.9398     N
N       0.6473   0.7036   0.0602     N
N       0.6473   0.9398   0.7036     N
C        0.659   0.0809   0.4626     C
C        0.659   0.4626   0.9191     C
C        0.659   0.5374   0.0809     C
C        0.659   0.9191   0.5374     C
H       0.6649   0.1192   0.7016     H
H       0.6649   0.2984   0.1192     H
H       0.6649   0.7016   0.8808     H
H       0.6649   0.8808   0.2984     H
C       0.6656   0.1306   0.5075     C
C       0.6656   0.4925   0.1306     C
C       0.6656   0.5075   0.8694     C
C       0.6656   0.8694   0.4925     C
H       0.6677   0.0955    0.161     H
H       0.6677    0.161   0.9045     H
H       0.6677    0.839   0.0955     H
H       0.6677   0.9045    0.839     H
C       0.6679   0.0917   0.2027     C
C       0.6679   0.2027   0.9083     C
C       0.6679   0.7973   0.0917     C
C       0.6679   0.9083   0.7973     C
C       0.6739   0.2244   0.5924     C
C       0.6739   0.4076   0.2244     C
C       0.6739   0.5924   0.7756     C
C       0.6739   0.7756   0.4076     C
C       0.6776   0.2722   0.6388     C
C       0.6776   0.3612   0.2722     C
C       0.6776   0.6388   0.7278     C
C       0.6776   0.7278   0.3612     C
C       0.6855    0.276   0.3637     C
C       0.6855   0.3637    0.724     C
C       0.6855   0.6363    0.276     C
C       0.6855    0.724   0.6363     C
C        0.686   0.1041   0.2992     C
C        0.686   0.2992   0.8959     C
C        0.686   0.7008   0.1041     C
C        0.686   0.8959   0.7008     C
H       0.6887    0.247   0.3938     H
H       0.6887   0.3938    0.753     H
H       0.6887   0.6062    0.247     H
H       0.6887    0.753   0.6062     H
H       0.6961    0.159   0.7949     H
H       0.6961   0.2051    0.159     H
H       0.6961   0.7949    0.841     H
H       0.6961    0.841   0.2051     H
C       0.7008   0.1041    0.686     C
C       0.7008    0.314   0.1041     C
C       0.7008    0.686   0.8959     C
C       0.7008   0.8959    0.314     C
N       0.7009   0.1252    0.244     N
N       0.7009    0.244   0.8748     N
N       0.7009    0.756   0.1252     N
N       0.7009   0.8748    0.756     N
H       0.7016   0.1192   0.3351     H
H       0.7016   0.3351   0.8808     H
H       0.7016   0.6649   0.1192     H
H       0.7016   0.8808   0.6649     H
N       0.7036   0.0602   0.6473     N
N       0.7036   0.3527   0.0602     N
N       0.7036   0.6473   0.9398     N
N       0.7036   0.9398   0.3527     N
O       0.7039   0.0673   0.4312     O
O       0.7039   0.4312   0.9327     O
O       0.7039   0.5688   0.0673     O
O       0.7039   0.9327   0.5688     O
C       0.7207   0.1538   0.5232     C
C       0.7207   0.4768   0.1538     C
C       0.7207   0.5232   0.8462     C
C       0.7207   0.8462   0.4768     C
C        0.724   0.3145   0.6363     C
C        0.724   0.3637   0.3145     C
C        0.724   0.6363   0.6855     C
C        0.724   0.6855   0.3637     C
C       0.7254   0.1998   0.5654     C
C       0.7254   0.4346   0.1998     C
C       0.7254   0.5654   0.8002     C
C       0.7254   0.8002   0.4346     C
C       0.7278   0.3224   0.3612     C
C       0.7278   0.3612   0.6776     C
C       0.7278   0.6388   0.3224     C
C       0.7278   0.6776   0.6388     C
C       0.7293   0.1837   0.7884     C
C       0.7293   0.2116   0.1837     C
C       0.7293   0.7884   0.8163     C
C       0.7293   0.8163   0.2116     C
C       0.7413   0.1734   0.2323     C
C       0.7413   0.2323   0.8266     C
C       0.7413   0.7677   0.1734     C
C       0.7413   0.8266   0.7677     C
H        0.753   0.3113   0.6062     H
H        0.753   0.3938   0.3113     H
H        0.753   0.6062   0.6887     H
H        0.753   0.6887   0.3938     H
H       0.7554   0.1384   0.5054     H
H       0.7554   0.4946   0.1384     H
H       0.7554   0.5054   0.8616     H
H       0.7554   0.8616   0.4946     H
N        0.756   0.1252   0.7009     N
N        0.756   0.2991   0.1252     N
N        0.756   0.7009   0.8748     N
N        0.756   0.8748   0.2991     N
H       0.7632   0.2145   0.5758     H
H       0.7632   0.4242   0.2145     H
H       0.7632   0.5758   0.7855     H
H       0.7632   0.7855   0.4242     H
C       0.7634   0.0521    0.636     C
C       0.7634    0.364   0.0521     C
C       0.7634    0.636   0.9479     C
C       0.7634   0.9479    0.364     C
C       0.7677   0.1734   0.7413     C
C       0.7677   0.2587   0.1734     C
C       0.7677   0.7413   0.8266     C
C       0.7677   0.8266   0.2587     C
C       0.7756   0.3261   0.4076     C
C       0.7756   0.4076   0.6739     C
C       0.7756   0.5924   0.3261     C
C       0.7756   0.6739   0.5924     C
H        0.779   0.0233   0.6098     H
H        0.779   0.3902   0.0233     H
H        0.779   0.6098   0.9767     H
H        0.779   0.9767   0.3902     H
H       0.7833   0.4074   0.5842     H
H       0.7833   0.4158   0.4074     H
H       0.7833   0.5842   0.5926     H
H       0.7833   0.5926   0.4158     H
H       0.7855   0.2368   0.4242     H
H       0.7855   0.4242   0.7632     H
H       0.7855   0.5758   0.2368     H
H       0.7855   0.7632   0.5758     H
C       0.7884   0.1837   0.2707     C
C       0.7884   0.2707   0.8163     C
C       0.7884   0.7293   0.1837     C
C       0.7884   0.8163   0.7293     C
H       0.7949    0.159   0.3039     H
H       0.7949   0.3039    0.841     H
H       0.7949   0.6961    0.159     H
H       0.7949    0.841   0.6961     H
C       0.7973   0.0917   0.6679     C
C       0.7973   0.3321   0.0917     C
C       0.7973   0.6679   0.9083     C
C       0.7973   0.9083   0.3321     C
C        0.799   0.3809   0.4244     C
C        0.799   0.4244   0.6191     C
C        0.799   0.5756   0.3809     C
C        0.799   0.6191   0.5756     C
C       0.8002   0.2746   0.4346     C
C       0.8002   0.4346   0.7254     C
C       0.8002   0.5654   0.2746     C
C       0.8002   0.7254   0.5654     C
C       0.8163   0.2116   0.7293     C
C       0.8163   0.2707   0.2116     C
C       0.8163   0.7293   0.7884     C
C       0.8163   0.7884   0.2707     C
C       0.8266   0.2323   0.2587     C
C       0.8266   0.2587   0.7677     C
C       0.8266   0.7413   0.2323     C
C       0.8266   0.7677   0.7413     C
H        0.839   0.0955   0.6677     H
H        0.839   0.3323   0.0955     H
H        0.839   0.6677   0.9045     H
H        0.839   0.9045   0.3323     H
H        0.841   0.2051   0.6961     H
H        0.841   0.3039   0.2051     H
H        0.841   0.6961   0.7949     H
H        0.841   0.7949   0.3039     H
C       0.8449   0.3858   0.4658     C
C       0.8449   0.4658   0.6142     C
C       0.8449   0.5342   0.3858     C
C       0.8449   0.6142   0.5342     C
C       0.8462   0.2793   0.4768     C
C       0.8462   0.4768   0.7207     C
C       0.8462   0.5232   0.2793     C
C       0.8462   0.7207   0.5232     C
H       0.8597   0.4236   0.4759     H
H       0.8597   0.4759   0.5764     H
H       0.8597   0.5241   0.4236     H
H       0.8597   0.5764   0.5241     H
H       0.8616   0.2446   0.4946     H
H       0.8616   0.4946   0.7554     H
H       0.8616   0.5054   0.2446     H
H       0.8616   0.7554   0.5054     H
C       0.8694   0.3344   0.4925     C
C       0.8694   0.4925   0.6656     C
C       0.8694   0.5075   0.3344     C
C       0.8694   0.6656   0.5075     C
N       0.8748    0.244   0.2991     N
N       0.8748   0.2991    0.756     N
N       0.8748   0.7009    0.244     N
N       0.8748    0.756   0.7009     N
H       0.8808   0.2984   0.6649     H
H       0.8808   0.3351   0.2984     H
H       0.8808   0.6649   0.7016     H
H       0.8808   0.7016   0.3351     H
C       0.8959   0.2992    0.314     C
C       0.8959    0.314   0.7008     C
C       0.8959    0.686   0.2992     C
C       0.8959   0.7008    0.686     C
H       0.9045    0.161   0.3323     H
H       0.9045   0.3323    0.839     H
H       0.9045   0.6677    0.161     H
H       0.9045    0.839   0.6677     H
C       0.9083   0.2027   0.3321     C
C       0.9083   0.3321   0.7973     C
C       0.9083   0.6679   0.2027     C
C       0.9083   0.7973   0.6679     C
C       0.9191    0.341   0.5374     C
C       0.9191   0.4626    0.341     C
C       0.9191   0.5374    0.659     C
C       0.9191    0.659   0.4626     C
O       0.9327   0.2961   0.5688     O
O       0.9327   0.4312   0.2961     O
O       0.9327   0.5688   0.7039     O
O       0.9327   0.7039   0.4312     O
N       0.9398   0.2964   0.3527     N
N       0.9398   0.3527   0.7036     N
N       0.9398   0.6473   0.2964     N
N       0.9398   0.7036   0.6473     N
O      0.94347   0.3917   0.5445     O
O      0.94347   0.4555   0.3917     O
O      0.94347   0.5445   0.6083     O
O      0.94347   0.6083   0.4555     O
C       0.9479   0.2366    0.364     C
C       0.9479    0.364   0.7634     C
C       0.9479    0.636   0.2366     C
C       0.9479   0.7634    0.636     C
H       0.9767    0.221   0.3902     H
H       0.9767   0.3902    0.779     H
H       0.9767   0.6098    0.221     H
H       0.9767    0.779   0.6098     H
