data_I
_chemical_name_common  '/home/zhangsd/repos/MofS-CGCNN/ML/data/WS24/clean_cifs/DARCOQ'
_cell_length_a 10.54600
_cell_length_b 14.53900
_cell_length_c 23.37800
_cell_angle_alpha 107.23100
_cell_angle_beta  90.00000
_cell_angle_gamma 90.00000
_space_group_name_H-M_alt      'P 1'


loop_
_space_group_symop_operation_xyz
  'x, y, z' 

loop_
_atom_site_label
_atom_site_fract_x
_atom_site_fract_y
_atom_site_fract_z
_atom_site_type_symbol
C       0.0276   0.2841   0.3806     C
C       0.0276   0.7159   0.1194     C
H        0.029   0.3201   0.7535     H
H        0.029   0.6799   0.7465     H
C       0.0464   0.3097   0.7901     C
C       0.0464   0.6903   0.7099     C
C       0.0517   0.3057  0.32795     C
C       0.0517   0.6943  0.17205     C
H       0.0939   0.2765   0.4051     H
H       0.0939   0.7235   0.0949     H
C       0.0984   0.2738   0.8966     C
C       0.0984   0.7262   0.6034     C
H       0.1154   0.2617   0.9327     H
H       0.1154   0.7383   0.5673     H
C       0.1706   0.2983   0.8057     C
C       0.1706   0.7017   0.6943     C
C       0.1854   0.3195  0.31035     C
C       0.1854   0.6805  0.18965     C
C       0.1988   0.2813  0.85952     C
C       0.1988   0.7187  0.64048     C
O        0.206   0.3434  0.26337     O
O        0.206   0.6566  0.23663     O
H       0.2229   0.0874   0.8462     H
H       0.2229   0.9126   0.6538     H
H       0.2359   0.3021   0.7798     H
H       0.2359   0.6979   0.7202     H
H       0.2536      0.5     0.75     H
O       0.2787   0.3084  0.34245     O
O       0.2787   0.6916  0.15755     O
H       0.2794   0.0721   0.6866     H
H       0.2794   0.9279   0.8134     H
C       0.3083   0.0709   0.8414     C
C       0.3083   0.9291   0.6586     C
C       0.3418      0.5     0.75     C
C        0.342    0.025   0.6783     C
C        0.342    0.975   0.8217     C
H       0.3531   0.0016   0.3218     H
H       0.3531   0.9984   0.1782     H
P      0.36081  0.26829  0.87779     P
P      0.36081  0.73171  0.62221     P
H       0.3618   0.4507   0.9651     H
H       0.3618   0.5493   0.5349     H
C       0.3686   0.4075   0.9874     C
C       0.3686   0.5925   0.5126     C
C       0.3722   0.3093  0.95833     C
C       0.3722   0.6907  0.54167     C
H       0.3737   0.4923   0.4322     H
H       0.3737   0.5077   0.0678     H
C       0.3749   0.4417    0.049     C
C       0.3749   0.5583    0.451     C
C       0.3788   0.2464   0.9925     C
C       0.3788   0.7536   0.5075     C
H         0.38   0.1804   0.9738     H
H         0.38   0.8196   0.5262     H
O       0.3803   0.4964  0.32658     O
O       0.3803   0.5036  0.17342     O
O       0.3822   0.1776  0.22738     O
O       0.3822   0.8224  0.27262     O
C        0.383   0.3785  0.08328     C
C        0.383   0.6215  0.41672     C
C       0.3835   0.2813   0.0541     C
C       0.3835   0.7187   0.4459     C
C       0.3868   0.4154  0.14936     C
C       0.3868   0.5846  0.35064     C
H       0.3871    0.238   0.0764     H
H       0.3871    0.762   0.4236     H
O       0.3877   0.4306  0.76159     O
O       0.3877   0.5694  0.73841     O
C        0.398   0.1426  0.85413     C
C        0.398   0.8574  0.64587     C
O       0.3992   0.3539  0.17744     O
O       0.3992   0.6461  0.32256     O
H       0.4136   0.1642   0.3571     H
H       0.4136   0.8358   0.1429     H
O       0.4191   0.2197  0.71883     O
O       0.4191   0.7803  0.78117     O
Y       0.4329  0.34575  0.27236     Y
Y       0.4329  0.65425  0.22764     Y
C       0.4382   0.0188   0.3269     C
C       0.4382   0.9812   0.1731     C
O       0.4481   0.3259  0.85009     O
O       0.4481   0.6741  0.64991     O
C       0.4663   0.0509  0.68553     C
C       0.4663   0.9491  0.81447     C
C       0.4754   0.1165   0.3477     C
C       0.4754   0.8835   0.1523     C
C       0.4935   0.1561  0.21195     C
C       0.4935   0.8439  0.28805     C
C       0.5065   0.1561  0.71195     C
C       0.5065   0.8439  0.78805     C
C       0.5246   0.1165   0.8477     C
C       0.5246   0.8835   0.6523     C
C       0.5337   0.0509  0.18553     C
C       0.5337   0.9491  0.31447     C
O       0.5519   0.3259  0.35009     O
O       0.5519   0.6741  0.14991     O
C       0.5618   0.0188   0.8269     C
C       0.5618   0.9812   0.6731     C
Y       0.5671  0.34575  0.77236     Y
Y       0.5671  0.65425  0.72764     Y
O       0.5809   0.2197  0.21883     O
O       0.5809   0.7803  0.28117     O
H       0.5864   0.1642   0.8571     H
H       0.5864   0.8358   0.6429     H
O       0.6008   0.3539  0.67744     O
O       0.6008   0.6461  0.82256     O
C        0.602   0.1426  0.35413     C
C        0.602   0.8574  0.14587     C
O       0.6123   0.4306  0.26159     O
O       0.6123   0.5694  0.23841     O
H       0.6129    0.238   0.5764     H
H       0.6129    0.762   0.9236     H
C       0.6132   0.4154  0.64936     C
C       0.6132   0.5846  0.85064     C
C       0.6165   0.2813   0.5541     C
C       0.6165   0.7187   0.9459     C
C        0.617   0.3785  0.58328     C
C        0.617   0.6215  0.91672     C
O       0.6178   0.1776  0.72738     O
O       0.6178   0.8224  0.77262     O
O       0.6197   0.4964  0.82658     O
O       0.6197   0.5036  0.67342     O
H         0.62   0.1804   0.4738     H
H         0.62   0.8196   0.0262     H
C       0.6212   0.2464   0.4925     C
C       0.6212   0.7536   0.0075     C
C       0.6251   0.4417    0.549     C
C       0.6251   0.5583    0.951     C
H       0.6263   0.4923   0.9322     H
H       0.6263   0.5077   0.5678     H
C       0.6278   0.3093  0.45833     C
C       0.6278   0.6907  0.04167     C
C       0.6314   0.4075   0.4874     C
C       0.6314   0.5925   0.0126     C
H       0.6382   0.4507   0.4651     H
H       0.6382   0.5493   0.0349     H
P      0.63919  0.26829  0.37779     P
P      0.63919  0.73171  0.12221     P
H       0.6469   0.0016   0.8218     H
H       0.6469   0.9984   0.6782     H
C        0.658    0.025   0.1783     C
C        0.658    0.975   0.3217     C
C       0.6582      0.5     0.25     C
C       0.6917   0.0709   0.3414     C
C       0.6917   0.9291   0.1586     C
H       0.7206   0.0721   0.1866     H
H       0.7206   0.9279   0.3134     H
O       0.7213   0.3084  0.84245     O
O       0.7213   0.6916  0.65755     O
H       0.7464      0.5     0.25     H
H       0.7641   0.3021   0.2798     H
H       0.7641   0.6979   0.2202     H
H       0.7771   0.0874   0.3462     H
H       0.7771   0.9126   0.1538     H
O        0.794   0.3434  0.76337     O
O        0.794   0.6566  0.73663     O
C       0.8012   0.2813  0.35952     C
C       0.8012   0.7187  0.14048     C
C       0.8146   0.3195  0.81035     C
C       0.8146   0.6805  0.68965     C
C       0.8294   0.2983   0.3057     C
C       0.8294   0.7017   0.1943     C
H       0.8846   0.2617   0.4327     H
H       0.8846   0.7383   0.0673     H
C       0.9016   0.2738   0.3966     C
C       0.9016   0.7262   0.1034     C
H       0.9061   0.2765   0.9051     H
H       0.9061   0.7235   0.5949     H
C       0.9483   0.3057  0.82795     C
C       0.9483   0.6943  0.67205     C
C       0.9536   0.3097   0.2901     C
C       0.9536   0.6903   0.2099     C
H        0.971   0.3201   0.2535     H
H        0.971   0.6799   0.2465     H
C       0.9724   0.2841   0.8806     C
C       0.9724   0.7159   0.6194     C
