data_I
_chemical_name_common  '/home/zhangsd/repos/MofS-CGCNN/ML/data/WS24/clean_cifs/DEYMOL'
_cell_length_a 12.73210
_cell_length_b 13.51330
_cell_length_c 25.48400
_cell_angle_alpha 90.00000
_cell_angle_beta  90.00000
_cell_angle_gamma 90.00000
_space_group_name_H-M_alt      'P 1'


loop_
_space_group_symop_operation_xyz
  'x, y, z' 

loop_
_atom_site_label
_atom_site_fract_x
_atom_site_fract_y
_atom_site_fract_z
_atom_site_type_symbol
In         0.0  0.45818     0.75    In
In         0.0  0.54182     0.25    In
O        0.091    0.403   0.8159     O
O        0.091    0.597   0.1841     O
O        0.101   0.4852   0.3131     O
O        0.101   0.5148   0.6869     O
O       0.1171   0.4037  0.24174     O
O       0.1171   0.5963  0.75826     O
O       0.1255   0.3189  0.74661     O
O       0.1255   0.6811  0.25339     O
C       0.1444   0.4177   0.2869     C
C       0.1444   0.5823   0.7131     C
C        0.145   0.3392   0.7929     C
C        0.145   0.6608   0.2071     C
C       0.2317   0.3602  0.31064     C
C       0.2317   0.6398  0.68936     C
H       0.2384   0.2562   0.2542     H
H       0.2384   0.7438   0.7458     H
C       0.2395   0.2984  0.82075     C
C       0.2395   0.7016  0.17925     C
H       0.2401   0.4002   0.8779     H
H       0.2401   0.5998   0.1221     H
H       0.2524   0.4456   0.3753     H
H       0.2524   0.5544   0.6247     H
H        0.264   0.1817   0.7722     H
H        0.264   0.8183   0.2278     H
C       0.2694   0.2769  0.28534     C
C       0.2694   0.7231  0.71466     C
C       0.2771    0.347   0.8641     C
C       0.2771    0.653   0.1359     C
C       0.2793   0.3912   0.3574     C
C       0.2793   0.6088   0.6426     C
C       0.2909   0.2152  0.80108     C
C       0.2909   0.7848  0.19892     C
H       0.3469   0.0088   0.7748     H
H       0.3469   0.9912   0.2252     H
C       0.3542   0.2235  0.30639     C
C       0.3542   0.7765  0.69361     C
C       0.3645   0.3425  0.37712     C
C       0.3645   0.6575  0.62288     C
O       0.3682   0.4451    0.952     O
O       0.3682   0.5549    0.048     O
C       0.3716   0.3166  0.88758     C
C       0.3716   0.6834  0.11242     C
O       0.3732   0.4479   0.4512     O
O       0.3732   0.5521   0.5488     O
C       0.3826   0.1828    0.825     C
C       0.3826   0.8172    0.175     C
O        0.383   0.1431  0.27867     O
O        0.383   0.8569  0.72133     O
H       0.3888   0.0924   0.7372     H
H       0.3888   0.9076   0.2628     H
C       0.4022   0.2562  0.35233     C
C       0.4022   0.7438  0.64767     C
C       0.4076   0.0487  0.76589     C
C       0.4076   0.9513  0.23411     C
C        0.419   0.3772  0.93114     C
C        0.419   0.6228  0.06886     C
C       0.4196    0.385   0.4247     C
C       0.4196    0.615   0.5753     C
C       0.4232   0.2363  0.86799     C
C       0.4232   0.7637  0.13201     C
O       0.4408   0.1039  0.80961     O
O       0.4408   0.8961  0.19039     O
H       0.4439    0.042   0.3256     H
H       0.4439    0.958   0.6744     H
H       0.4585   0.2216   0.3665     H
H       0.4585   0.7784   0.6335     H
C       0.4667   0.0829   0.2965     C
C       0.4667   0.9171   0.7035     C
H       0.4749   0.1236   0.1919     H
H       0.4749   0.8764   0.8081     H
H       0.4862   0.2164   0.8832     H
H       0.4862   0.7836   0.1168     H
O       0.4891   0.3614  0.06566     O
O       0.4891   0.6386  0.93434     O
O       0.4909   0.3587  0.55437     O
O       0.4909   0.6413  0.44563     O
In     0.49931      0.5      0.0    In
C          0.5   0.0179     0.25     C
C          0.5   0.9821     0.75     C
In     0.50069      0.5      0.5    In
O       0.5091   0.3587  0.94563     O
O       0.5091   0.6413  0.05437     O
O       0.5109   0.3614  0.43434     O
O       0.5109   0.6386  0.56566     O
H       0.5138   0.2164   0.6168     H
H       0.5138   0.7836   0.3832     H
H       0.5251   0.1236   0.3081     H
H       0.5251   0.8764   0.6919     H
C       0.5333   0.0829   0.2035     C
C       0.5333   0.9171   0.7965     C
H       0.5415   0.2216   0.1335     H
H       0.5415   0.7784   0.8665     H
H       0.5561    0.042   0.1744     H
H       0.5561    0.958   0.8256     H
O       0.5592   0.1039  0.69039     O
O       0.5592   0.8961  0.30961     O
C       0.5768   0.2363  0.63201     C
C       0.5768   0.7637  0.36799     C
C       0.5804    0.385   0.0753     C
C       0.5804    0.615   0.9247     C
C        0.581   0.3772  0.56886     C
C        0.581   0.6228  0.43114     C
C       0.5924   0.0487  0.73411     C
C       0.5924   0.9513  0.26589     C
C       0.5978   0.2562  0.14767     C
C       0.5978   0.7438  0.85233     C
H       0.6112   0.0924   0.7628     H
H       0.6112   0.9076   0.2372     H
O        0.617   0.1431  0.22133     O
O        0.617   0.8569  0.77867     O
C       0.6174   0.1828    0.675     C
C       0.6174   0.8172    0.325     C
O       0.6268   0.4479   0.0488     O
O       0.6268   0.5521   0.9512     O
C       0.6284   0.3166  0.61242     C
C       0.6284   0.6834  0.38758     C
O       0.6318   0.4451    0.548     O
O       0.6318   0.5549    0.452     O
C       0.6355   0.3425  0.12288     C
C       0.6355   0.6575  0.87712     C
C       0.6458   0.2235  0.19361     C
C       0.6458   0.7765  0.80639     C
H       0.6531   0.0088   0.7252     H
H       0.6531   0.9912   0.2748     H
C       0.7091   0.2152  0.69892     C
C       0.7091   0.7848  0.30108     C
C       0.7207   0.3912   0.1426     C
C       0.7207   0.6088   0.8574     C
C       0.7229    0.347   0.6359     C
C       0.7229    0.653   0.3641     C
C       0.7306   0.2769  0.21466     C
C       0.7306   0.7231  0.78534     C
H        0.736   0.1817   0.7278     H
H        0.736   0.8183   0.2722     H
H       0.7476   0.4456   0.1247     H
H       0.7476   0.5544   0.8753     H
H       0.7599   0.4002   0.6221     H
H       0.7599   0.5998   0.3779     H
C       0.7605   0.2984  0.67925     C
C       0.7605   0.7016  0.32075     C
H       0.7616   0.2562   0.2458     H
H       0.7616   0.7438   0.7542     H
C       0.7683   0.3602  0.18936     C
C       0.7683   0.6398  0.81064     C
C        0.855   0.3392   0.7071     C
C        0.855   0.6608   0.2929     C
C       0.8556   0.4177   0.2131     C
C       0.8556   0.5823   0.7869     C
O       0.8745   0.3189  0.75339     O
O       0.8745   0.6811  0.24661     O
O       0.8829   0.4037  0.25826     O
O       0.8829   0.5963  0.74174     O
O        0.899   0.4852   0.1869     O
O        0.899   0.5148   0.8131     O
O        0.909    0.403   0.6841     O
O        0.909    0.597   0.3159     O
