data_I
_chemical_name_common  '/home/zhangsd/repos/MofS-CGCNN/ML/data/WS24/clean_cifs/DOFQUL'
_cell_length_a  6.22700
_cell_length_b  8.39752
_cell_length_c 21.07600
_cell_angle_alpha 90.00000
_cell_angle_beta  90.00000
_cell_angle_gamma 111.76277
_space_group_name_H-M_alt      'P 1'


loop_
_space_group_symop_operation_xyz
  'x, y, z' 

loop_
_atom_site_label
_atom_site_fract_x
_atom_site_fract_y
_atom_site_fract_z
_atom_site_type_symbol
C       0.0031   0.6916   0.6196     C
H       0.0049   0.1086   0.1841     H
H       0.0134   0.0816   0.1701     H
C        0.018    0.706   0.0717     C
H       0.0239   0.5446   0.6972     H
H       0.0288   0.6186   0.0351     H
H       0.0314   0.3826   0.8196     H
C       0.0478   0.7678    0.397     C
H       0.0491   0.2808   0.3087     H
C       0.0597   0.2174   0.9402     C
C        0.061   0.5928   0.0791     C
H       0.0682   0.0816   0.3299     H
C        0.083    0.194    0.348     C
C       0.0831   0.4362   0.0971     C
H       0.0842   0.2594   0.6748     H
C       0.0971   0.4802   0.5956     C
C       0.1012   0.8604   0.8872     C
H       0.1037   0.1086   0.3159     H
H       0.1038   0.7074    0.032     H
C        0.111    0.194    0.152     C
C       0.1126   0.3332   0.8496     C
H       0.1184   0.4074   0.0538     H
H       0.1201    0.774   0.5909     H
C       0.1235   0.6034   0.6611     C
H       0.1303   0.7752   0.1037     H
N       0.1348   0.8316    0.458     N
H       0.1381   0.4048   0.6881     H
C       0.1577   0.2174   0.5598     C
H       0.1592   0.5358   0.8416     H
H       0.1632   0.8078   0.6095     H
H       0.1694   0.4176   0.0358     H
H       0.1706   0.6992   0.0986     H
H       0.1752   0.2594   0.8252     H
H       0.1849    0.501   0.4017     H
H       0.2067   0.2612   0.1869     H
C        0.208    0.508   0.6613     C
H       0.2197   0.5444   0.5643     H
C       0.2206   0.3332   0.6504     C
H       0.2274    0.512   0.1177     H
N         0.23     0.88    0.924     N
C       0.2408   0.1396   0.1128     C
H       0.2432   0.5406    0.911     H
H       0.2482   0.4176   0.4642     H
H       0.2667   0.4048   0.8119     H
H       0.2707    0.687   0.6779     H
C         0.28   0.2322    0.603     C
H       0.2846    0.512   0.3823     H
H        0.289   0.4074   0.4462     H
H       0.2974   0.5406    0.589     H
C       0.2978   0.4568   0.4204     C
C          0.3    0.508   0.8387     C
N       0.3032   0.1684    0.542     N
H       0.3053   0.7424   0.7003     H
C       0.3103   0.4774   0.8817     C
C       0.3115   0.3084   0.3804     C
C        0.312    0.294   0.9283     C
H       0.3247   0.5444   0.9357     H
H       0.3461    0.226   0.4091     H
N         0.35     0.12    0.076     N
H       0.3512   0.3826   0.6804     H
H       0.3551   0.2248   0.8963     H
H       0.3554   0.1922   0.3905     H
H       0.3766   0.5358   0.6584     H
H       0.3964   0.2926    0.968     H
H       0.4102   0.3814   0.9649     H
H       0.4163    0.687   0.8221     H
H       0.4371   0.7424   0.7997     H
H       0.4443   0.3864   0.2757     H
C       0.4682   0.4072   0.9209     C
Ag     0.46904      0.0      0.5    Ag
H       0.4714   0.3008   0.9014     H
H       0.4793   0.4554   0.3028     H
C       0.4799   0.6034   0.8389     C
C       0.5071   0.3482   0.3134     C
H       0.5207   0.5446   0.8028     H
H       0.5286   0.6992   0.4014     H
Ag     0.53096      0.0      1.0    Ag
C       0.5318   0.5928   0.4209     C
H       0.5629   0.2576   0.2997     H
H       0.5837    0.313   0.3221     H
H       0.5898   0.6186   0.4649     H
H       0.6036   0.7074    0.468     H
C       0.6169   0.5198   0.4044     C
H       0.6234   0.4642   0.1584     H
H       0.6446   0.8078   0.8905     H
H       0.6449   0.7752   0.3963     H
N       0.6463   0.8926   0.5721     N
C       0.6469   0.5638   0.9029     C
H       0.6488   0.6174   0.1804     H
H       0.6539    0.774   0.9091     H
N       0.6701   0.8416   0.0653     N
H       0.6753   0.4556   0.4357     H
H       0.6839    0.499   0.5983     H
C        0.688    0.706   0.4283     C
C       0.6883   0.7266   0.8633     C
H       0.6947   0.2576   0.2003     H
C          0.7    0.492   0.3387     C
H       0.7026   0.4594    0.089     H
H        0.711   0.5926   0.9462     H
H       0.7154    0.488   0.8823     H
C         0.72   0.7678    0.103     C
H       0.7293    0.313   0.1779     H
C        0.733    0.842    0.609     C
H       0.7333   0.5952   0.3119     H
H       0.7518   0.5824   0.9642     H
N       0.7537   0.1074   0.4279     N
H       0.7568   0.4594    0.411     H
H       0.7683   0.7192   0.6913     H
H       0.7726    0.488   0.6177     H
C       0.7794   0.6668   0.1504     C
H       0.7803   0.4556   0.0643     H
C        0.792    0.492   0.1613     C
H       0.8248   0.7406   0.3252     H
N       0.8285   0.1584   0.9347     N
H       0.8294   0.3008   0.5986     H
H       0.8306   0.5824   0.5358     H
C       0.8329   0.5226   0.1183     C
H       0.8368   0.1922   0.1095     H
H       0.8408   0.4642   0.3416     H
C        0.841   0.5432   0.5796     C
C       0.8411   0.3482   0.1866     C
C       0.8423   0.7826   0.0598     C
H       0.8619   0.5952   0.1881     H
H       0.8697   0.2248   0.6037     H
C       0.8798   0.7956   0.6606     C
H       0.8799    0.226   0.0909     H
H       0.8816   0.5926   0.5538     H
C       0.8874   0.6668   0.3496     C
C        0.891    0.158    0.391     C
H       0.8962   0.2926    0.532     H
H       0.8963   0.8914   0.8159     H
H       0.9158   0.7406   0.1748     H
C       0.9158   0.7956   0.8394     C
H       0.9318   0.9184   0.8299     H
C        0.939   0.4072   0.5791     C
C       0.9403   0.7826   0.4402     C
H       0.9421   0.3864   0.2243     H
H       0.9455   0.7388   0.8131     H
C       0.9522   0.2322    0.897     C
C       0.9617   0.2734   0.1367     C
H       0.9686   0.6174   0.3196     H
H       0.9712   0.3814   0.5351     H
H       0.9761   0.4554   0.1972     H
C        0.982    0.294   0.5717     C
H       0.9866   0.9184   0.6701     H
H       0.9951   0.8914   0.6841     H
