data_I
_chemical_name_common  '/home/zhangsd/repos/MofS-CGCNN/ML/data/WS24/clean_cifs/DOFQIZ'
_cell_length_a  5.94430
_cell_length_b 11.33710
_cell_length_c 13.07290
_cell_angle_alpha 90.00000
_cell_angle_beta  93.00940
_cell_angle_gamma 90.00000
_space_group_name_H-M_alt      'P 1'


loop_
_space_group_symop_operation_xyz
  'x, y, z' 

loop_
_atom_site_label
_atom_site_fract_x
_atom_site_fract_y
_atom_site_fract_z
_atom_site_type_symbol
Ag         0.0  0.48802     0.25    Ag
Ag         0.0  0.51198     0.75    Ag
H       0.1409   0.3149   0.9281     H
H       0.1409   0.6851   0.4281     H
H       0.1692    0.169   0.0484     H
H       0.1692    0.831   0.5484     H
H       0.2222   0.2821   0.1203     H
H       0.2222   0.7179   0.6203     H
N       0.2417   0.3663   0.3411     N
N       0.2417   0.6337   0.8411     N
N       0.2457   0.4068   0.6604     N
N       0.2457   0.5932   0.1604     N
H       0.2464   0.1667   0.5267     H
H       0.2464   0.8333   0.0267     H
C        0.274   0.2358   0.0618     C
C        0.274   0.7642   0.5618     C
C       0.2877   0.3126   0.9675     C
C       0.2877   0.6874   0.4675     C
H       0.3319   0.3942   0.9868     H
H       0.3319   0.6058   0.4868     H
C       0.3466   0.2893   0.3722     C
C       0.3466   0.7107   0.8722     C
C       0.3698   0.3398   0.6322     C
C       0.3698   0.6602   0.1322     C
H       0.3946   0.2124   0.8443     H
H       0.3946   0.7876   0.3443     H
C       0.4122   0.1611    0.524     C
C       0.4122   0.8389    0.024     C
H       0.4601   0.0802   0.5437     H
H       0.4601   0.9198   0.0437     H
C       0.4696   0.2537   0.9045     C
C       0.4696   0.7463   0.4045     C
H       0.4834   0.1212   0.3707     H
H       0.4834   0.8788   0.8707     H
C       0.4873   0.1918   0.4166     C
C       0.4873   0.8082   0.9166     C
C       0.5127   0.1918   0.0834     C
C       0.5127   0.8082   0.5834     C
H       0.5166   0.1212   0.1293     H
H       0.5166   0.8788   0.6293     H
C       0.5304   0.2537   0.5955     C
C       0.5304   0.7463   0.0955     C
H       0.5399   0.0802   0.9563     H
H       0.5399   0.9198   0.4563     H
C       0.5878   0.1611    0.976     C
C       0.5878   0.8389    0.476     C
H       0.6054   0.2124   0.6557     H
H       0.6054   0.7876   0.1557     H
C       0.6302   0.3398   0.8678     C
C       0.6302   0.6602   0.3678     C
C       0.6534   0.2893   0.1278     C
C       0.6534   0.7107   0.6278     C
H       0.6681   0.3942   0.5132     H
H       0.6681   0.6058   0.0132     H
C       0.7123   0.3126   0.5325     C
C       0.7123   0.6874   0.0325     C
C        0.726   0.2358   0.4382     C
C        0.726   0.7642   0.9382     C
H       0.7536   0.1667   0.9733     H
H       0.7536   0.8333   0.4733     H
N       0.7543   0.4068   0.8396     N
N       0.7543   0.5932   0.3396     N
N       0.7583   0.3663   0.1589     N
N       0.7583   0.6337   0.6589     N
H       0.7778   0.2821   0.3797     H
H       0.7778   0.7179   0.8797     H
H       0.8308    0.169   0.4516     H
H       0.8308    0.831   0.9516     H
H       0.8591   0.3149   0.5719     H
H       0.8591   0.6851   0.0719     H
