data_I
_chemical_name_common  '/home/zhangsd/repos/MofS-CGCNN/ML/data/WS24/clean_cifs/DOFREW'
_cell_length_a 11.21630
_cell_length_b 11.21630
_cell_length_c 18.28600
_cell_angle_alpha 90.00000
_cell_angle_beta  90.00000
_cell_angle_gamma 90.00000
_space_group_name_H-M_alt      'P 1'


loop_
_space_group_symop_operation_xyz
  'x, y, z' 

loop_
_atom_site_label
_atom_site_fract_x
_atom_site_fract_y
_atom_site_fract_z
_atom_site_type_symbol
Ag         0.0      0.5     0.25    Ag
Ag         0.0      0.5     0.75    Ag
H       0.0209   0.6812   0.4398     H
H       0.0209   0.6812   0.5602     H
H       0.0218   0.3196   0.4403     H
H       0.0218   0.3196   0.5597     H
H       0.0721    0.386   0.0602     H
H       0.0721    0.386   0.9398     H
H       0.0725   0.6163   0.0597     H
H       0.0725   0.6163   0.9403     H
N       0.0858   0.3542    0.182     N
N       0.0858   0.3542    0.818     N
N       0.0858   0.6479   0.1818     N
N       0.0858   0.6479   0.8182     N
C       0.0988    0.653   0.4587     C
C       0.0988    0.653   0.5413     C
C       0.1001   0.3464   0.4592     C
C       0.1001   0.3464   0.5408     C
H        0.114   0.5721   0.4398     H
H        0.114   0.5721   0.5602     H
H       0.1163   0.4275   0.4403     H
H       0.1163   0.4275   0.5597     H
H       0.1191   0.2041   0.1307     H
H       0.1191   0.2041   0.8693     H
H        0.121   0.7954   0.1311     H
H        0.121   0.7954   0.8689     H
N       0.1458   0.5858    0.318     N
N       0.1458   0.5858    0.682     N
N       0.1479   0.4142   0.3182     N
N       0.1479   0.4142   0.6818     N
C        0.153   0.4012   0.0413     C
C        0.153   0.4012   0.9587     C
C       0.1536   0.6001   0.0408     C
C       0.1536   0.6001   0.9592     C
C       0.1545   0.2862   0.1629     C
C       0.1545   0.2862   0.8371     C
C       0.1551   0.7161   0.1636     C
C       0.1551   0.7161   0.8364     C
H       0.1642     0.17      0.0     H
H       0.1647    0.178   0.4285     H
H       0.1647    0.178   0.5715     H
H       0.1653   0.6892      0.0     H
H       0.1655    0.833      0.0     H
H       0.1656   0.3138      0.0     H
H       0.1657   0.8209   0.4281     H
H       0.1657   0.8209   0.5719     H
H       0.1804   0.5218   0.0597     H
H       0.1804   0.5218   0.9403     H
H       0.1812   0.4791   0.0602     H
H       0.1812   0.4791   0.9398     H
H       0.1862   0.6656      0.5     H
H       0.1875   0.3059   0.1757     H
H       0.1875   0.3059   0.8243     H
H       0.1892   0.3347      0.5     H
H       0.1907   0.6941   0.1757     H
H       0.1907   0.6941   0.8243     H
H       0.1941   0.3093   0.3243     H
H       0.1941   0.3093   0.6757     H
H       0.1941   0.6875   0.3243     H
H       0.1941   0.6875   0.6757     H
C       0.1973   0.2432   0.1381     C
C       0.1973   0.2432   0.8619     C
C       0.1993   0.7391   0.4347     C
C       0.1993   0.7391   0.5653     C
C       0.1994   0.2595    0.435     C
C       0.1994   0.2595    0.565     C
C       0.1996   0.7568    0.138     C
C       0.1996   0.7568    0.862     C
H       0.2041   0.8809   0.1307     H
H       0.2041   0.8809   0.8693     H
H       0.2046    0.121   0.1311     H
H       0.2046    0.121   0.8689     H
C       0.2138   0.6545   0.3371     C
C       0.2138   0.6545   0.6629     C
C        0.216   0.2414      0.0     C
C       0.2161   0.3449   0.3364     C
C       0.2161   0.3449   0.6636     C
C        0.217    0.761      0.0     C
C       0.2391   0.3007   0.0653     C
C       0.2391   0.3007   0.9347     C
C       0.2405   0.6994    0.065     C
C       0.2405   0.6994    0.935     C
C       0.2568   0.3004    0.362     C
C       0.2568   0.3004    0.638     C
C       0.2568   0.6973   0.3619     C
C       0.2568   0.6973   0.6381     C
C       0.2586    0.716      0.5     C
C       0.2595   0.8006    0.435     C
C       0.2595   0.8006    0.565     C
C       0.2609   0.1993   0.4347     C
C       0.2609   0.1993   0.5653     C
C        0.261    0.283      0.5     C
C       0.2839   0.1551   0.1636     C
C       0.2839   0.1551   0.8364     C
C       0.2862   0.8455   0.1629     C
C       0.2862   0.8455   0.8371     C
H       0.2954    0.379   0.3689     H
H       0.2954    0.379   0.6311     H
H       0.2959   0.6191   0.3693     H
H       0.2959   0.6191   0.6307     H
C       0.3006   0.2405    0.065     C
C       0.3006   0.2405    0.935     C
C       0.3007   0.7609   0.0653     C
C       0.3007   0.7609   0.9347     C
H       0.3059   0.1907   0.1757     H
H       0.3059   0.1907   0.8243     H
H       0.3059   0.8125   0.1757     H
H       0.3059   0.8125   0.8243     H
H       0.3093   0.8059   0.3243     H
H       0.3093   0.8059   0.6757     H
H       0.3108   0.1653      0.0     H
H       0.3125   0.1941   0.3243     H
H       0.3125   0.1941   0.6757     H
H       0.3138   0.8344      0.0     H
H       0.3188   0.0209   0.4398     H
H       0.3188   0.0209   0.5602     H
H       0.3196   0.9782   0.4403     H
H       0.3196   0.9782   0.5597     H
H       0.3209   0.3343   0.0719     H
H       0.3209   0.3343   0.9281     H
H        0.322   0.6647   0.0715     H
H        0.322   0.6647   0.9285     H
H         0.33   0.6642      0.5     H
H        0.333   0.3345      0.5     H
H       0.3344   0.1862      0.5     H
H       0.3347   0.8108      0.5     H
C       0.3449   0.7839   0.3364     C
C       0.3449   0.7839   0.6636     C
C       0.3455   0.2138   0.3371     C
C       0.3455   0.2138   0.6629     C
C       0.3464   0.8999   0.4592     C
C       0.3464   0.8999   0.5408     C
C        0.347   0.0988   0.4587     C
C        0.347   0.0988   0.5413     C
N       0.3521   0.0858   0.1818     N
N       0.3521   0.0858   0.8182     N
N       0.3542   0.9142    0.182     N
N       0.3542   0.9142    0.818     N
H        0.379   0.7046   0.3689     H
H        0.379   0.7046   0.6311     H
H       0.3809   0.2959   0.3693     H
H       0.3809   0.2959   0.6307     H
H       0.3837   0.0725   0.0597     H
H       0.3837   0.0725   0.9403     H
H        0.386   0.9279   0.0602     H
H        0.386   0.9279   0.9398     H
C       0.3999   0.1536   0.0408     C
C       0.3999   0.1536   0.9592     C
C       0.4012    0.847   0.0413     C
C       0.4012    0.847   0.9587     C
N       0.4142   0.1458    0.318     N
N       0.4142   0.1458    0.682     N
N       0.4142   0.8521   0.3182     N
N       0.4142   0.8521   0.6818     N
H       0.4275   0.8837   0.4403     H
H       0.4275   0.8837   0.5597     H
H       0.4279    0.114   0.4398     H
H       0.4279    0.114   0.5602     H
H       0.4782   0.1804   0.0597     H
H       0.4782   0.1804   0.9403     H
H       0.4791   0.8188   0.0602     H
H       0.4791   0.8188   0.9398     H
Ag         0.5      0.0     0.25    Ag
Ag         0.5      0.0     0.75    Ag
H       0.5209   0.1812   0.0602     H
H       0.5209   0.1812   0.9398     H
H       0.5218   0.8196   0.0597     H
H       0.5218   0.8196   0.9403     H
H       0.5721    0.886   0.4398     H
H       0.5721    0.886   0.5602     H
H       0.5725   0.1163   0.4403     H
H       0.5725   0.1163   0.5597     H
N       0.5858   0.1479   0.3182     N
N       0.5858   0.1479   0.6818     N
N       0.5858   0.8542    0.318     N
N       0.5858   0.8542    0.682     N
C       0.5988    0.153   0.0413     C
C       0.5988    0.153   0.9587     C
C       0.6001   0.8464   0.0408     C
C       0.6001   0.8464   0.9592     C
H        0.614   0.0721   0.0602     H
H        0.614   0.0721   0.9398     H
H       0.6163   0.9275   0.0597     H
H       0.6163   0.9275   0.9403     H
H       0.6191   0.7041   0.3693     H
H       0.6191   0.7041   0.6307     H
H        0.621   0.2954   0.3689     H
H        0.621   0.2954   0.6311     H
N       0.6458   0.0858    0.182     N
N       0.6458   0.0858    0.818     N
N       0.6479   0.9142   0.1818     N
N       0.6479   0.9142   0.8182     N
C        0.653   0.9012   0.4587     C
C        0.653   0.9012   0.5413     C
C       0.6536   0.1001   0.4592     C
C       0.6536   0.1001   0.5408     C
C       0.6545   0.7862   0.3371     C
C       0.6545   0.7862   0.6629     C
C       0.6551   0.2161   0.3364     C
C       0.6551   0.2161   0.6636     C
H       0.6642     0.67      0.5     H
H       0.6647    0.678   0.0715     H
H       0.6647    0.678   0.9285     H
H       0.6653   0.1892      0.5     H
H       0.6655    0.333      0.5     H
H       0.6656   0.8138      0.5     H
H       0.6657   0.3209   0.0719     H
H       0.6657   0.3209   0.9281     H
H       0.6804   0.0218   0.4403     H
H       0.6804   0.0218   0.5597     H
H       0.6812   0.9791   0.4398     H
H       0.6812   0.9791   0.5602     H
H       0.6862   0.1656      0.0     H
H       0.6875   0.8059   0.3243     H
H       0.6875   0.8059   0.6757     H
H       0.6892   0.8347      0.0     H
H       0.6907   0.1941   0.3243     H
H       0.6907   0.1941   0.6757     H
H       0.6941   0.1875   0.1757     H
H       0.6941   0.1875   0.8243     H
H       0.6941   0.8093   0.1757     H
H       0.6941   0.8093   0.8243     H
C       0.6973   0.7432   0.3619     C
C       0.6973   0.7432   0.6381     C
C       0.6993   0.2391   0.0653     C
C       0.6993   0.2391   0.9347     C
C       0.6994   0.7595    0.065     C
C       0.6994   0.7595    0.935     C
C       0.6996   0.2568    0.362     C
C       0.6996   0.2568    0.638     C
H       0.7041   0.3809   0.3693     H
H       0.7041   0.3809   0.6307     H
H       0.7046    0.621   0.3689     H
H       0.7046    0.621   0.6311     H
C       0.7138   0.1545   0.1629     C
C       0.7138   0.1545   0.8371     C
C        0.716   0.7414      0.5     C
C       0.7161   0.8449   0.1636     C
C       0.7161   0.8449   0.8364     C
C        0.717    0.261      0.5     C
C       0.7391   0.8007   0.4347     C
C       0.7391   0.8007   0.5653     C
C       0.7405   0.1994    0.435     C
C       0.7405   0.1994    0.565     C
C       0.7568   0.1973   0.1381     C
C       0.7568   0.1973   0.8619     C
C       0.7568   0.8004    0.138     C
C       0.7568   0.8004    0.862     C
C       0.7586    0.216      0.0     C
C       0.7595   0.3006    0.065     C
C       0.7595   0.3006    0.935     C
C       0.7609   0.6993   0.0653     C
C       0.7609   0.6993   0.9347     C
C        0.761    0.783      0.0     C
C       0.7839   0.6551   0.3364     C
C       0.7839   0.6551   0.6636     C
C       0.7862   0.3455   0.3371     C
C       0.7862   0.3455   0.6629     C
H       0.7954    0.879   0.1311     H
H       0.7954    0.879   0.8689     H
H       0.7959   0.1191   0.1307     H
H       0.7959   0.1191   0.8693     H
C       0.8006   0.7405    0.435     C
C       0.8006   0.7405    0.565     C
C       0.8007   0.2609   0.4347     C
C       0.8007   0.2609   0.5653     C
H       0.8059   0.3125   0.3243     H
H       0.8059   0.3125   0.6757     H
H       0.8059   0.6907   0.3243     H
H       0.8059   0.6907   0.6757     H
H       0.8093   0.3059   0.1757     H
H       0.8093   0.3059   0.8243     H
H       0.8108   0.6653      0.5     H
H       0.8125   0.6941   0.1757     H
H       0.8125   0.6941   0.8243     H
H       0.8138   0.3344      0.5     H
H       0.8188   0.5209   0.0602     H
H       0.8188   0.5209   0.9398     H
H       0.8196   0.4782   0.0597     H
H       0.8196   0.4782   0.9403     H
H       0.8209   0.8343   0.4281     H
H       0.8209   0.8343   0.5719     H
H        0.822   0.1647   0.4285     H
H        0.822   0.1647   0.5715     H
H         0.83   0.1642      0.0     H
H        0.833   0.8345      0.0     H
H       0.8344   0.6862      0.0     H
H       0.8347   0.3108      0.0     H
C       0.8449   0.2839   0.1636     C
C       0.8449   0.2839   0.8364     C
C       0.8455   0.7138   0.1629     C
C       0.8455   0.7138   0.8371     C
C       0.8464   0.3999   0.0408     C
C       0.8464   0.3999   0.9592     C
C        0.847   0.5988   0.0413     C
C        0.847   0.5988   0.9587     C
N       0.8521   0.5858   0.3182     N
N       0.8521   0.5858   0.6818     N
N       0.8542   0.4142    0.318     N
N       0.8542   0.4142    0.682     N
H        0.879   0.2046   0.1311     H
H        0.879   0.2046   0.8689     H
H       0.8809   0.7959   0.1307     H
H       0.8809   0.7959   0.8693     H
H       0.8837   0.5725   0.4403     H
H       0.8837   0.5725   0.5597     H
H        0.886   0.4279   0.4398     H
H        0.886   0.4279   0.5602     H
C       0.8999   0.6536   0.4592     C
C       0.8999   0.6536   0.5408     C
C       0.9012    0.347   0.4587     C
C       0.9012    0.347   0.5413     C
N       0.9142   0.3521   0.1818     N
N       0.9142   0.3521   0.8182     N
N       0.9142   0.6458    0.182     N
N       0.9142   0.6458    0.818     N
H       0.9275   0.3837   0.0597     H
H       0.9275   0.3837   0.9403     H
H       0.9279    0.614   0.0602     H
H       0.9279    0.614   0.9398     H
H       0.9782   0.6804   0.4403     H
H       0.9782   0.6804   0.5597     H
H       0.9791   0.3188   0.4398     H
H       0.9791   0.3188   0.5602     H
