data_I
_chemical_name_common  '/home/zhangsd/repos/MofS-CGCNN/ML/data/WS24/clean_cifs/DONXOV'
_cell_length_a 11.31800
_cell_length_b  9.60100
_cell_length_c 13.96500
_cell_angle_alpha 90.00000
_cell_angle_beta  92.06300
_cell_angle_gamma 90.00000
_space_group_name_H-M_alt      'P 1'


loop_
_space_group_symop_operation_xyz
  'x, y, z' 

loop_
_atom_site_label
_atom_site_fract_x
_atom_site_fract_y
_atom_site_fract_z
_atom_site_type_symbol
C       0.0072   0.8243   0.0665     C
H       0.0088   0.9192   0.0859     H
C         0.01   0.1217   0.5488     C
H       0.0159   0.2976   0.6303     H
N        0.041   0.2556   0.5788     N
C       0.0509   0.3714   0.0043     C
C       0.0545   0.6052    0.052     C
C       0.0632   0.9761   0.4117     C
C       0.0725   0.1004   0.4631     C
N       0.0756   0.2307   0.9913     N
O       0.0876   0.5805   0.3005     O
N       0.0877   0.7305   0.0942     N
H       0.1038   0.9601   0.3544     H
C       0.1072   0.4739   0.0583     C
C        0.115   0.3096   0.5164     C
H       0.1363   0.1856   0.0174     H
N       0.1374   0.2218   0.4451     N
H       0.1481   0.4003   0.5221     H
H       0.1766   0.4564   0.0968     H
S       0.2113  0.58173  0.32689     S
O       0.2186   0.1042   0.2515     O
O       0.2187   0.7055   0.3961     O
O       0.2226   0.2001   0.2206     O
O       0.2331   0.9643   0.1123     O
O       0.2357   0.5835   0.4269     O
O       0.2379   0.9525   0.2181     O
Zn     0.24556  0.76543  0.15423    Zn
Zn     0.25444  0.26543  0.34577    Zn
O       0.2621   0.4525   0.2819     O
O       0.2643   0.0835   0.0731     O
O       0.2669   0.4643   0.3877     O
O       0.2774   0.7001   0.2794     O
O       0.2813   0.2055   0.1039     O
O       0.2814   0.6042   0.2485     O
S       0.2887  0.08173  0.17311     S
H       0.3234   0.9564   0.4032     H
H       0.3519   0.9003   0.9779     H
N       0.3626   0.7218   0.0549     N
H       0.3637   0.6856   0.4826     H
C        0.385   0.8096   0.9836     C
C       0.3928   0.9739   0.4417     C
H       0.3962   0.4601   0.1456     H
N       0.4123   0.2305   0.4058     N
O       0.4124   0.0805   0.1995     O
N       0.4244   0.7307   0.5087     N
C       0.4275   0.6004   0.0369     C
C       0.4368   0.4761   0.0883     C
C       0.4455   0.1052    0.448     C
C       0.4491   0.8714   0.4957     C
N        0.459   0.7556   0.9212     N
H       0.4841   0.7976   0.8697     H
C         0.49   0.6217   0.9512     C
H       0.4912   0.4192   0.4141     H
C       0.4928   0.3243   0.4335     C
C       0.5072   0.6757   0.5665     C
H       0.5088   0.5808   0.5859     H
C         0.51   0.3783   0.0488     C
H       0.5159   0.2024   0.1303     H
N        0.541   0.2444   0.0788     N
C       0.5509   0.1286   0.5043     C
C       0.5545   0.8948    0.552     C
C       0.5632   0.5239   0.9117     C
C       0.5725   0.3996   0.9631     C
N       0.5756   0.2693   0.4913     N
O       0.5876   0.9195   0.8005     O
N       0.5877   0.7695   0.5942     N
H       0.6038   0.5399   0.8544     H
C       0.6072   0.0261   0.5583     C
C        0.615   0.1904   0.0164     C
H       0.6363   0.3144   0.5174     H
N       0.6374   0.2782   0.9451     N
H       0.6481   0.0997   0.0221     H
H       0.6766   0.0436   0.5968     H
S       0.7113  0.91827  0.82689     S
O       0.7186   0.3958   0.7515     O
O       0.7187   0.7945   0.8961     O
O       0.7226   0.2999   0.7206     O
O       0.7331   0.5357   0.6123     O
O       0.7357   0.9165   0.9269     O
O       0.7379   0.5475   0.7181     O
Zn     0.74556  0.73457  0.65423    Zn
Zn     0.75444  0.23457  0.84577    Zn
O       0.7621   0.0475   0.7819     O
O       0.7643   0.4165   0.5731     O
O       0.7669   0.0357   0.8877     O
O       0.7774   0.7999   0.7794     O
O       0.7813   0.2945   0.6039     O
O       0.7814   0.8958   0.7485     O
S       0.7887  0.41827  0.67311     S
H       0.8234   0.5436   0.9032     H
H       0.8519   0.5997   0.4779     H
N       0.8626   0.7782   0.5549     N
H       0.8637   0.8144   0.9826     H
C        0.885   0.6904   0.4836     C
C       0.8928   0.5261   0.9417     C
H       0.8962   0.0399   0.6456     H
N       0.9123   0.2695   0.9058     N
O       0.9124   0.4195   0.6995     O
N       0.9244   0.7693   0.0087     N
C       0.9275   0.8996   0.5369     C
C       0.9368   0.0239   0.5883     C
C       0.9455   0.3948    0.948     C
C       0.9491   0.6286   0.9957     C
N        0.959   0.7444   0.4212     N
H       0.9841   0.7024   0.3697     H
C         0.99   0.8783   0.4512     C
H       0.9912   0.0808   0.9141     H
C       0.9928   0.1757   0.9335     C
