data_I
_chemical_name_common  '/home/zhangsd/repos/MofS-CGCNN/ML/data/WS24/clean_cifs/DUKXIS'
_cell_length_a  7.95298
_cell_length_b 17.21788
_cell_length_c 17.97340
_cell_angle_alpha 90.00000
_cell_angle_beta  90.00000
_cell_angle_gamma 90.00000
_space_group_name_H-M_alt      'P 1'


loop_
_space_group_symop_operation_xyz
  'x, y, z' 

loop_
_atom_site_label
_atom_site_fract_x
_atom_site_fract_y
_atom_site_fract_z
_atom_site_type_symbol
H     0.0243932 0.3128497 0.3489469     H
H     0.0243932 0.8128497 0.1510531     H
C     0.0300391 0.4164125 0.7653935     C
C     0.0300391 0.9164125 0.7346065     C
C     0.0374421 0.1999493 0.3062889     C
C     0.0374421 0.6999493 0.1937111     C
C     0.0437068  9.1e-05 0.7413956     C
C     0.0437068 0.500091 0.7586044     C
H     0.0473088 0.016194 0.8005997     H
H     0.0473088 0.516194 0.6994003     H
Cu     0.04755  0.21244  0.66276    Cu
Cu     0.04755  0.71244  0.83724    Cu
N     0.0488699 0.1566232 0.56923124     N
N     0.0488699 0.6566232 0.93076876     N
C     0.0547642 0.1225785 0.3194518     C
C     0.0547642 0.6225785 0.1805482     C
N     0.0580668 0.291224 0.7440954     N
N     0.0580668 0.791224 0.7559046     N
H     0.0654968 0.472284 0.2147424     H
H     0.0654968 0.972284 0.2852576     H
C     0.0760584 0.1105941 0.45565019     C
C     0.0760584 0.6105941 0.04434981     C
C     0.0878969 0.3968448 0.9759371     C
C     0.0878969 0.8968448 0.5240629     C
H     0.088403 0.1093748 0.00161961     H
H     0.088403 0.6093748 0.49838039     H
N     0.0997725 0.3631395 0.7188207     N
N     0.0997725 0.8631395 0.7811793     N
N     0.1047004 0.3683973 0.04613405     N
N     0.1047004 0.8683973 0.45386595     N
C     0.1083537 0.2621153 0.3507572     C
C     0.1083537 0.7621153 0.1492428     C
H     0.1179745 0.0246449 0.3868067     H
H     0.1179745 0.5246449 0.1131933     H
H     0.1222225 0.2424856 0.40867407     H
H     0.1222225 0.7424856 0.09132593     H
H     0.1266549 0.1826973 0.07064579     H
H     0.1266549 0.6826973 0.42935421     H
H     0.1340317 0.2072504 0.97358446     H
H     0.1340317 0.7072504 0.52641554     H
C      0.15058  0.08657  0.38252     C
C      0.15058  0.58657  0.11748     C
H     0.1560415 0.4137577 0.45471867     H
H     0.1560415 0.9137577 0.04528133     H
H     0.1596916 0.019934 0.7140023     H
H     0.1596916 0.519934 0.7859977     H
C     0.160585 0.1436391 0.51330914     C
C     0.160585 0.6436391 0.98669086     C
C     0.1614336 0.1618335 0.01488438     C
C     0.1614336 0.6618335 0.48511562     C
H     0.209007 0.493003 0.92910501     H
H     0.209007 0.993003 0.57089499     H
H     0.2124919 0.4061414 0.8738016     H
H     0.2124919 0.9061414 0.6261984     H
Cu     0.21487  0.37241  0.62747    Cu
Cu     0.21487  0.87241  0.87253    Cu
H     0.2175166 0.105655 0.8803178     H
H     0.2175166 0.605655 0.6196822     H
C     0.2213564 0.429392 0.93067118     C
C     0.2213564 0.929392 0.56932882     C
H     0.2323165 0.2782376 0.328433     H
H     0.2323165 0.7782376 0.171567     H
H     0.2676835 0.2782376 0.828433     H
H     0.2676835 0.7782376 0.671567     H
C     0.2786436 0.429392 0.43067118     C
C     0.2786436 0.929392 0.06932882     C
H     0.2824834 0.105655 0.3803178     H
H     0.2824834 0.605655 0.1196822     H
Cu     0.28513  0.37241  0.12747    Cu
Cu     0.28513  0.87241  0.37253    Cu
H     0.2875081 0.4061414 0.3738016     H
H     0.2875081 0.9061414 0.1261984     H
H     0.290993 0.493003 0.42910501     H
H     0.290993 0.993003 0.07089499     H
C     0.3385664 0.1618335 0.51488438     C
C     0.3385664 0.6618335 0.98511562     C
C     0.339415 0.1436391 0.01330914     C
C     0.339415 0.6436391 0.48669086     C
H     0.3403084 0.019934 0.2140023     H
H     0.3403084 0.519934 0.2859977     H
H     0.3439585 0.4137577 0.95471867     H
H     0.3439585 0.9137577 0.54528133     H
C      0.34942  0.08657  0.88252     C
C      0.34942  0.58657  0.61748     C
H     0.3659683 0.2072504 0.47358446     H
H     0.3659683 0.7072504 0.02641554     H
H     0.3733451 0.1826973 0.57064579     H
H     0.3733451 0.6826973 0.92935421     H
H     0.3777775 0.2424856 0.90867407     H
H     0.3777775 0.7424856 0.59132593     H
H     0.3820255 0.0246449 0.8868067     H
H     0.3820255 0.5246449 0.6131933     H
C     0.3916463 0.2621153 0.8507572     C
C     0.3916463 0.7621153 0.6492428     C
N     0.3952996 0.3683973 0.54613405     N
N     0.3952996 0.8683973 0.95386595     N
N     0.4002275 0.3631395 0.2188207     N
N     0.4002275 0.8631395 0.2811793     N
H     0.411597 0.1093748 0.50161961     H
H     0.411597 0.6093748 0.99838039     H
C     0.4121031 0.3968448 0.4759371     C
C     0.4121031 0.8968448 0.0240629     C
C     0.4239416 0.1105941 0.95565019     C
C     0.4239416 0.6105941 0.54434981     C
H     0.4345032 0.472284 0.7147424     H
H     0.4345032 0.972284 0.7852576     H
N     0.4419332 0.291224 0.2440954     N
N     0.4419332 0.791224 0.2559046     N
C     0.4452358 0.1225785 0.8194518     C
C     0.4452358 0.6225785 0.6805482     C
N     0.4511301 0.1566232 0.06923124     N
N     0.4511301 0.6566232 0.43076876     N
Cu     0.45245  0.21244  0.16276    Cu
Cu     0.45245  0.71244  0.33724    Cu
H     0.4526912 0.016194 0.3005997     H
H     0.4526912 0.516194 0.1994003     H
C     0.4562932  9.1e-05 0.2413956     C
C     0.4562932 0.500091 0.2586044     C
C     0.4625579 0.1999493 0.8062889     C
C     0.4625579 0.6999493 0.6937111     C
C     0.4699609 0.4164125 0.2653935     C
C     0.4699609 0.9164125 0.2346065     C
H     0.4756068 0.3128497 0.8489469     H
H     0.4756068 0.8128497 0.6510531     H
H     0.5243932 0.1871503 0.3489469     H
H     0.5243932 0.6871503 0.1510531     H
C     0.5300391 0.0835875 0.7653935     C
C     0.5300391 0.5835875 0.7346065     C
C     0.5374421 0.3000507 0.3062889     C
C     0.5374421 0.8000507 0.1937111     C
C     0.5437068 0.499909 0.7413956     C
C     0.5437068 0.999909 0.7586044     C
H     0.5473088 0.483806 0.8005997     H
H     0.5473088 0.983806 0.6994003     H
Cu     0.54755  0.28756  0.66276    Cu
Cu     0.54755  0.78756  0.83724    Cu
N     0.5488699 0.3433768 0.56923124     N
N     0.5488699 0.8433768 0.93076876     N
C     0.5547642 0.3774215 0.3194518     C
C     0.5547642 0.8774215 0.1805482     C
N     0.5580668 0.208776 0.7440954     N
N     0.5580668 0.708776 0.7559046     N
H     0.5654968 0.027716 0.2147424     H
H     0.5654968 0.527716 0.2852576     H
C     0.5760584 0.3894059 0.45565019     C
C     0.5760584 0.8894059 0.04434981     C
C     0.5878969 0.1031552 0.9759371     C
C     0.5878969 0.6031552 0.5240629     C
H     0.588403 0.3906252 0.00161961     H
H     0.588403 0.8906252 0.49838039     H
N     0.5997725 0.1368605 0.7188207     N
N     0.5997725 0.6368605 0.7811793     N
N     0.6047004 0.1316027 0.04613405     N
N     0.6047004 0.6316027 0.45386595     N
C     0.6083537 0.2378847 0.3507572     C
C     0.6083537 0.7378847 0.1492428     C
H     0.6179745 0.4753551 0.3868067     H
H     0.6179745 0.9753551 0.1131933     H
H     0.6222225 0.2575144 0.40867407     H
H     0.6222225 0.7575144 0.09132593     H
H     0.6266549 0.3173027 0.07064579     H
H     0.6266549 0.8173027 0.42935421     H
H     0.6340317 0.2927496 0.97358446     H
H     0.6340317 0.7927496 0.52641554     H
C      0.65058  0.41343  0.38252     C
C      0.65058  0.91343  0.11748     C
H     0.6560415 0.0862423 0.45471867     H
H     0.6560415 0.5862423 0.04528133     H
H     0.6596916 0.480066 0.7140023     H
H     0.6596916 0.980066 0.7859977     H
C     0.660585 0.3563609 0.51330914     C
C     0.660585 0.8563609 0.98669086     C
C     0.6614336 0.3381665 0.01488438     C
C     0.6614336 0.8381665 0.48511562     C
H     0.709007 0.006997 0.92910501     H
H     0.709007 0.506997 0.57089499     H
H     0.7124919 0.0938586 0.8738016     H
H     0.7124919 0.5938586 0.6261984     H
Cu     0.71487  0.12759  0.62747    Cu
Cu     0.71487  0.62759  0.87253    Cu
H     0.7175166 0.394345 0.8803178     H
H     0.7175166 0.894345 0.6196822     H
C     0.7213564 0.070608 0.93067118     C
C     0.7213564 0.570608 0.56932882     C
H     0.7323165 0.2217624 0.328433     H
H     0.7323165 0.7217624 0.171567     H
H     0.7676835 0.2217624 0.828433     H
H     0.7676835 0.7217624 0.671567     H
C     0.7786436 0.070608 0.43067118     C
C     0.7786436 0.570608 0.06932882     C
H     0.7824834 0.394345 0.3803178     H
H     0.7824834 0.894345 0.1196822     H
Cu     0.78513  0.12759  0.12747    Cu
Cu     0.78513  0.62759  0.37253    Cu
H     0.7875081 0.0938586 0.3738016     H
H     0.7875081 0.5938586 0.1261984     H
H     0.790993 0.006997 0.42910501     H
H     0.790993 0.506997 0.07089499     H
C     0.8385664 0.3381665 0.51488438     C
C     0.8385664 0.8381665 0.98511562     C
C     0.839415 0.3563609 0.01330914     C
C     0.839415 0.8563609 0.48669086     C
H     0.8403084 0.480066 0.2140023     H
H     0.8403084 0.980066 0.2859977     H
H     0.8439585 0.0862423 0.95471867     H
H     0.8439585 0.5862423 0.54528133     H
C      0.84942  0.41343  0.88252     C
C      0.84942  0.91343  0.61748     C
H     0.8659683 0.2927496 0.47358446     H
H     0.8659683 0.7927496 0.02641554     H
H     0.8733451 0.3173027 0.57064579     H
H     0.8733451 0.8173027 0.92935421     H
H     0.8777775 0.2575144 0.90867407     H
H     0.8777775 0.7575144 0.59132593     H
H     0.8820255 0.4753551 0.8868067     H
H     0.8820255 0.9753551 0.6131933     H
C     0.8916463 0.2378847 0.8507572     C
C     0.8916463 0.7378847 0.6492428     C
N     0.8952996 0.1316027 0.54613405     N
N     0.8952996 0.6316027 0.95386595     N
N     0.9002275 0.1368605 0.2188207     N
N     0.9002275 0.6368605 0.2811793     N
H     0.911597 0.3906252 0.50161961     H
H     0.911597 0.8906252 0.99838039     H
C     0.9121031 0.1031552 0.4759371     C
C     0.9121031 0.6031552 0.0240629     C
C     0.9239416 0.3894059 0.95565019     C
C     0.9239416 0.8894059 0.54434981     C
H     0.9345032 0.027716 0.7147424     H
H     0.9345032 0.527716 0.7852576     H
N     0.9419332 0.208776 0.2440954     N
N     0.9419332 0.708776 0.2559046     N
C     0.9452358 0.3774215 0.8194518     C
C     0.9452358 0.8774215 0.6805482     C
N     0.9511301 0.3433768 0.06923124     N
N     0.9511301 0.8433768 0.43076876     N
Cu     0.95245  0.28756  0.16276    Cu
Cu     0.95245  0.78756  0.33724    Cu
H     0.9526912 0.483806 0.3005997     H
H     0.9526912 0.983806 0.1994003     H
C     0.9562932 0.499909 0.2413956     C
C     0.9562932 0.999909 0.2586044     C
C     0.9625579 0.3000507 0.8062889     C
C     0.9625579 0.8000507 0.6937111     C
C     0.9699609 0.0835875 0.2653935     C
C     0.9699609 0.5835875 0.2346065     C
H     0.9756068 0.1871503 0.8489469     H
H     0.9756068 0.6871503 0.6510531     H
