data_I
_chemical_name_common  '/home/zhangsd/repos/MofS-CGCNN/ML/data/WS24/clean_cifs/DUKXOY'
_cell_length_a  9.30985
_cell_length_b 14.77452
_cell_length_c 15.24600
_cell_angle_alpha 90.00000
_cell_angle_beta  90.00000
_cell_angle_gamma 100.49610
_space_group_name_H-M_alt      'P 1'


loop_
_space_group_symop_operation_xyz
  'x, y, z' 

loop_
_atom_site_label
_atom_site_fract_x
_atom_site_fract_y
_atom_site_fract_z
_atom_site_type_symbol
C     0.05194721 0.1084054 0.842772     C
C     0.05194721 0.6084054 0.657228     C
C     0.06165681 0.2583301 0.8411945     C
C     0.06165681 0.7583301 0.6588055     C
N     0.06185666 0.2817071 0.2984212     N
N     0.06185666 0.7817071 0.2015788     N
N     0.06785753 0.3743657 0.2993962     N
N     0.06785753 0.8743657 0.2006038     N
H     0.07557307 0.0494368 0.8531961     H
H     0.07557307 0.5494368 0.6468039     H
H     0.09325591 0.3224753 0.8503232     H
H     0.09325591 0.8224753 0.6496768     H
C     0.1392318 0.1834247 0.8714264     C
C     0.1392318 0.6834247 0.6285736     C
H     0.1688317 0.47029302 0.8854526     H
H     0.1688317 0.97029302 0.6145474     H
H     0.1735356 0.435663 0.0849266     H
H     0.1735356 0.935663 0.4150734     H
H     0.1968088 0.0393408 0.028968     H
H     0.1968088 0.5393408 0.471032     H
N     0.2107689 0.111842 0.145517     N
N     0.2107689 0.611842 0.354483     N
C     0.2126681 0.49876549 0.0746973     C
C     0.2126681 0.99876549 0.4253027     C
C     0.2175109 0.0973449 0.057642     C
C     0.2175109 0.5973449 0.442358     C
N     0.2208345 0.0680376 0.3657376     N
N     0.2208345 0.5680376 0.1342624     N
Cd     0.22428  0.49741  0.26138    Cd
Cd     0.22428  0.99741  0.23862    Cd
N     0.2481842 0.2039209 0.160208     N
N     0.2481842 0.7039209 0.339792     N
C     0.2590929 0.1804642 0.018023     C
C     0.2590929 0.6804642 0.481977     C
C     0.2658475 0.02620981 0.5033296     C
C     0.2658475 0.52620981 0.9966704     C
C      0.27805 0.2463318 0.081413     C
C      0.27805 0.7463318 0.418587     C
C      0.27886  0.47445  0.91327     C
C      0.27886  0.97445  0.58673     C
C      0.28032  0.19665  0.92138     C
C      0.28032  0.69665  0.57862     C
N     0.2835721 0.1477746 0.4057044     N
N     0.2835721 0.6477746 0.0942956     N
Cd     0.29949   0.2605  0.29652    Cd
Cd     0.29949   0.7605  0.20348    Cd
H     0.3070609 0.3106714 0.072258     H
H     0.3070609 0.8106714 0.427742     H
H     0.3096737 0.40837256 0.9309407     H
H     0.3096737 0.90837256 0.5690593     H
C     0.3141796 0.1277826 0.4899703     C
C     0.3141796 0.6277826 0.0100297     C
H     0.3229835 0.2700409 0.9093907     H
H     0.3229835 0.7700409 0.5906093     H
H     0.342407 0.1567497 0.6527978     H
H     0.342407 0.6567497 0.8472022     H
H     0.3458873 0.1482473 0.8945808     H
H     0.3458873 0.6482473 0.6054192     H
H     0.3584054 0.1706252 0.5328443     H
H     0.3584054 0.6706252 0.9671557     H
C     0.3898537 0.02550288 0.6488601     C
C     0.3898537 0.52550288 0.8511399     C
C     0.4024002 0.1153244 0.6726288     C
C     0.4024002 0.6153244 0.8273712     C
N     0.4264828 0.441965 0.2413188     N
N     0.4264828 0.941965 0.2586812     N
N     0.4840895 0.3645696 0.2297714     N
N     0.4840895 0.8645696 0.2702286     N
H     0.4878424 0.07131245 0.3131753     H
H     0.4878424 0.57131245 0.1868247     H
C     0.4956098 0.49009607 0.8086872     C
C     0.4956098 0.99009607 0.6913128     C
C     0.5043902 0.00990393 0.3086872     C
C     0.5043902 0.50990393 0.1913128     C
H     0.5121576 0.42868755 0.8131753     H
H     0.5121576 0.92868755 0.6868247     H
N     0.5159105 0.1354304 0.7297714     N
N     0.5159105 0.6354304 0.7702286     N
N     0.5735172 0.058035 0.7413188     N
N     0.5735172 0.558035 0.7586812     N
C     0.5975998 0.3846756 0.1726288     C
C     0.5975998 0.8846756 0.3273712     C
C     0.6101463 0.47449712 0.1488601     C
C     0.6101463 0.97449712 0.3511399     C
H     0.6415946 0.3293748 0.0328443     H
H     0.6415946 0.8293748 0.4671557     H
H     0.6541127 0.3517527 0.3945808     H
H     0.6541127 0.8517527 0.1054192     H
H     0.657593 0.3432503 0.1527978     H
H     0.657593 0.8432503 0.3472022     H
H     0.6770165 0.2299591 0.4093907     H
H     0.6770165 0.7299591 0.0906093     H
C     0.6858204 0.3722174 0.9899703     C
C     0.6858204 0.8722174 0.5100297     C
H     0.6903263 0.09162744 0.4309407     H
H     0.6903263 0.59162744 0.0690593     H
H     0.6929391 0.1893286 0.572258     H
H     0.6929391 0.6893286 0.927742     H
Cd     0.70051   0.2395  0.79652    Cd
Cd     0.70051   0.7395  0.70348    Cd
N     0.7164279 0.3522254 0.9057044     N
N     0.7164279 0.8522254 0.5942956     N
C      0.71968  0.30335  0.42138     C
C      0.71968  0.80335  0.07862     C
C      0.72114  0.02555  0.41327     C
C      0.72114  0.52555  0.08673     C
C      0.72195 0.2536682 0.581413     C
C      0.72195 0.7536682 0.918587     C
C     0.7341525 0.47379019 0.0033296     C
C     0.7341525 0.97379019 0.4966704     C
C     0.7409071 0.3195358 0.518023     C
C     0.7409071 0.8195358 0.981977     C
N     0.7518158 0.2960791 0.660208     N
N     0.7518158 0.7960791 0.839792     N
Cd     0.77572  0.00259  0.76138    Cd
Cd     0.77572  0.50259  0.73862    Cd
N     0.7791655 0.4319624 0.8657376     N
N     0.7791655 0.9319624 0.6342624     N
C     0.7824891 0.4026551 0.557642     C
C     0.7824891 0.9026551 0.942358     C
C     0.7873319 0.00123452 0.5746973     C
C     0.7873319 0.50123452 0.9253027     C
N     0.7892311 0.388158 0.645517     N
N     0.7892311 0.888158 0.854483     N
H     0.8031912 0.4606592 0.528968     H
H     0.8031912 0.9606592 0.971032     H
H     0.8264644 0.064337 0.5849266     H
H     0.8264644 0.564337 0.9150734     H
H     0.8311683 0.02970698 0.3854526     H
H     0.8311683 0.52970698 0.1145474     H
C     0.8607682 0.3165753 0.3714264     C
C     0.8607682 0.8165753 0.1285736     C
H     0.90674409 0.1775247 0.3503232     H
H     0.90674409 0.6775247 0.1496768     H
H     0.92442693 0.4505632 0.3531961     H
H     0.92442693 0.9505632 0.1468039     H
N     0.93214247 0.1256343 0.7993962     N
N     0.93214247 0.6256343 0.7006038     N
N     0.93814334 0.2182929 0.7984212     N
N     0.93814334 0.7182929 0.7015788     N
C     0.93834319 0.2416699 0.3411945     C
C     0.93834319 0.7416699 0.1588055     C
C     0.94805279 0.3915946 0.342772     C
C     0.94805279 0.8915946 0.157228     C
