data_I
_chemical_name_common  '/home/zhangsd/repos/MofS-CGCNN/ML/data/WS24/clean_cifs/DUKXAK'
_cell_length_a  7.93214
_cell_length_b  8.46710
_cell_length_c 16.98325
_cell_angle_alpha 90.00000
_cell_angle_beta  90.00000
_cell_angle_gamma 90.00000
_space_group_name_H-M_alt      'P 1'


loop_
_space_group_symop_operation_xyz
  'x, y, z' 

loop_
_atom_site_label
_atom_site_fract_x
_atom_site_fract_y
_atom_site_fract_z
_atom_site_type_symbol
C     0.003351 0.3561711 0.1405213     C
C     0.003351 0.6438289 0.3594787     C
H     0.0217056 0.4761115 0.6185559     H
H     0.0217056 0.5238885 0.8814441     H
H     0.03296461 0.1141101 0.0050945     H
H     0.03296461 0.8858899 0.4949055     H
Cd     0.03316      0.0     0.75    Cd
H     0.0497412 0.3627447 0.2014714     H
H     0.0497412 0.6372553 0.2985286     H
C     0.06311545 0.1456428  0.94386     C
C     0.06311545 0.8543572  0.55614     C
C     0.09715255 0.1695054 0.3985153     C
C     0.09715255 0.8304946 0.1014847     C
H     0.0991814 0.2994195 0.1032215     H
H     0.0991814 0.7005805 0.3967785     H
H     0.1283468 0.392788 0.5156531     H
H     0.1283468 0.607212 0.9843469     H
N     0.1316347 0.1107882 0.3257396     N
N     0.1316347 0.8892118 0.1742604     N
H     0.1367109  0.04994 0.9167114     H
H     0.1367109  0.95006 0.5832886     H
H     0.1373676 0.2553543 0.943074     H
H     0.1373676 0.7446457 0.556926     H
C     0.1477632 0.2469477 0.6347075     C
C     0.1477632 0.7530523 0.8652925     C
N     0.2107146 0.1586501 0.6947932     N
N     0.2107146 0.8413499 0.8052068     N
C     0.2334921 0.2536566 0.4229603     C
C     0.2334921 0.7463434 0.0770397     C
C         0.25 0.3389033      0.5     C
C         0.25 0.6610967      0.0     C
C     0.2665079 0.2536566 0.5770397     C
C     0.2665079 0.7463434 0.9229603     C
N     0.2892854 0.1586501 0.3052068     N
N     0.2892854 0.8413499 0.1947932     N
C     0.3522368 0.2469477 0.3652925     C
C     0.3522368 0.7530523 0.1347075     C
H     0.3626324 0.2553543 0.056926     H
H     0.3626324 0.7446457 0.443074     H
H     0.3632891  0.04994 0.0832886     H
H     0.3632891  0.95006 0.4167114     H
N     0.3683653 0.1107882 0.6742604     N
N     0.3683653 0.8892118 0.8257396     N
H     0.3716532 0.392788 0.4843469     H
H     0.3716532 0.607212 0.0156531     H
H     0.4008186 0.2994195 0.8967785     H
H     0.4008186 0.7005805 0.6032215     H
C     0.40284745 0.1695054 0.6014847     C
C     0.40284745 0.8304946 0.8985153     C
C     0.43688455 0.1456428  0.05614     C
C     0.43688455 0.8543572  0.44386     C
H     0.4502588 0.3627447 0.7985286     H
H     0.4502588 0.6372553 0.7014714     H
Cd     0.46684      0.0     0.25    Cd
H     0.46703539 0.1141101 0.9949055     H
H     0.46703539 0.8858899 0.5050945     H
H     0.4782944 0.4761115 0.3814441     H
H     0.4782944 0.5238885 0.1185559     H
C     0.496649 0.3561711 0.8594787     C
C     0.496649 0.6438289 0.6405213     C
C     0.503351 0.3561711 0.3594787     C
C     0.503351 0.6438289 0.1405213     C
H     0.5217056 0.4761115 0.8814441     H
H     0.5217056 0.5238885 0.6185559     H
H     0.53296461 0.1141101 0.4949055     H
H     0.53296461 0.8858899 0.0050945     H
Cd     0.53316      0.0     0.75    Cd
H     0.5497412 0.3627447 0.2985286     H
H     0.5497412 0.6372553 0.2014714     H
C     0.56311545 0.1456428  0.55614     C
C     0.56311545 0.8543572  0.94386     C
C     0.59715255 0.1695054 0.1014847     C
C     0.59715255 0.8304946 0.3985153     C
H     0.5991814 0.2994195 0.3967785     H
H     0.5991814 0.7005805 0.1032215     H
H     0.6283468 0.392788 0.9843469     H
H     0.6283468 0.607212 0.5156531     H
N     0.6316347 0.1107882 0.1742604     N
N     0.6316347 0.8892118 0.3257396     N
H     0.6367109  0.04994 0.5832886     H
H     0.6367109  0.95006 0.9167114     H
H     0.6373676 0.2553543 0.556926     H
H     0.6373676 0.7446457 0.943074     H
C     0.6477632 0.2469477 0.8652925     C
C     0.6477632 0.7530523 0.6347075     C
N     0.7107146 0.1586501 0.8052068     N
N     0.7107146 0.8413499 0.6947932     N
C     0.7334921 0.2536566 0.0770397     C
C     0.7334921 0.7463434 0.4229603     C
C         0.75 0.3389033      0.0     C
C         0.75 0.6610967      0.5     C
C     0.7665079 0.2536566 0.9229603     C
C     0.7665079 0.7463434 0.5770397     C
N     0.7892854 0.1586501 0.1947932     N
N     0.7892854 0.8413499 0.3052068     N
C     0.8522368 0.2469477 0.1347075     C
C     0.8522368 0.7530523 0.3652925     C
H     0.8626324 0.2553543 0.443074     H
H     0.8626324 0.7446457 0.056926     H
H     0.8632891  0.04994 0.4167114     H
H     0.8632891  0.95006 0.0832886     H
N     0.8683653 0.1107882 0.8257396     N
N     0.8683653 0.8892118 0.6742604     N
H     0.8716532 0.392788 0.0156531     H
H     0.8716532 0.607212 0.4843469     H
H     0.9008186 0.2994195 0.6032215     H
H     0.9008186 0.7005805 0.8967785     H
C     0.90284745 0.1695054 0.8985153     C
C     0.90284745 0.8304946 0.6014847     C
C     0.93688455 0.1456428  0.44386     C
C     0.93688455 0.8543572  0.05614     C
H     0.9502588 0.3627447 0.7014714     H
H     0.9502588 0.6372553 0.7985286     H
Cd     0.96684      0.0     0.25    Cd
H     0.96703539 0.1141101 0.5050945     H
H     0.96703539 0.8858899 0.9949055     H
H     0.9782944 0.4761115 0.1185559     H
H     0.9782944 0.5238885 0.3814441     H
C     0.996649 0.3561711 0.6405213     C
C     0.996649 0.6438289 0.8594787     C
