data_I
_chemical_name_common  '/home/zhangsd/repos/MofS-CGCNN/ML/data/WS24/clean_cifs/DUKYIT'
_cell_length_a 18.60190
_cell_length_b 18.60190
_cell_length_c  7.27450
_cell_angle_alpha 90.00000
_cell_angle_beta  90.00000
_cell_angle_gamma 90.00000
_space_group_name_H-M_alt      'P 1'


loop_
_space_group_symop_operation_xyz
  'x, y, z' 

loop_
_atom_site_label
_atom_site_fract_x
_atom_site_fract_y
_atom_site_fract_z
_atom_site_type_symbol
C      0.00254   0.0503  0.85885     C
C      0.00254   0.4497  0.64115     C
H      0.00427  0.08468  0.76238     H
H      0.00427  0.41532  0.73762     H
H      0.02848  0.13944  0.71131     H
H      0.02848  0.36056  0.78869     H
C       0.0503  0.00254  0.14115     C
C       0.0503  0.49746  0.35885     C
C      0.05284  0.05284      0.0     C
C      0.05284  0.44716      0.5     C
H      0.07406  0.22219  0.66046     H
H      0.07406  0.27781  0.83954     H
C      0.08137  0.16505  0.69462     C
C      0.08137  0.33495  0.80538     C
H      0.08468  0.00427  0.23762     H
H      0.08468  0.49573  0.26238     H
C      0.10986  0.10986      0.0     C
C      0.10986  0.39014      0.5     C
H      0.11096  0.13827  0.58305     H
H      0.11096  0.36173  0.91695     H
C      0.12167  0.15881  0.86447     C
C      0.12167  0.34119  0.63553     C
H      0.13827  0.11096  0.41695     H
H      0.13827  0.38904  0.08305     H
H      0.13944  0.02848  0.28869     H
H      0.13944  0.47152  0.21131     H
C      0.15881  0.12167  0.13553     C
C      0.15881  0.37833  0.36447     C
C      0.16505  0.08137  0.30538     C
C      0.16505  0.41863  0.19462     C
N      0.17793  0.20089  0.91624     N
N      0.17793  0.29911  0.58376     N
N      0.20089  0.17793  0.08376     N
N      0.20089  0.32207  0.41624     N
H      0.22219  0.07406  0.33954     H
H      0.22219  0.42594  0.16046     H
Co        0.25     0.25     0.25    Co
Co        0.25     0.25     0.75    Co
H      0.27781  0.07406  0.16046     H
H      0.27781  0.42594  0.33954     H
N      0.29911  0.17793  0.41624     N
N      0.29911  0.32207  0.08376     N
N      0.32207  0.20089  0.58376     N
N      0.32207  0.29911  0.91624     N
C      0.33495  0.08137  0.19462     C
C      0.33495  0.41863  0.30538     C
C      0.34119  0.12167  0.36447     C
C      0.34119  0.37833  0.13553     C
H      0.36056  0.02848  0.21131     H
H      0.36056  0.47152  0.28869     H
H      0.36173  0.11096  0.08305     H
H      0.36173  0.38904  0.41695     H
C      0.37833  0.15881  0.63553     C
C      0.37833  0.34119  0.86447     C
H      0.38904  0.13827  0.91695     H
H      0.38904  0.36173  0.58305     H
C      0.39014  0.10986      0.5     C
C      0.39014  0.39014      0.0     C
H      0.41532  0.00427  0.26238     H
H      0.41532  0.49573  0.23762     H
C      0.41863  0.16505  0.80538     C
C      0.41863  0.33495  0.69462     C
H      0.42594  0.22219  0.83954     H
H      0.42594  0.27781  0.66046     H
C      0.44716  0.05284      0.5     C
C      0.44716  0.44716      0.0     C
C       0.4497  0.00254  0.35885     C
C       0.4497  0.49746  0.14115     C
H      0.47152  0.13944  0.78869     H
H      0.47152  0.36056  0.71131     H
H      0.49573  0.08468  0.73762     H
H      0.49573  0.41532  0.76238     H
C      0.49746   0.0503  0.64115     C
C      0.49746   0.4497  0.85885     C
C      0.50254   0.5503  0.14115     C
C      0.50254   0.9497  0.35885     C
H      0.50427  0.58468  0.23762     H
H      0.50427  0.91532  0.26238     H
H      0.52848  0.63944  0.28869     H
H      0.52848  0.86056  0.21131     H
C       0.5503  0.50254  0.85885     C
C       0.5503  0.99746  0.64115     C
C      0.55284  0.55284      0.0     C
C      0.55284  0.94716      0.5     C
H      0.57406  0.72219  0.33954     H
H      0.57406  0.77781  0.16046     H
C      0.58137  0.66505  0.30538     C
C      0.58137  0.83495  0.19462     C
H      0.58468  0.50427  0.76238     H
H      0.58468  0.99573  0.73762     H
C      0.60986  0.60986      0.0     C
C      0.60986  0.89014      0.5     C
H      0.61096  0.63827  0.41695     H
H      0.61096  0.86173  0.08305     H
C      0.62167  0.65881  0.13553     C
C      0.62167  0.84119  0.36447     C
H      0.63827  0.61096  0.58305     H
H      0.63827  0.88904  0.91695     H
H      0.63944  0.52848  0.71131     H
H      0.63944  0.97152  0.78869     H
C      0.65881  0.62167  0.86447     C
C      0.65881  0.87833  0.63553     C
C      0.66505  0.58137  0.69462     C
C      0.66505  0.91863  0.80538     C
N      0.67793  0.70089  0.08376     N
N      0.67793  0.79911  0.41624     N
N      0.70089  0.67793  0.91624     N
N      0.70089  0.82207  0.58376     N
H      0.72219  0.57406  0.66046     H
H      0.72219  0.92594  0.83954     H
Co        0.75     0.75     0.25    Co
Co        0.75     0.75     0.75    Co
H      0.77781  0.57406  0.83954     H
H      0.77781  0.92594  0.66046     H
N      0.79911  0.67793  0.58376     N
N      0.79911  0.82207  0.91624     N
N      0.82207  0.70089  0.41624     N
N      0.82207  0.79911  0.08376     N
C      0.83495  0.58137  0.80538     C
C      0.83495  0.91863  0.69462     C
C      0.84119  0.62167  0.63553     C
C      0.84119  0.87833  0.86447     C
H      0.86056  0.52848  0.78869     H
H      0.86056  0.97152  0.71131     H
H      0.86173  0.61096  0.91695     H
H      0.86173  0.88904  0.58305     H
C      0.87833  0.65881  0.36447     C
C      0.87833  0.84119  0.13553     C
H      0.88904  0.63827  0.08305     H
H      0.88904  0.86173  0.41695     H
C      0.89014  0.60986      0.5     C
C      0.89014  0.89014      0.0     C
H      0.91532  0.50427  0.73762     H
H      0.91532  0.99573  0.76238     H
C      0.91863  0.66505  0.19462     C
C      0.91863  0.83495  0.30538     C
H      0.92594  0.72219  0.16046     H
H      0.92594  0.77781  0.33954     H
C      0.94716  0.55284      0.5     C
C      0.94716  0.94716      0.0     C
C       0.9497  0.50254  0.64115     C
C       0.9497  0.99746  0.85885     C
H      0.97152  0.63944  0.21131     H
H      0.97152  0.86056  0.28869     H
H      0.99573  0.58468  0.26238     H
H      0.99573  0.91532  0.23762     H
C      0.99746   0.5503  0.35885     C
C      0.99746   0.9497  0.14115     C
