data_I
_chemical_name_common  '/home/zhangsd/repos/MofS-CGCNN/ML/data/WS24/clean_cifs/DULBUJ'
_cell_length_a 12.13680
_cell_length_b 14.43350
_cell_length_c 22.79720
_cell_angle_alpha 90.00000
_cell_angle_beta  101.60000
_cell_angle_gamma 90.00000
_space_group_name_H-M_alt      'P 1'


loop_
_space_group_symop_operation_xyz
  'x, y, z' 

loop_
_atom_site_label
_atom_site_fract_x
_atom_site_fract_y
_atom_site_fract_z
_atom_site_type_symbol
C       0.0001   0.4368   0.5434     C
H       0.0003   0.6081   0.4274     H
O       0.0009   0.1014  0.36399     O
N       0.0113    0.082  0.83292     N
N        0.017   0.1623   0.7527     N
H       0.0181   0.9925   0.9015     H
H       0.0219    0.586    0.191     H
C       0.0221   0.7922  0.06184     C
N       0.0256   0.5856  0.65758     N
C       0.0321   0.6726  0.67669     C
C       0.0324   0.0579  0.89691     C
H       0.0436   0.2333   0.9301     H
C       0.0439   0.8851  0.07232     C
H       0.0452   0.4226   0.1407     H
N       0.0477   0.3087  0.29355     N
C        0.048   0.4754  0.05804     C
C       0.0484   0.5827   0.5152     C
C       0.0486   0.5203  0.55944     C
Zn     0.05141   0.2585  0.69667    Zn
O        0.054   0.8917  0.73382     O
C       0.0602   0.4887   0.9559     C
H       0.0637   0.2001   0.5644     H
C       0.0639   0.4553   0.3241     C
C       0.0646   0.9201   0.6829     C
O        0.065   0.1661  0.17359     O
C       0.0682   0.1445  0.80796     C
Zn     0.07739  0.18518  0.26098    Zn
C       0.0777   0.8917  0.25732     C
H       0.0801   0.6744   0.0332     H
C       0.0812   0.9408  0.20797     C
H       0.0819   0.6403   0.5246     H
H        0.086   0.7149     0.67     H
H       0.0891   0.5159   0.3311     H
H       0.0896    0.182   0.0653     H
O       0.0924   0.6978  0.35212     O
C       0.0962   0.7369  0.03969     C
C        0.097   0.5887   0.1878     C
H       0.1011   0.4811   0.9258     H
C       0.1013   0.4508   0.1215     C
O       0.1024   0.3779  0.73416     O
C       0.1026   0.5405  0.62399     C
C        0.107   0.4644   0.0134     C
C       0.1073   0.3893  0.29383     C
H       0.1104   0.0702    0.915     H
H       0.1145   0.7636   0.9001     H
O       0.1177   0.8355  0.39507     O
H       0.1291   0.4828   0.6437     H
H       0.1312   0.8939   0.2928     H
C       0.1348   0.2176  0.58482     C
H       0.1352   0.1719   0.8271     H
H       0.1367   0.9827   0.2028     H
C       0.1382   0.2167  0.15646     C
C       0.1411   0.9206    0.059     C
H       0.1412   0.0433   0.6658     H
C       0.1483   0.7551  0.38822     C
N       0.1492   0.5313   0.1563     N
H       0.1502   0.2185   0.4724     H
C       0.1511   0.2038  0.09301     C
H       0.1569   0.9832   0.0653     H
H       0.1589   0.6992   0.2381     H
C       0.1594   0.9844   0.6813     C
H       0.1603   0.4055   0.1212     H
N       0.1604   0.2366  0.64239     N
H       0.1674   0.5801   0.6249     H
H       0.1689   0.3972   0.2758     H
C       0.1729   0.6507   0.2138     C
H       0.1795   0.4402   0.0223     H
H       0.1817   0.5122   0.8028     H
H       0.1871    0.777   0.8088     H
C       0.1882   0.7527   0.8961     C
C       0.1895   0.3746  0.77545     C
H       0.1903   0.0326   0.3537     H
C       0.1941   0.7727  0.02696     C
O       0.1969  0.27346  0.18861     O
C       0.2152   0.8657   0.0367     C
H       0.2197   0.3915   0.4719     H
N       0.2242   0.2266  0.55954     N
C       0.2253   0.2094    0.496     C
N       0.2266   0.1319   0.3007     N
C       0.2285   0.7594    0.846     C
C       0.2334   0.4657   0.8002     C
O       0.2364   0.3022  0.79505     O
H       0.2429    0.212    0.034     H
C        0.244   0.2214  0.07445     C
C       0.2448   0.0602  0.33599     C
H       0.2467   0.1456   0.4912     H
H       0.2533   0.6456   0.0088     H
C       0.2552   0.5602  0.16401     C
C        0.256   0.7214  0.42555     C
H       0.2571    0.712    0.466     H
O       0.2636   0.8022  0.70495     O
C       0.2666   0.9657   0.6998     C
C       0.2715   0.2594    0.654     C
N       0.2734   0.6319   0.1993     N
C       0.2747   0.7094    0.004     C
N       0.2758   0.7266  0.94046     N
H       0.2803   0.8915   0.0281     H
C       0.2848   0.3657   0.4633     C
O       0.3031  0.77346  0.31139     O
C       0.3059   0.2727  0.47304     C
H       0.3097   0.5326   0.1463     H
C       0.3105   0.8746  0.72455     C
C       0.3118   0.2527   0.6039     C
H       0.3129    0.277   0.6912     H
H       0.3183   0.0122   0.6972     H
H       0.3205   0.9402   0.4777     H
C       0.3271   0.1507   0.2862     C
H       0.3311   0.8972   0.2242     H
H       0.3326   0.0801   0.8751     H
N       0.3396   0.7366  0.85761     N
H       0.3397   0.9055   0.3788     H
C       0.3406   0.4844   0.8187     C
H       0.3411   0.1992   0.2619     H
H       0.3431   0.4832   0.4347     H
C       0.3489   0.7038  0.40699     C
H       0.3498   0.7185   0.0276     H
N       0.3508   0.0313   0.3437     N
C       0.3517   0.2551  0.11178     C
H       0.3588   0.5433   0.8342     H
C       0.3589   0.4206    0.441     C
C       0.3618   0.7167  0.34354     C
H       0.3633   0.4827   0.2972     H
H       0.3648   0.6719   0.6729     H
C       0.3652   0.7176  0.91518     C
H       0.3688   0.3939   0.2072     H
H       0.3709   0.9828   0.8563     H
O       0.3823   0.3355  0.10493     O
H       0.3855   0.2636   0.5999     H
H       0.3896   0.5702    0.585     H
C       0.3927   0.8893  0.20617     C
C        0.393   0.9644   0.4866     C
C       0.3974   0.0405  0.87601     C
O       0.3976   0.8779  0.76584     O
C       0.3987   0.9508   0.3785     C
H       0.3989   0.9811   0.5742     H
C        0.403   0.0887   0.3122     C
C       0.4038   0.2369  0.46031     C
O       0.4076   0.1978  0.14788     O
H       0.4104    0.682   0.4347     H
H       0.4109   0.0159   0.1689     H
H        0.414   0.2149     0.83     H
H       0.4181   0.1403   0.9754     H
C       0.4188   0.4408  0.29203     C
H       0.4199   0.1744   0.4668     H
C       0.4223   0.3917  0.24268     C
Zn     0.42261  0.68518  0.23902    Zn
C       0.4318   0.6445  0.69204     C
O        0.435   0.6661  0.32641     O
C       0.4354   0.4201   0.8171     C
C       0.4361   0.9553   0.1759     C
H       0.4363   0.7001   0.9356     H
C       0.4398   0.9887   0.5441     C
O        0.446   0.3917  0.76618     O
Zn     0.44859   0.7585  0.80333    Zn
C       0.4514   0.0203  0.94056     C
C       0.4516   0.0827   0.9848     C
C        0.452   0.9754  0.44196     C
N       0.4523   0.8087  0.20645     N
H       0.4548   0.9226   0.3593     H
C       0.4561   0.3851  0.42768     C
H       0.4564   0.7333   0.5699     H
C       0.4676   0.5579  0.60309     C
C       0.4679   0.1726  0.82331     C
N       0.4744   0.0856  0.84242     N
C       0.4779   0.2922  0.43816     C
H       0.4781    0.086    0.309     H
H       0.4819   0.4925   0.5985     H
N        0.483   0.6623   0.7473     N
N       0.4887    0.582  0.66708     N
O       0.4991   0.6014  0.13601     O
H       0.4997   0.1081   0.0726     H
C       0.4999   0.9368   0.9566     C
C       0.5001   0.0632   0.0434     C
H       0.5003   0.8919   0.9274     H
O       0.5009   0.3986  0.86399     O
N       0.5113    0.418  0.33292     N
N        0.517   0.3377   0.2527     N
H       0.5181   0.5075   0.4015     H
H       0.5219    0.914    0.691     H
C       0.5221   0.7078  0.56184     C
N       0.5256   0.9144  0.15758     N
C       0.5321   0.8274  0.17669     C
C       0.5324   0.4421  0.39691     C
H       0.5436   0.2667   0.4301     H
C       0.5439   0.6149  0.57232     C
H       0.5452   0.0774   0.6407     H
N       0.5477   0.1913  0.79355     N
C        0.548   0.0246  0.55804     C
C       0.5484   0.9173   0.0152     C
C       0.5486   0.9797  0.05944     C
Zn     0.55141   0.2415  0.19667    Zn
O        0.554   0.6083  0.23382     O
C       0.5602   0.0113   0.4559     C
H       0.5637   0.2999   0.0644     H
C       0.5639   0.0447   0.8241     C
C       0.5646   0.5799   0.1829     C
O        0.565   0.3339  0.67359     O
C       0.5682   0.3555  0.30796     C
Zn     0.57739  0.31482  0.76098    Zn
C       0.5777   0.6083  0.75732     C
H       0.5801   0.8256   0.5332     H
C       0.5812   0.5592  0.70797     C
H       0.5819   0.8597   0.0246     H
H        0.586   0.7851     0.17     H
H       0.5891   0.9841   0.8311     H
H       0.5896    0.318   0.5653     H
O       0.5924   0.8022  0.85212     O
C       0.5962   0.7631  0.53969     C
C        0.597   0.9113   0.6878     C
H       0.6011   0.0189   0.4258     H
C       0.6013   0.0492   0.6215     C
O       0.6024   0.1221  0.23416     O
C       0.6026   0.9595  0.12399     C
C        0.607   0.0356   0.5134     C
C       0.6073   0.1107  0.79383     C
H       0.6104   0.4298    0.415     H
H       0.6145   0.7364   0.4001     H
O       0.6177   0.6645  0.89507     O
H       0.6291   0.0172   0.1437     H
H       0.6312   0.6061   0.7928     H
C       0.6348   0.2824  0.08482     C
H       0.6352   0.3281   0.3271     H
H       0.6367   0.5173   0.7028     H
C       0.6382   0.2833  0.65646     C
C       0.6411   0.5794    0.559     C
H       0.6412   0.4567   0.1658     H
C       0.6483   0.7449  0.88822     C
N       0.6492   0.9687   0.6563     N
H       0.6502   0.2815   0.9724     H
C       0.6511   0.2962  0.59301     C
H       0.6569   0.5168   0.5653     H
H       0.6589   0.8008   0.7381     H
C       0.6594   0.5156   0.1813     C
H       0.6603   0.0945   0.6212     H
N       0.6604   0.2634  0.14239     N
H       0.6674   0.9199   0.1249     H
H       0.6689   0.1028   0.7758     H
C       0.6729   0.8493   0.7138     C
H       0.6795   0.0598   0.5223     H
H       0.6817   0.9878   0.3028     H
H       0.6871    0.723   0.3088     H
C       0.6882   0.7473   0.3961     C
C       0.6895   0.1254  0.27545     C
H       0.6903   0.4674   0.8537     H
C       0.6941   0.7273  0.52696     C
O       0.6969  0.22654  0.68861     O
C       0.7152   0.6343   0.5367     C
H       0.7197   0.1085   0.9719     H
N       0.7242   0.2734  0.05954     N
C       0.7253   0.2906    0.996     C
N       0.7266   0.3681   0.8007     N
C       0.7285   0.7406    0.346     C
C       0.7334   0.0343   0.3002     C
O       0.7364   0.1978  0.29505     O
H       0.7429    0.288    0.534     H
C        0.744   0.2786  0.57445     C
C       0.7448   0.4398  0.83599     C
H       0.7467   0.3544   0.9912     H
H       0.7533   0.8544   0.5088     H
C       0.7552   0.9398  0.66401     C
C        0.756   0.7786  0.92555     C
H       0.7571    0.788    0.966     H
O       0.7636   0.6978  0.20495     O
C       0.7666   0.5343   0.1998     C
C       0.7715   0.2406    0.154     C
N       0.7734   0.8681   0.6993     N
C       0.7747   0.7906    0.504     C
N       0.7758   0.7734  0.44046     N
H       0.7803   0.6085   0.5281     H
C       0.7848   0.1343   0.9633     C
O       0.8031  0.72654  0.81139     O
C       0.8059   0.2273  0.97304     C
H       0.8097   0.9674   0.6463     H
C       0.8105   0.6254  0.22455     C
C       0.8118   0.2473   0.1039     C
H       0.8129    0.223   0.1912     H
H       0.8183   0.4878   0.1972     H
H       0.8205   0.5598   0.9777     H
C       0.8271   0.3493   0.7862     C
H       0.8311   0.6028   0.7242     H
H       0.8326   0.4199   0.3751     H
N       0.8396   0.7634  0.35761     N
H       0.8397   0.5945   0.8788     H
C       0.8406   0.0156   0.3187     C
H       0.8411   0.3008   0.7619     H
H       0.8431   0.0168   0.9347     H
C       0.8489   0.7962  0.90699     C
H       0.8498   0.7815   0.5276     H
N       0.8508   0.4687   0.8437     N
C       0.8517   0.2449  0.61178     C
H       0.8588   0.9567   0.3342     H
C       0.8589   0.0794    0.941     C
C       0.8618   0.7833  0.84354     C
H       0.8633   0.0173   0.7972     H
H       0.8648   0.8281   0.1729     H
C       0.8652   0.7824  0.41518     C
H       0.8688   0.1061   0.7072     H
H       0.8709   0.5172   0.3563     H
O       0.8823   0.1645  0.60493     O
H       0.8855   0.2364   0.0999     H
H       0.8896   0.9298    0.085     H
C       0.8927   0.6107  0.70617     C
C        0.893   0.5356   0.9866     C
C       0.8974   0.4595  0.37601     C
O       0.8976   0.6221  0.26584     O
C       0.8987   0.5492   0.8785     C
H       0.8989   0.5189   0.0742     H
C        0.903   0.4113   0.8122     C
C       0.9038   0.2631  0.96031     C
O       0.9076   0.3022  0.64788     O
H       0.9104    0.818   0.9347     H
H       0.9109   0.4841   0.6689     H
H        0.914   0.2851     0.33     H
H       0.9181   0.3597   0.4754     H
C       0.9188   0.0592  0.79203     C
H       0.9199   0.3256   0.9668     H
C       0.9223   0.1083  0.74268     C
Zn     0.92261  0.81482  0.73902    Zn
C       0.9318   0.8555  0.19204     C
O        0.935   0.8339  0.82641     O
C       0.9354   0.0799   0.3171     C
C       0.9361   0.5447   0.6759     C
H       0.9363   0.7999   0.4356     H
C       0.9398   0.5113   0.0441     C
O        0.946   0.1083  0.26618     O
Zn     0.94859   0.7415  0.30333    Zn
C       0.9514   0.4797  0.44056     C
C       0.9516   0.4173   0.4848     C
C        0.952   0.5246  0.94196     C
N       0.9523   0.6913  0.70645     N
H       0.9548   0.5774   0.8593     H
C       0.9561   0.1149  0.92768     C
H       0.9564   0.7667   0.0699     H
C       0.9676   0.9421  0.10309     C
C       0.9679   0.3274  0.32331     C
N       0.9744   0.4144  0.34242     N
C       0.9779   0.2078  0.93816     C
H       0.9781    0.414    0.809     H
H       0.9819   0.0075   0.0985     H
N        0.983   0.8377   0.2473     N
N       0.9887    0.918  0.16708     N
O       0.9991   0.8986  0.63601     O
H       0.9997   0.3919   0.5726     H
C       0.9999   0.5632   0.4566     C
