data_I
_chemical_name_common  '/home/zhangsd/repos/MofS-CGCNN/ML/data/WS24/clean_cifs/DULCIY'
_cell_length_a 10.06530
_cell_length_b 11.33730
_cell_length_c 11.72740
_cell_angle_alpha 117.62500
_cell_angle_beta  92.94900
_cell_angle_gamma 102.78000
_space_group_name_H-M_alt      'P 1'


loop_
_space_group_symop_operation_xyz
  'x, y, z' 

loop_
_atom_site_label
_atom_site_fract_x
_atom_site_fract_y
_atom_site_fract_z
_atom_site_type_symbol
C       0.0074   0.8392   0.0019     C
C       0.0135   0.3441   0.7759     C
C       0.0181   0.9536   0.5892     C
C       0.0265   0.6242   0.3319     C
O       0.0302   0.3979   0.2919     O
H        0.036    0.174   0.3331     H
C       0.0399    0.906   0.6866     C
N        0.048   0.0163   0.8212     N
H       0.0487   0.2635   0.7377     H
H       0.0546   0.3935    0.631     H
H       0.0582    0.793   0.9401     H
C       0.0614   0.9477    0.121     C
H       0.0697   0.6807   0.1926     H
C        0.085   0.5004   0.2835     C
H       0.0871    0.541    0.928     H
H       0.0948   0.7048   0.4008     H
C        0.112   0.0542   0.4605     C
C       0.1196   0.4586   0.8918     C
H       0.1248   0.8782   0.6798     H
H        0.127   0.4314   0.9585     H
C       0.1311   0.0082   0.5476     C
N       0.1341   0.1932    0.015     N
H       0.1549   0.9901   0.1571     H
C       0.1621    0.103   0.9051     C
H       0.1885   0.0915   0.4345     H
O       0.1949   0.5121   0.2349     O
H         0.22   0.0134   0.5793     H
H       0.2298   0.4254   0.4708     H
H       0.2506   0.5178   0.7924     H
H       0.2512   0.1007   0.8886     H
C       0.2583   0.4934   0.8611     C
Zn     0.26632  0.35012  0.17046    Zn
H       0.2923   0.4119   0.8278     H
C       0.2997    0.382   0.4453     C
H       0.3234   0.6889   0.0257     H
N       0.3312   0.3265   0.3217     N
H       0.3488   0.7523   0.5668     H
C       0.3653   0.6144   0.9799     C
H       0.3682   0.6696   0.4214     H
C       0.3852    0.364   0.5235     C
H       0.3857   0.3923   0.6118     H
H       0.3899   0.5827     0.04     H
H       0.3963   0.7957   0.3116     H
C       0.4151   0.7431    0.508     C
C       0.4357   0.2775   0.3296     C
C       0.4377    0.878   0.3883     C
O       0.4396   0.4177   0.1217     O
H       0.4557    0.999   0.3061     H
C       0.4615   0.8757   0.5043     C
O       0.4681   0.2076   0.0318     O
N        0.471   0.2963   0.4489     N
C       0.4745   0.0001   0.3851     C
H         0.48   0.2347   0.2601     H
C       0.4939   0.6686   0.9402     C
C       0.5061   0.3314   0.0598     C
H         0.52   0.7653   0.7399     H
C       0.5255   0.9999   0.6149     C
N        0.529   0.7037   0.5511     N
O       0.5319   0.7924   0.9682     O
C       0.5385   0.1243   0.4957     C
H       0.5443    0.001   0.6939     H
O       0.5604   0.5823   0.8783     O
C       0.5623    0.122   0.6117     C
C       0.5643   0.7225   0.6704     C
C       0.5849   0.2569    0.492     C
H       0.6037   0.2043   0.6884     H
H       0.6101   0.4173     0.96     H
H       0.6143   0.6077   0.3882     H
C       0.6148    0.636   0.4765     C
H       0.6318   0.3304   0.5786     H
C       0.6347   0.3856   0.0201     C
H       0.6512   0.2477   0.4332     H
N       0.6688   0.6735   0.6783     N
H       0.6766   0.3111   0.9743     H
C       0.7003    0.618   0.5547     C
H       0.7077   0.5881   0.1722     H
Zn     0.73368  0.64988  0.82954    Zn
C       0.7417   0.5066   0.1389     C
H       0.7488   0.8993   0.1114     H
H       0.7494   0.4822   0.2076     H
H       0.7702   0.5746   0.5292     H
H         0.78   0.9866   0.4207     H
O       0.8051   0.4879   0.7651     O
H       0.8115   0.9085   0.5655     H
C       0.8379    0.897   0.0949     C
H       0.8451   0.0099   0.8429     H
N       0.8659   0.8068    0.985     N
C       0.8689   0.9918   0.4524     C
H        0.873   0.5686   0.0415     H
H       0.8752   0.1218   0.3202     H
C       0.8804   0.5414   0.1082     C
C        0.888   0.9458   0.5395     C
H       0.9052   0.2952   0.5992     H
H       0.9129    0.459    0.072     H
C        0.915   0.4996   0.7165     C
H       0.9303   0.3193   0.8074     H
C       0.9386   0.0523    0.879     C
H       0.9418    0.207   0.0599     H
H       0.9454   0.6065    0.369     H
H       0.9513   0.7365   0.2623     H
N        0.952   0.9837   0.1788     N
C       0.9601    0.094   0.3134     C
H        0.964    0.826   0.6669     H
O       0.9698   0.6021   0.7081     O
C       0.9735   0.3758   0.6681     C
C       0.9819   0.0464   0.4108     C
C       0.9865   0.6559   0.2241     C
C       0.9926   0.1608   0.9981     C
