data_I
_chemical_name_common  '/home/zhangsd/repos/MofS-CGCNN/ML/data/WS24/clean_cifs/DUXLEP'
_cell_length_a  8.69560
_cell_length_b 14.12890
_cell_length_c 10.97830
_cell_angle_alpha 90.00000
_cell_angle_beta  105.04700
_cell_angle_gamma 90.00000
_space_group_name_H-M_alt      'P 1'


loop_
_space_group_symop_operation_xyz
  'x, y, z' 

loop_
_atom_site_label
_atom_site_fract_x
_atom_site_fract_y
_atom_site_fract_z
_atom_site_type_symbol
O        0.005   0.6342   0.7827     O
O       0.0189    0.518   0.1701     O
H       0.0199   0.0178   0.1603     H
H       0.0254   0.1828   0.1637     H
O       0.0259   0.2685   0.5676     O
C       0.0611   0.5526   0.8107     C
H       0.0822   0.4416   0.5983     H
H       0.1019   0.8711   0.0771     H
H       0.1117    0.711   0.0801     H
C       0.1143   0.0494   0.1972     C
C       0.1184   0.1495   0.1993     C
H       0.1237   0.3462    0.813     H
C       0.1634   0.8399   0.1478     C
H        0.167   0.0119    0.068     H
C       0.1683    0.744   0.1508     C
H       0.1716   0.1767   0.0663     H
C       0.1762   0.2636    0.614     C
C       0.1978   0.4418     0.61     C
H       0.2007    0.587   0.6357     H
C        0.202   0.0451    0.143     C
C        0.204   0.1452    0.143     C
O       0.2066   0.5219   0.4217     O
C       0.2271    0.444    0.477     C
O       0.2356   0.3681   0.0673     O
C       0.2377   0.3515   0.8186     C
C       0.2377   0.5341   0.8182     C
O       0.2408   0.1899   0.8917     O
N         0.25   0.1969     0.25     N
Zn        0.25  0.34127     0.25    Zn
Zn        0.25   0.5502     0.25    Zn
N         0.25   0.6948     0.25     N
C         0.25   0.8913     0.25     C
C         0.25   0.9993     0.25     C
O       0.2592   0.1899   0.6083     O
C       0.2623   0.3515   0.6814     C
C       0.2623   0.5341   0.6818     C
O       0.2644   0.3681   0.4327     O
C       0.2729    0.444    0.023     C
O       0.2934   0.5219   0.0783     O
C        0.296   0.1452    0.357     C
C        0.298   0.0451    0.357     C
H       0.2993    0.587   0.8643     H
C       0.3022   0.4418     0.89     C
C       0.3238   0.2636    0.886     C
H       0.3284   0.1767   0.4337     H
C       0.3317    0.744   0.3492     C
H        0.333   0.0119    0.432     H
C       0.3366   0.8399   0.3522     C
H       0.3763   0.3462    0.687     H
C       0.3816   0.1495   0.3007     C
C       0.3857   0.0494   0.3028     C
H       0.3883    0.711   0.4199     H
H       0.3981   0.8711   0.4229     H
H       0.4178   0.4416   0.9017     H
C       0.4389   0.5526   0.6893     C
O       0.4741   0.2685   0.9324     O
H       0.4746   0.1828   0.3363     H
H       0.4801   0.0178   0.3397     H
O       0.4811    0.518   0.3299     O
O        0.495   0.6342   0.7173     O
O        0.505   0.3658   0.2827     O
O       0.5189    0.482   0.6701     O
H       0.5199   0.9822   0.6603     H
H       0.5254   0.8172   0.6637     H
O       0.5259   0.7315   0.0676     O
C       0.5611   0.4474   0.3107     C
H       0.5822   0.5584   0.0983     H
H       0.6019   0.1289   0.5771     H
H       0.6117    0.289   0.5801     H
C       0.6143   0.9506   0.6972     C
C       0.6184   0.8505   0.6993     C
H       0.6237   0.6538    0.313     H
C       0.6634   0.1601   0.6478     C
H        0.667   0.9881    0.568     H
C       0.6683    0.256   0.6508     C
H       0.6716   0.8233   0.5663     H
C       0.6762   0.7364    0.114     C
C       0.6978   0.5582     0.11     C
H       0.7007    0.413   0.1357     H
C        0.702   0.9549    0.643     C
C        0.704   0.8548    0.643     C
O       0.7066   0.4781   0.9217     O
C       0.7271    0.556    0.977     C
O       0.7356   0.6319   0.5673     O
C       0.7377   0.4659   0.3182     C
C       0.7377   0.6485   0.3186     C
O       0.7408   0.8101   0.3917     O
C         0.75   0.0007     0.75     C
C         0.75   0.1087     0.75     C
N         0.75   0.3052     0.75     N
Zn        0.75   0.4498     0.75    Zn
Zn        0.75  0.65873     0.75    Zn
N         0.75   0.8031     0.75     N
O       0.7592   0.8101   0.1083     O
C       0.7623   0.4659   0.1818     C
C       0.7623   0.6485   0.1814     C
O       0.7644   0.6319   0.9327     O
C       0.7729    0.556    0.523     C
O       0.7934   0.4781   0.5783     O
C        0.796   0.8548    0.857     C
C        0.798   0.9549    0.857     C
H       0.7993    0.413   0.3643     H
C       0.8022   0.5582     0.39     C
C       0.8238   0.7364    0.386     C
H       0.8284   0.8233   0.9337     H
C       0.8317    0.256   0.8492     C
H        0.833   0.9881    0.932     H
C       0.8366   0.1601   0.8522     C
H       0.8763   0.6538    0.187     H
C       0.8816   0.8505   0.8007     C
C       0.8857   0.9506   0.8028     C
H       0.8883    0.289   0.9199     H
H       0.8981   0.1289   0.9229     H
H       0.9178   0.5584   0.4017     H
C       0.9389   0.4474   0.1893     C
O       0.9741   0.7315   0.4324     O
H       0.9746   0.8172   0.8363     H
H       0.9801   0.9822   0.8397     H
O       0.9811    0.482   0.8299     O
O        0.995   0.3658   0.2173     O
