data_I
_chemical_name_common  '/home/zhangsd/repos/MofS-CGCNN/ML/data/WS24/clean_cifs/EDOVIE'
_cell_length_a 18.03600
_cell_length_b 18.03600
_cell_length_c 21.36200
_cell_angle_alpha 90.00000
_cell_angle_beta  90.00000
_cell_angle_gamma 120.00000
_space_group_name_H-M_alt      'P 1'


loop_
_space_group_symop_operation_xyz
  'x, y, z' 

loop_
_atom_site_label
_atom_site_fract_x
_atom_site_fract_y
_atom_site_fract_z
_atom_site_type_symbol
Dy         0.0  0.18676  0.83333    Dy
Zn         0.0  0.35222  0.33333    Zn
O       0.0076   0.3991   0.0052     O
C       0.0114   0.4111  0.53077     C
C       0.0165   0.4121  0.46507     C
H       0.0236   0.2379   0.9451     H
O      0.02799   0.2785  0.91989     O
N       0.0338   0.3784   0.2369     N
C       0.0418   0.8318  0.58237     C
C       0.0439   0.2126  0.34743     C
C       0.0474    0.834   0.0596     C
H       0.0501    0.458  0.55427     H
C        0.052   0.3913   0.1077     C
H       0.0549   0.1099  0.36903     H
H        0.055   0.9451   0.0357     H
C       0.0598   0.3957   0.0366     C
Dy      0.0653  0.39876   0.7563    Dy
O      0.06535   0.9028  0.55542     O
O       0.0691   0.5322  0.75027     O
H       0.0699   0.7358   0.0715     H
O      0.07366  0.43186  0.86685     O
O        0.079   0.9199  0.41883     O
O       0.0801   0.1591  0.75217     O
N       0.0825   0.3001  0.35073     N
C        0.083   0.4887  0.43017     C
C       0.0838   0.1694  0.36973     C
C       0.0856   0.9162   0.0364     C
O       0.0871   0.7967  0.59147     O
N       0.0911   0.4759  0.36757     N
C       0.0936   0.3689    0.208     C
C       0.0943   0.7926   0.0591     C
O       0.0972  0.16255  0.88875     O
C       0.1057   0.3753   0.1433     C
H       0.1099   0.0549   0.9643     H
H       0.1171    0.488   0.8749     H
O        0.119   0.3261  0.81477     O
H       0.1227   0.5768  0.49957     H
O       0.1259   0.3954   0.0154     O
H       0.1294   0.3572   0.2322     H
C       0.1303   0.5691  0.45747     C
O       0.1322   0.3584  0.67207     O
O       0.1454   0.6952  0.63537     O
C       0.1485   0.5432  0.33457     C
H        0.149    0.369   0.1249     H
H       0.1517   0.3043  0.82107     H
H       0.1526   0.8483  0.48773     H
H       0.1553   0.5344  0.29257     H
O       0.1591   0.0801  0.58117     O
C       0.1618   0.3405  0.37323     C
O      0.16255   0.0972  0.44458     O
C        0.166   0.2134  0.39293     C
C       0.1682     0.21   0.9157     C
C       0.1687   0.9561   0.0141     C
C       0.1694   0.0838   0.9636     C
Dy     0.16987   0.3981  0.91268    Dy
C       0.1787   0.8382   0.0399     C
Dy     0.18676     -0.0      0.5    Dy
C       0.1873    0.636  0.42247     C
H       0.1889   0.3998  0.37633     H
C       0.1983   0.6246  0.35797     C
O       0.2033   0.2904   0.9248     O
O       0.2071    0.881  0.48143     O
C       0.2074   0.3017  0.39243     C
C         0.21   0.1682  0.41763     C
H       0.2109   0.8111    0.043     H
C       0.2126   0.0439   0.9859     C
C       0.2134    0.166   0.9404     C
O       0.2135    0.504   0.7545     O
H       0.2143   0.9764  0.61177     H
O       0.2145    0.729  0.50777     O
N       0.2176   0.9175   0.0174     N
H         0.22    0.851  0.79157     H
O       0.2228   0.5499   0.9455     O
O       0.2262   0.8678  0.33873     O
H       0.2278   0.8706  0.89887     H
Dy     0.22823  0.83013  0.57935    Dy
C       0.2346   0.7253  0.45417     C
H       0.2371   0.6696  0.33297     H
H       0.2379   0.0236  0.38823     H
O      0.25051  0.97201  0.58656     O
H       0.2642   0.3341  0.40483     H
O       0.2695   0.8741  0.68207     O
C       0.2696   0.8943  0.80997     C
O        0.271   0.4855   0.8411     O
C       0.2747   0.5093   0.7875     C
C       0.2753   0.9064  0.87467     C
O       0.2785  0.02799  0.41344     O
O       0.2904   0.2033  0.40853     O
O       0.2905   0.7865  0.42117     O
N       0.3001   0.0825   0.9826     N
C       0.3017   0.2074   0.9409     C
H       0.3043   0.1517  0.51227     H
O       0.3048   0.4502   0.9687     O
O       0.3261    0.119  0.51857     O
O       0.3271   0.7772  0.61217     O
H       0.3304   0.5675   0.6663     H
Dy     0.33346   0.9347  0.42296    Dy
H       0.3341   0.2642   0.9285     H
C       0.3359   0.9402  0.70327     C
C       0.3393    0.948  0.77437     C
C       0.3405   0.1618   0.9601     C
N       0.3446   0.9662  0.90357     N
Zn     0.35222     -0.0      0.0    Zn
H       0.3572   0.1294  0.10113     H
O       0.3582  0.92634  0.53352     O
O       0.3584   0.1322  0.66127     O
C        0.364   0.5513   0.7558     C
C       0.3689   0.0936  0.12533     C
H        0.369    0.149  0.20843     H
H       0.3709   0.8829  0.54157     H
C       0.3753   0.1057  0.19003     C
C       0.3754   0.5737   0.6913     C
N       0.3784   0.0338  0.09643     N
H       0.3791   0.8447  0.95923     H
N       0.3848   0.9089  0.03423     N
C       0.3913    0.052  0.22563     C
O       0.3915   0.9924  0.67187     O
C       0.3947   0.8515  0.00123     C
O       0.3954   0.1259  0.31793     O
C       0.3956   0.9835  0.13173     C
C       0.3957   0.0598  0.29673     C
Dy      0.3981  0.16987  0.42065    Dy
Dy     0.39876   0.0653  0.57704    Dy
O       0.3991   0.0076  0.32813     O
C       0.3997   0.9886  0.19743     C
H       0.3998   0.1889    0.957     H
C       0.4057    0.917  0.09683     C
H       0.4079   0.9499  0.22093     H
C       0.4111   0.0114  0.80257     C
C       0.4121   0.0165  0.86827     C
H       0.4232   0.5459   0.8329     H
C       0.4263   0.8017  0.02463     C
C       0.4309   0.5612   0.7908     C
O      0.43186  0.07366  0.46648     O
H       0.4325   0.7629  0.99963     H
C       0.4388   0.8697  0.12413     C
C       0.4487   0.8127  0.08913     C
O       0.4501   0.6729  0.27883     O
O       0.4502   0.3048  0.36463     O
H       0.4541   0.8773  0.16623     H
C       0.4568   0.6053   0.6679     C
H        0.458   0.0501  0.77907     H
O       0.4631   0.9309  0.41693     O
H       0.4656   0.6209   0.6259     H
O       0.4678   0.5369   0.0836     O
N       0.4759   0.0911  0.96577     N
O       0.4855    0.271  0.49223     O
H        0.488   0.1171  0.45843     H
C       0.4887    0.083  0.90317     C
C       0.4907   0.7654  0.12083     C
O        0.496   0.7095  0.08783     O
O        0.504   0.2135  0.57883     O
C       0.5093   0.2747  0.54583     C
C       0.5113   0.5943   0.7635     C
H        0.512   0.6291  0.20823     H
O       0.5145   0.7855  0.17443     O
N       0.5241   0.6152   0.7009     N
O       0.5322   0.0691  0.58307     O
H       0.5344   0.1553  0.04077     H
O       0.5369   0.4678  0.24973     O
H        0.542   0.5921   0.8876     H
C       0.5432   0.1485  0.99877     C
H       0.5459   0.4232  0.50043     H
O       0.5498   0.8546  0.30203     O
O       0.5499   0.2228  0.38783     O
C       0.5513    0.364  0.57753     C
C       0.5612   0.4309  0.54253     C
H       0.5675   0.3304  0.66703     H
O      0.56814   0.6418  0.20018     O
C       0.5691   0.1303  0.87587     C
C       0.5737   0.3754  0.64203     C
H       0.5768   0.1227  0.83377     H
C       0.5879   0.6044   0.7984     C
C       0.5889   0.6003   0.8641     C
H       0.5921    0.542  0.44573     H
C       0.5943   0.5113  0.56983     C
H       0.6002   0.7891  0.70967     H
C       0.6003   0.5889  0.46923     C
O       0.6009   0.6085  0.33853     O
Dy     0.60124  0.66654  0.08963    Dy
Dy      0.6019  0.77177  0.24601    Dy
C       0.6043   0.6641  0.36993     C
C       0.6044   0.5879  0.53493     C
O       0.6046   0.7305  0.34873     O
C       0.6053   0.4568  0.66543     C
O       0.6085   0.6009   0.9948     O
C       0.6087   0.6607  0.44103     C
N       0.6152   0.5241  0.63243     N
H       0.6209   0.4656  0.70743     H
N       0.6216   0.6554  0.57023     N
C       0.6246   0.1983  0.97537     C
C       0.6247   0.7304  0.47663     C
H       0.6291    0.512   0.1251     H
H        0.631     0.78  0.45823     H
C       0.6311   0.7247  0.54133     C
C        0.636   0.1873  0.91087     C
O       0.6416   0.7738   0.0054     O
O       0.6418  0.56814  0.13315     O
H       0.6428   0.7722  0.56553     H
Zn     0.64778  0.64778  0.66667    Zn
N       0.6554   0.6216   0.7631     N
C       0.6595   0.8213  0.70657     C
C       0.6607   0.6087   0.8923     C
C       0.6641   0.6043   0.9634     C
H       0.6659   0.9301  0.73817     H
Dy     0.66654  0.60124   0.2437    Dy
H       0.6696   0.2371  0.00037     H
O       0.6729   0.4501   0.0545     O
O       0.6739   0.7929   0.1481     O
O       0.6952   0.1454  0.69797     O
H       0.6957   0.8474   0.1544     H
C       0.6983   0.9057  0.72577     C
N       0.6999   0.7824  0.68407     N
O       0.7095    0.496   0.2455     O
O       0.7096   0.9129  0.25813     O
O       0.7215  0.74949  0.25322     O
C       0.7247   0.6311    0.792     C
C       0.7253   0.2346  0.87917     C
O        0.729   0.2145  0.82557     O
C       0.7304   0.6247   0.8567     C
O       0.7305   0.6046   0.9846     O
H       0.7358   0.0699  0.26183     H
O      0.74949   0.7215  0.08011     O
H       0.7621   0.7857  0.27843     H
H       0.7629   0.4325   0.3337     H
C       0.7654   0.4907   0.2125     C
Dy     0.77177   0.6019  0.08732    Dy
H       0.7722   0.6428   0.7678     H
O       0.7738   0.6416  0.32793     O
O       0.7772   0.3271  0.72117     O
H         0.78    0.631   0.8751     H
N       0.7824   0.6999  0.64927     N
O       0.7855   0.5145   0.1589     O
H       0.7857   0.7621   0.0549     H
O       0.7865   0.2905  0.91217     O
C       0.7866   0.9526  0.72627     C
C       0.7874   0.8313  0.68077     C
H       0.7891   0.6002  0.62367     H
C         0.79   0.9582  0.24903     C
C       0.7926   0.0943  0.27423     C
O       0.7929   0.6739  0.18523     O
O       0.7967   0.0871  0.74187     O
C       0.8017   0.4263   0.3087     C
H       0.8111   0.2109  0.29033     H
C       0.8127   0.4487   0.2442     C
Dy     0.81324  0.81324  0.16667    Dy
C       0.8213   0.6595  0.62677     C
Dy     0.83013  0.22823  0.75399    Dy
C       0.8306   0.9144  0.70307     C
C       0.8313   0.7874  0.65257     C
C       0.8318   0.0418  0.75097     C
C        0.834   0.0474  0.27373     C
O      0.83745  0.93465  0.22208     O
C       0.8382   0.1787  0.29343     C
O       0.8409    0.921   0.0855     O
H       0.8447   0.3791   0.3741     H
H       0.8474   0.6957  0.17893     H
H       0.8483   0.1526   0.8456     H
H        0.851     0.22  0.54177     H
C       0.8515   0.3947   0.3321     C
O       0.8546   0.5498   0.0313     O
O       0.8678   0.2262   0.9946     O
C       0.8697   0.4388   0.2092     C
H       0.8706   0.2278  0.43447     H
O       0.8741   0.2695  0.65127     O
H       0.8773   0.4541   0.1671     H
O        0.881   0.2071   0.8519     O
H       0.8829   0.3709  0.79177     H
H       0.8901    0.945  0.70237     H
C       0.8943   0.2696  0.52337     C
O       0.9028  0.06535  0.77792     O
C       0.9057   0.6983  0.60757     C
C       0.9064   0.2753  0.45867     C
N       0.9089   0.3848   0.2991     N
O       0.9129   0.7096   0.0752     O
C       0.9144   0.8306  0.63027     C
C       0.9162   0.0856  0.29693     C
C        0.917   0.4057   0.2365     C
N       0.9175   0.2176  0.31593     N
O       0.9199    0.079   0.9145     O
O        0.921   0.8409  0.24783     O
O      0.92634   0.3582  0.79982     O
H       0.9301   0.6659  0.59517     H
O       0.9309   0.4631   0.9164     O
O      0.93465  0.83745  0.11125     O
Dy      0.9347  0.33346  0.91037    Dy
C       0.9402   0.3359  0.63007     C
H        0.945   0.8901  0.63097     H
H       0.9451    0.055  0.29763     H
C        0.948   0.3393  0.55897     C
H       0.9499   0.4079   0.1124     H
C       0.9526   0.7866  0.60707     C
C       0.9561   0.1687  0.31923     C
C       0.9582     0.79   0.0843     C
N       0.9662   0.3446  0.42977     N
O      0.97201  0.25051  0.74678     O
H       0.9764   0.2143  0.72157     H
C       0.9835   0.3956   0.2016     C
C       0.9886   0.3997   0.1359     C
O       0.9924   0.3915  0.66147     O
