data_I
_chemical_name_common  '/home/zhangsd/repos/MofS-CGCNN/ML/data/WS24/clean_cifs/EDOVEA'
_cell_length_a 17.98690
_cell_length_b 17.98690
_cell_length_c 21.34820
_cell_angle_alpha 90.00000
_cell_angle_beta  90.00000
_cell_angle_gamma 120.00000
_space_group_name_H-M_alt      'P 1'


loop_
_space_group_symop_operation_xyz
  'x, y, z' 

loop_
_atom_site_label
_atom_site_fract_x
_atom_site_fract_y
_atom_site_fract_z
_atom_site_type_symbol
Zn         0.0  0.64894  0.33333    Zn
O       0.0087   0.6055  0.65997     O
C       0.0099   0.5985   0.1375     C
C       0.0166   0.6051   0.2019     C
H       0.0299   0.7772   0.7118     H
O       0.0316   0.7488  0.74649     O
N       0.0344   0.6569  0.42927     N
C       0.0416   0.2106  0.08303     C
C       0.0427   0.8302   0.3194     C
H        0.047   0.5874   0.1142     H
C       0.0486   0.2139  0.60793     C
C       0.0533    0.662  0.55857     C
H       0.0541   0.9441   0.2975     H
H       0.0559     0.11  0.63083     H
C       0.0634   0.6639  0.62827     C
Gd     0.06527  0.66384  0.91141    Gd
O       0.0662   0.1634  0.10973     O
O       0.0711   0.5325  0.91677     O
H       0.0742   0.3378  0.59353     H
O       0.0746   0.6404  0.80017     O
O       0.0783   0.1584  0.24662     O
O       0.0801   0.9217  0.91329     O
H       0.0807   0.6008  0.78937     H
C       0.0814   0.5939   0.2368     C
N       0.0821   0.7835   0.3157     N
C       0.0831   0.9134   0.2972     C
O       0.0864   0.2902  0.07493     O
C       0.0866   0.1697  0.63053     C
N       0.0891   0.6137   0.2992     N
C       0.0944   0.7278  0.45847     C
O       0.0972   0.9338   0.7764     O
C       0.0978   0.3049  0.60693     C
C       0.1068   0.7317  0.52307     C
H         0.11   0.0559   0.7025     H
O       0.1219   0.7927  0.85185     O
H        0.129   0.7763  0.43467     H
H       0.1295     0.55   0.1677     H
O        0.131   0.7288  0.65007     O
O       0.1326   0.7723  0.99467     O
C       0.1339   0.5632   0.2102     C
O       0.1401   0.4529   0.0347     O
C       0.1475   0.6064    0.333     C
H       0.1508   0.7808  0.54177     H
H       0.1546    0.623   0.3749     H
H       0.1554   0.8407  0.87687     H
O       0.1584   0.0783  0.08671     O
H       0.1593   0.3147   0.2102     H
C       0.1611   0.8185   0.2931     C
O       0.1634   0.0662   0.2236     O
C       0.1653   0.9514   0.2746     C
C        0.169   0.9584   0.7497     C
C       0.1697   0.0866   0.7028     C
C       0.1698   0.2125  0.65273     C
Gd     0.17275  0.77109  0.75445    Gd
C       0.1815   0.3426  0.62643     C
H       0.1866   0.7847   0.2903     H
Gd     0.18808  0.18808  0.16667    Gd
C       0.1889   0.5531   0.2458     C
C       0.1977   0.5756   0.3088     C
O       0.2038   0.9136   0.7416     O
C       0.2071   0.9022   0.2736     C
O       0.2073   0.3292  0.18518     O
C       0.2106   0.0416   0.2503     C
C       0.2125   0.1698   0.6806     C
C       0.2139   0.0486   0.7254     C
O       0.2149   0.7064  0.91577     O
H       0.2153   0.4019  0.62363     H
N       0.2165   0.2986  0.64903     N
H       0.2192     0.37   0.8751     H
O       0.2222   0.4935   0.1601     O
H       0.2228   0.2527  0.04513     H
H       0.2237   0.3527    0.768     H
O       0.2255   0.6699  0.72227     O
O       0.2277   0.3603    0.328     O
Gd     0.22891  0.40166  0.08778    Gd
H       0.2367   0.5699   0.3341     H
C       0.2421   0.5171    0.217     C
O       0.2512   0.2828  0.07982     O
H       0.2527   0.2228   0.2882     H
H       0.2636   0.9258   0.2602     H
C       0.2683   0.3751   0.8564     C
O       0.2712   0.4022   0.9834     O
O       0.2713   0.7778  0.82677     O
C       0.2722   0.3666   0.7918     C
C        0.275   0.7579  0.88367     C
O       0.2828   0.2512  0.25351     O
O       0.2902   0.0864   0.2584     O
O       0.2936   0.5085   0.2491     O
N       0.2986   0.2165   0.6843     N
C       0.3049   0.0978   0.7264     C
O       0.3128   0.8599  0.70137     O
H       0.3147   0.1593  0.12313     H
O       0.3292   0.2073  0.14815     O
O       0.3301   0.5556   0.0556     O
H       0.3332   0.7633  0.00077     H
C       0.3361   0.3995   0.9616     C
Gd     0.33616  0.40143  0.24474    Gd
H       0.3378   0.0742   0.7398     H
C        0.338   0.3913   0.8919     C
C       0.3426   0.1815   0.7069     C
N       0.3431   0.3775   0.7626     N
Zn     0.35106  0.35106  0.66667    Zn
H       0.3527   0.2237  0.56533     H
O       0.3596   0.4342   0.1335     O
O       0.3603   0.2277  0.00533     O
C       0.3642   0.8111  0.91247     C
C       0.3666   0.2722  0.54153     C
H         0.37   0.2192  0.45823     H
C       0.3751   0.2683  0.47693     C
H        0.377   0.5316  0.70823     H
N       0.3775   0.3431  0.57073     N
C       0.3779   0.8023  0.97547     C
N       0.3863   0.4754  0.63253     N
C       0.3913    0.338  0.44143     C
C       0.3936   0.5411  0.66633     C
O       0.3945   0.4032   0.9933     O
C       0.3949   0.4115  0.53523     C
H       0.3992   0.4799   0.1227     H
C       0.3995   0.3361  0.37173     C
Gd     0.40143  0.33616  0.08859    Gd
C       0.4015   0.4114  0.47083     C
Gd     0.40166  0.22891  0.24555    Gd
H       0.4019   0.2153   0.7097     H
O       0.4022   0.2712  0.34993     O
O       0.4032   0.3945  0.34003     O
C       0.4061   0.4875  0.57013     C
C       0.4114   0.4015   0.8625     C
C       0.4115   0.3949   0.7981     C
H       0.4126   0.4596  0.44753     H
H       0.4205   0.8705  0.83437     H
C       0.4244   0.6221  0.64213     C
C       0.4293   0.8661  0.87687     C
H       0.4301   0.6668  0.66743     H
O       0.4342   0.3596  0.19983     O
C       0.4368   0.5707  0.54353     C
O       0.4444   0.7745  0.38893     O
C       0.4469   0.6358  0.57913     C
H         0.45   0.5795  0.50103     H
O       0.4529   0.1401  0.29863     O
C       0.4589   0.8525  0.99967     C
H       0.4596   0.4126   0.8858     H
O       0.4614   0.9289  0.58343     O
O       0.4675   0.5386   0.2501     O
H       0.4684   0.8454  0.04157     H
N       0.4754   0.3863   0.7008     N
H       0.4799   0.3992  0.21063     H
C       0.4829    0.725  0.55033     C
C       0.4875   0.4061   0.7632     C
O       0.4915   0.7851  0.58243     O
O       0.4935   0.2222  0.17323     O
O       0.5065   0.7287  0.49343     O
O       0.5085   0.2936  0.08423     O
C       0.5125   0.9186  0.90347     C
C       0.5171   0.2421  0.11633     C
H       0.5201   0.9193  0.45603     H
N       0.5246   0.9109  0.96587     N
H       0.5316    0.377   0.6251     H
O       0.5325   0.0711  0.41657     O
O       0.5386   0.4675  0.08323     O
H       0.5404    0.953  0.78087     H
C       0.5411   0.3936    0.667     C
O       0.5471   0.6872  0.36803     O
H         0.55   0.1295  0.16563     H
C       0.5531   0.1889  0.08753     C
O       0.5556   0.3301  0.27773     O
C       0.5632   0.1339  0.12313     C
O       0.5658   0.9254  0.46683     O
H       0.5699   0.2367  0.99923     H
C       0.5707   0.4368   0.7898     C
C       0.5756   0.1977  0.02453     C
H       0.5795     0.45   0.8323     H
H       0.5874    0.047  0.21913     H
C       0.5885   0.9834  0.86857     C
C       0.5886   0.9901  0.80417     C
C       0.5939   0.0814  0.09653     C
O       0.5968   0.9913  0.32663     O
O       0.5978    0.869  0.31673     O
H       0.5981   0.8134  0.95697     H
Gd     0.59834  0.82725  0.42111    Gd
C       0.5985   0.0099  0.19583     C
Gd     0.59857  0.93473  0.57807    Gd
C       0.6005   0.9366  0.29493     C
H       0.6008   0.0807  0.54397     H
C       0.6051   0.0166  0.13143     C
O       0.6055   0.0087  0.67337     O
C       0.6064   0.1475  0.00033     C
C       0.6087   0.9467  0.22523     C
N       0.6137   0.0891  0.03413     N
C       0.6221   0.4244   0.6912     C
N       0.6225   0.9656  0.09593     N
H        0.623   0.1546  0.95843     H
C       0.6249   0.8932  0.18973     C
H         0.63   0.8492  0.20843     H
C       0.6334   0.9056  0.12513     C
C       0.6358   0.4469   0.7542     C
O       0.6397   0.8674  0.66133     O
O       0.6404   0.0746  0.53317     O
H       0.6473    0.871  0.10133     H
Zn     0.64894      1.0      0.0    Zn
N       0.6569   0.0344  0.90407     N
C       0.6574   0.8389  0.95977     C
C        0.662   0.0533  0.77477     C
H       0.6622   0.7364  0.92687     H
Gd     0.66384  0.06527  0.42193    Gd
C       0.6639   0.0634  0.70507     C
H       0.6668   0.4301   0.6659     H
O       0.6699   0.2255  0.61107     O
O       0.6708   0.8781  0.51851     O
H       0.6853   0.8446  0.54353     H
O       0.6872   0.5471   0.9653     O
C       0.6951   0.7929  0.94027     C
N       0.7014   0.9179  0.98237     N
O       0.7064   0.2149  0.41757     O
O       0.7098   0.7962  0.40827     O
O       0.7172   0.9684  0.41316     O
C        0.725   0.4829    0.783     C
C       0.7278   0.0944  0.87487     C
O       0.7287   0.5065   0.8399     O
O       0.7288    0.131  0.68327     O
C       0.7317   0.1068  0.81027     C
H       0.7364   0.6622  0.40647     H
H       0.7473   0.9701  0.37847     H
O       0.7488   0.0316  0.58684     O
C       0.7579    0.275  0.44967     C
H       0.7633   0.3332  0.33257     H
Gd     0.77109  0.17275  0.57889    Gd
O       0.7723   0.1326  0.33867     O
O       0.7745   0.4444   0.9444     O
H       0.7763    0.129  0.89867     H
H       0.7772   0.0299  0.62153     H
O       0.7778   0.2713  0.50657     O
H       0.7808   0.1508  0.79157     H
N       0.7835   0.0821  0.01763     N
H       0.7847   0.1866  0.04303     H
O       0.7851   0.4915   0.7509     O
C       0.7861   0.8347  0.94127     C
C       0.7875   0.9573  0.98607     C
C       0.7894    0.831  0.41637     C
O       0.7927   0.1219  0.48149     O
C       0.7929   0.6951  0.39307     C
O       0.7962   0.7098  0.92507     O
C       0.8023   0.3779  0.35787     C
C       0.8111   0.3642  0.42087     C
Gd     0.81192      1.0      0.5    Gd
H       0.8134   0.5981  0.37637     H
C       0.8185   0.1611  0.04023     C
Gd     0.82725  0.59834  0.91222    Gd
C       0.8302   0.0427  0.01393     C
C       0.8303   0.9169  0.96387     C
C        0.831   0.7894  0.91697     C
C       0.8347   0.7861  0.39207     C
O       0.8366   0.9028  0.44307     O
C       0.8389   0.6574  0.37357     C
H       0.8407   0.1554  0.45647     H
O       0.8416   0.9199  0.57995     O
H       0.8446   0.6853   0.7898     H
H       0.8454   0.4684  0.29177     H
H       0.8492     0.63   0.1249     H
C       0.8525   0.4589  0.33367     C
O       0.8599   0.3128  0.63197     O
C       0.8661   0.4293  0.45647     C
O       0.8674   0.6397    0.672     O
O        0.869   0.5978   0.0166     O
H       0.8705   0.4205  0.49897     H
H        0.871   0.6473    0.232     H
O       0.8781   0.6708  0.81482     O
H         0.89   0.9459  0.96417     H
C       0.8932   0.6249   0.1436     C
C       0.9022   0.2071  0.05973     C
O       0.9028   0.8366  0.89027     O
C       0.9056   0.6334   0.2082     C
N       0.9109   0.5246  0.36747     N
C       0.9134   0.0831  0.03613     C
O       0.9136   0.2038  0.59173     O
C       0.9169   0.8303  0.36947     C
N       0.9179   0.7014  0.35097     N
C       0.9186   0.5125  0.42987     C
H       0.9193   0.5201   0.8773     H
O       0.9199   0.8416  0.75338     O
O       0.9217   0.0801  0.42005     O
O       0.9254   0.5658   0.8665     O
H       0.9258   0.2636  0.07313     H
O       0.9289   0.4614   0.7499     O
O       0.9338   0.0972  0.55693     O
Gd     0.93473  0.59857  0.75526    Gd
C       0.9366   0.6005   0.0384     C
H       0.9441   0.0541  0.03583     H
H       0.9459     0.89  0.36917     H
C       0.9467   0.6087   0.1081     C
C       0.9514   0.1653  0.05873     C
H        0.953   0.5404  0.55247     H
C       0.9573   0.7875  0.34727     C
C       0.9584    0.169  0.58363     C
N       0.9656   0.6225   0.2374     N
O       0.9684   0.7172  0.92018     O
H       0.9701   0.7473  0.95487     H
C       0.9834   0.5885  0.46477     C
C       0.9901   0.5886  0.52917     C
O       0.9913   0.5968   0.0067     O
Gd         1.0  0.81192  0.83333    Gd
