data_I
_chemical_name_common  '/home/zhangsd/repos/MofS-CGCNN/ML/data/WS24/clean_cifs/EJIQIZ'
_cell_length_a 13.05000
_cell_length_b 13.05000
_cell_length_c 16.29920
_cell_angle_alpha 90.00000
_cell_angle_beta  90.00000
_cell_angle_gamma 120.00000
_space_group_name_H-M_alt      'P 1'


loop_
_space_group_symop_operation_xyz
  'x, y, z' 

loop_
_atom_site_label
_atom_site_fract_x
_atom_site_fract_y
_atom_site_fract_z
_atom_site_type_symbol
H       0.0031   0.4321   0.9598     H
N       0.0268   0.6108   0.1565     N
H       0.0278   0.6138   0.3151     H
H       0.0472   0.4031   0.2126     H
C       0.0524   0.6238   0.0757     C
H       0.0689   0.3901   0.3502     H
H       0.0801   0.2894   0.4679     H
C       0.0921   0.6818   0.2939     C
H       0.1028   0.3166   0.6074     H
C       0.1085   0.6965   0.2076     C
O         0.11   0.6322   0.9063     O
H       0.1121   0.5775   0.4378     H
C       0.1151   0.4052   0.2323     C
H       0.1234   0.5578   0.5757     H
C       0.1283   0.3982   0.3148     C
H       0.1292   0.4307   0.0702     H
C       0.1349   0.6427   0.4718     C
O       0.1365   0.6054   0.7212     O
C       0.1397   0.6305   0.5541     C
C       0.1529    0.345   0.4895     C
Zn     0.15379  0.52906   0.8229    Zn
C       0.1577   0.7164   0.0409     C
C       0.1639   0.7522   0.4373     C
C       0.1667   0.3612   0.5729     C
C       0.1682   0.7242   0.6063     C
C       0.1726   0.7694    0.347     C
C       0.1789   0.7094    0.697     C
C       0.1827   0.7138   0.9493     C
C       0.1921   0.8471   0.4895     C
C       0.1945   0.4294   0.0918     C
C       0.1945   0.8333   0.5729     C
O       0.1968   0.4296   0.7404     O
O       0.2002   0.4805   0.9266     O
C       0.2021   0.4153   0.1765     C
H       0.2093   0.9199   0.4679     H
C       0.2132   0.7979   0.1765     C
H       0.2138   0.8972   0.6074     H
C       0.2306   0.4032    0.347     C
O       0.2328   0.8032   0.7404     O
C       0.2349   0.8055   0.0918     C
C       0.2478   0.4117   0.4373     C
C       0.2699   0.8717   0.3148     C
C       0.2758    0.444   0.6063     C
O       0.2803   0.7998   0.9266     O
C       0.2836   0.4413   0.0409     C
C       0.2862   0.4689   0.9493     C
H       0.2894   0.2093   0.5321     H
C       0.2901   0.8849   0.2323     C
C       0.2906   0.4695    0.697     C
H       0.3015   0.8708   0.0702     H
C       0.3035    0.412   0.2076     C
H       0.3166   0.2138   0.3926     H
C       0.3182   0.4103   0.2939     C
H       0.3212   0.9311   0.3502     H
O      0.33333  0.66667   0.8196     O
C        0.345   0.1921   0.5105     C
H       0.3559   0.9528   0.2126     H
C       0.3573   0.4922   0.4718     C
C       0.3612   0.1945   0.4271     C
O       0.3678   0.4778   0.9063     O
C       0.3695   0.5092   0.5541     C
Zn     0.37527  0.84621   0.8229    Zn
C       0.3762   0.4286   0.0757     C
H       0.3862    0.414   0.3151     H
N       0.3892    0.416   0.1565     N
H       0.3901   0.3212   0.6498     H
O       0.3946   0.5311   0.7212     O
C       0.3982   0.2699   0.6852     C
H       0.4031   0.3559   0.7874     H
C       0.4032   0.1726    0.653     C
C       0.4052   0.2901   0.7677     C
C       0.4103   0.0921   0.7061     C
C       0.4117   0.1639   0.5627     C
C        0.412   0.1085   0.7924     C
H        0.414   0.0278   0.6849     H
C       0.4153   0.2132   0.8235     C
N        0.416   0.0268   0.8435     N
H       0.4225   0.5346   0.4378     H
C       0.4286   0.0524   0.9243     C
H        0.429   0.9969   0.9598     H
C       0.4294   0.2349   0.9082     C
O       0.4296   0.2328   0.2596     O
H       0.4307   0.3015   0.9298     H
H       0.4321    0.429   0.0402     H
H       0.4344   0.8766   0.5757     H
C       0.4413   0.1577   0.9591     C
H       0.4422   0.5656   0.5757     H
C        0.444   0.1682   0.3937     C
H       0.4654   0.8879   0.4378     H
C       0.4689   0.1827   0.0507     C
O       0.4689   0.8635   0.7212     O
C       0.4695   0.1789    0.303     C
Zn     0.47094  0.62473   0.8229    Zn
O       0.4778     0.11   0.0937     O
O       0.4805   0.2803   0.0734     O
C       0.4908   0.8603   0.5541     C
C       0.4922   0.1349   0.5282     C
C       0.5078   0.8651   0.4718     C
C       0.5092   0.1397   0.4459     C
O       0.5195   0.7197   0.9266     O
O       0.5222     0.89   0.9063     O
Zn     0.52906  0.37527   0.1771    Zn
C       0.5305   0.8211    0.697     C
O       0.5311   0.1365   0.2788     O
C       0.5311   0.8173   0.9493     C
H       0.5346   0.1121   0.5622     H
C        0.556   0.8318   0.6063     C
H       0.5578   0.4344   0.4243     H
C       0.5587   0.8423   0.0409     C
H       0.5656   0.1234   0.4243     H
H       0.5679    0.571   0.9598     H
H       0.5693   0.6985   0.0702     H
O       0.5704   0.7672   0.7404     O
C       0.5706   0.7651   0.0918     C
H        0.571   0.0031   0.0402     H
C       0.5714   0.9476   0.0757     C
H       0.5775   0.4654   0.5622     H
N        0.584   0.9732   0.1565     N
C       0.5847   0.7868   0.1765     C
H        0.586   0.9722   0.3151     H
C        0.588   0.8915   0.2076     C
C       0.5883   0.8361   0.4373     C
C       0.5897   0.9079   0.2939     C
C       0.5948   0.7099   0.2323     C
C       0.5968   0.8274    0.347     C
H       0.5969   0.6441   0.2126     H
C       0.6018   0.7301   0.3148     C
O       0.6054   0.4689   0.2788     O
H       0.6099   0.6788   0.3502     H
N       0.6108    0.584   0.8435     N
H       0.6138    0.586   0.6849     H
C       0.6238   0.5714   0.9243     C
Zn     0.62473  0.15379   0.1771    Zn
C       0.6305   0.4908   0.4459     C
O       0.6322   0.5222   0.0937     O
C       0.6388   0.8055   0.5729     C
C       0.6427   0.5078   0.5282     C
H       0.6441   0.0472   0.7874     H
C        0.655   0.8079   0.4895     C
O      0.66667  0.33333   0.1804     O
H       0.6788   0.0689   0.6498     H
C       0.6818   0.5897   0.7061     C
H       0.6834   0.7862   0.6074     H
C       0.6965    0.588   0.7924     C
H       0.6985   0.1292   0.9298     H
C       0.7094   0.5305    0.303     C
C       0.7099   0.1151   0.7677     C
H       0.7106   0.7907   0.4679     H
C       0.7138   0.5311   0.0507     C
C       0.7164   0.5587   0.9591     C
O       0.7197   0.2002   0.0734     O
C       0.7242    0.556   0.3937     C
C       0.7301   0.1283   0.6852     C
C       0.7522   0.5883   0.5627     C
C       0.7651   0.1945   0.9082     C
O       0.7672   0.1968   0.2596     O
C       0.7694   0.5968    0.653     C
H       0.7862   0.1028   0.3926     H
C       0.7868   0.2021   0.8235     C
H       0.7907   0.0801   0.5321     H
C       0.7979   0.5847   0.8235     C
O       0.7998   0.5195   0.0734     O
O       0.8032   0.5704   0.2596     O
C       0.8055   0.1667   0.4271     C
C       0.8055   0.5706   0.9082     C
C       0.8079   0.1529   0.5105     C
C       0.8173   0.2862   0.0507     C
C       0.8211   0.2906    0.303     C
C       0.8274   0.2306    0.653     C
C       0.8318   0.2758   0.3937     C
C       0.8333   0.6388   0.4271     C
C       0.8361   0.2478   0.5627     C
C       0.8423   0.2836   0.9591     C
Zn     0.84621  0.47094   0.1771    Zn
C       0.8471    0.655   0.5105     C
C       0.8603   0.3695   0.4459     C
O       0.8635   0.3946   0.2788     O
C       0.8651   0.3573   0.5282     C
H       0.8708   0.5693   0.9298     H
C       0.8717   0.6018   0.6852     C
H       0.8766   0.4422   0.4243     H
C       0.8849   0.5948   0.7677     C
H       0.8879   0.4225   0.5622     H
O         0.89   0.3678   0.0937     O
C       0.8915   0.3035   0.7924     C
H       0.8972   0.6834   0.3926     H
C       0.9079   0.3182   0.7061     C
H       0.9199   0.7106   0.5321     H
H       0.9311   0.6099   0.6498     H
C       0.9476   0.3762   0.9243     C
H       0.9528   0.5969   0.7874     H
H       0.9722   0.3862   0.6849     H
N       0.9732   0.3892   0.8435     N
H       0.9969   0.5679   0.0402     H
