data_I
_chemical_name_common  '/home/zhangsd/repos/MofS-CGCNN/ML/data/WS24/clean_cifs/ELUBOE'
_cell_length_a  8.74830
_cell_length_b 15.46980
_cell_length_c 23.85100
_cell_angle_alpha 90.00000
_cell_angle_beta  90.35300
_cell_angle_gamma 90.00000
_space_group_name_H-M_alt      'P 1'


loop_
_space_group_symop_operation_xyz
  'x, y, z' 

loop_
_atom_site_label
_atom_site_fract_x
_atom_site_fract_y
_atom_site_fract_z
_atom_site_type_symbol
O       0.0041   0.9762   0.3511     O
O       0.0043   0.0753   0.4486     O
H       0.0046   0.5097   0.7819     H
C        0.005   0.5301   0.6947     C
O       0.0059   0.0128   0.9867     O
C       0.0098    0.026   0.0877     C
Na      0.0122   0.3308   0.2494    Na
O       0.0126   0.6387   0.2672     O
C       0.0181   0.6929   0.4045     C
C       0.0182   0.4734   0.7486     C
Na      0.0195   0.5079   0.3332    Na
H       0.0255   0.4959   0.8787     H
O       0.0263   0.6131   0.4102     O
C         0.03   0.6241    0.908     C
O       0.0478   0.2805   0.4023     O
O       0.0499   0.3799   0.5087     O
O       0.0506   0.7792   0.1805     O
C        0.061   0.8007   0.6297     C
O       0.0673    0.178    0.079     O
O       0.0719   0.8682   0.6597     O
C       0.0762   0.4914   0.9641     C
O       0.0775   0.3426   0.9945     O
O       0.0855   0.6712   0.0427     O
O       0.0943   0.9128   0.2537     O
Cu      0.0991  0.86845  0.33021    Cu
H       0.1016   0.5618   0.6915     H
O       0.1038   0.2322   0.6107     O
O        0.104   0.1558   0.2642     O
Na      0.1051   0.2332   0.9001    Na
Na       0.112    0.556   0.1903    Na
O       0.1138   0.2984   0.1604     O
C       0.1154   0.3971   0.9578     C
C        0.118   0.0963   0.3019     C
O        0.135   0.4666   0.1118     O
O       0.1358   0.0952   0.8441     O
O       0.1427   0.8365   0.4068     O
O       0.1558   0.6416   0.8894     O
H       0.1652   0.6775   0.6318     H
C       0.1678   0.7453   0.4081     C
O       0.1681   0.0111   0.0803     O
Na      0.1704   0.5342   0.4775    Na
O       0.1709   0.9143   0.7982     O
H       0.1733   0.5227   0.9661     H
O       0.1735   0.8464   0.9414     O
C        0.177    0.434   0.7494     C
O       0.1777   0.7091   0.7716     O
O        0.185   0.7581   0.3092     O
O       0.1863   0.3758   0.9142     O
O       0.1877   0.4559   0.2579     O
O       0.1908   0.3564    0.737     O
Na      0.1939   0.7808   0.8563    Na
C       0.2014   0.7374   0.6312     C
O       0.2149   0.4391    0.399     O
Cu      0.2205  0.01936  0.00378    Cu
H       0.2243   0.7295   0.4422     H
H       0.2249   0.7572   0.5455     H
O       0.2325   0.0934   0.3336     O
O       0.2334   0.9646   0.5338     O
O       0.2475   0.1746   0.4997     O
Na      0.2547   0.0962   0.5848    Na
H       0.2609   0.6596   0.3521     H
Na      0.2627   0.2479   0.6853    Na
C       0.2628   0.7226   0.3562     C
O       0.2647   0.8478   0.1012     O
O       0.2694    0.084   0.6811     O
Na       0.276   0.3135   0.5559    Na
O        0.278   0.0114   0.9261     O
O       0.2817   0.4443   0.6159     O
Na      0.2839   0.2365   0.3593    Na
O       0.2869   0.4826     0.76     O
Na      0.2881   0.2512   0.0338    Na
O       0.2895   0.3317   0.2825     O
C        0.295   0.7535   0.5777     C
Na      0.2951   0.7594   0.0115    Na
O       0.2961    0.753   0.6784     O
C        0.299   0.4078   0.2647     C
Na       0.311   0.2172   0.2134    Na
O       0.3237   0.1795   0.9471     O
O       0.3317   0.6432   0.1874     O
Na      0.3357   0.7871   0.2298    Na
O       0.3362   0.6057   0.5532     O
O        0.347   0.1153   0.1474     O
O       0.3579   0.9623   0.3906     O
Na      0.3617   0.5975   0.8102    Na
O       0.3694   0.8337   0.5848     O
O       0.3803   0.9385   0.2254     O
C        0.381   0.0727   0.7138     C
H        0.382   0.5299   0.0278     H
O       0.3858   0.1113   0.7611     O
O        0.392   0.2818   0.8144     O
Cu      0.3928  0.86251   0.6636    Cu
O       0.3953   0.3829   0.0827     O
H       0.3973    0.554   0.3036     H
C        0.399   0.6733   0.5708     C
O        0.423   0.3851    0.489     O
O       0.4279   0.4785   0.8787     O
O       0.4281   0.8875   0.7434     O
C       0.4291   0.0421    0.922     C
C        0.431   0.7505   0.3585     C
O       0.4355   0.6688    0.946     O
C       0.4359    0.141   0.9271     C
O       0.4394   0.0214   0.0191     O
O       0.4401   0.6752   0.0845     O
Na      0.4479   0.0168   0.4757    Na
O       0.4546   0.5678   0.4416     O
C        0.456   0.4043   0.0367     C
C       0.4567   0.4477   0.2551     C
H       0.4568   0.4758   0.2183     H
Na      0.4613   0.3241   0.9053    Na
O       0.4632   0.7825   0.8287     O
O       0.4649    0.182   0.4194     O
Na      0.4677   0.4411   0.6916    Na
H       0.4733   0.0239   0.8862     H
O       0.4803   0.7925   0.3165     O
O        0.481    0.365   0.5104     O
C       0.4822   0.5017   0.0298     C
C        0.488   0.5172   0.3008     C
O       0.4882   0.3548   0.9998     O
O       0.4903   0.2315   0.5998     O
O       0.4954   0.9722    0.649     O
O       0.4993    0.642   0.7242     O
O       0.5007    0.142   0.2758     O
O       0.5046   0.4722    0.351     O
O       0.5097   0.7315   0.4002     O
O       0.5118   0.8548   0.0002     O
C        0.512   0.0172   0.6992     C
C       0.5178   0.0017   0.9702     C
O        0.519    0.865   0.4896     O
O       0.5197   0.2925   0.6835     O
H       0.5267   0.5239   0.1138     H
Na      0.5323   0.9411   0.3084    Na
O       0.5351    0.682   0.5806     O
O       0.5368   0.2825   0.1713     O
Na      0.5387   0.8241   0.0947    Na
H       0.5432   0.9758   0.7817     H
C       0.5433   0.9477   0.7449     C
C        0.544   0.9043   0.9633     C
O       0.5454   0.0678   0.5584     O
Na      0.5521   0.5168   0.5243    Na
O       0.5599   0.1752   0.9155     O
O       0.5606   0.5214   0.9809     O
C       0.5641    0.641   0.0729     C
O       0.5645   0.1688    0.054     O
C        0.569   0.2505   0.6415     C
C       0.5709   0.5421    0.078     C
O       0.5719   0.3875   0.2566     O
O       0.5721   0.9785   0.1213     O
O        0.577   0.8851    0.511     O
C        0.601   0.1733   0.4292     C
H       0.6027    0.054   0.6964     H
O       0.6047   0.8829   0.9173     O
Cu      0.6072  0.36251   0.3364    Cu
O        0.608   0.7818   0.1856     O
O       0.6142   0.6113   0.2389     O
H        0.618   0.0299   0.9722     H
C        0.619   0.5727   0.2862     C
O       0.6197   0.4385   0.7746     O
O       0.6306   0.3337   0.4152     O
Na      0.6383   0.0975   0.1898    Na
O       0.6421   0.4623   0.6094     O
O        0.653   0.6153   0.8526     O
O       0.6638   0.1057   0.4468     O
Na      0.6643   0.2871   0.7702    Na
O       0.6683   0.1432   0.8126     O
O       0.6763   0.6795   0.0529     O
Na       0.689   0.7172   0.7866    Na
C        0.701   0.9078   0.7353     C
O       0.7039    0.253   0.3216     O
Na      0.7049   0.2594   0.9885    Na
C        0.705   0.2535   0.4223     C
O       0.7105   0.8317   0.7175     O
Na      0.7119   0.7512   0.9662    Na
O       0.7131   0.9826     0.24     O
Na      0.7161   0.7365   0.6407    Na
O       0.7183   0.9443   0.3841     O
O        0.722   0.5114   0.0739     O
Na       0.724   0.8135   0.4441    Na
O       0.7306    0.584   0.3189     O
O       0.7353   0.3478   0.8988     O
C       0.7372   0.2226   0.6438     C
Na      0.7373   0.7479   0.3147    Na
H       0.7391   0.1596   0.6479     H
Na      0.7453   0.5962   0.4152    Na
O       0.7525   0.6746   0.5003     O
O       0.7666   0.4646   0.4662     O
O       0.7675   0.5934   0.6664     O
H       0.7751   0.2572   0.4545     H
H       0.7757   0.2295   0.5578     H
Cu      0.7795  0.51936  0.99622    Cu
O       0.7851   0.9391    0.601     O
C       0.7986   0.2374   0.3688     C
Na      0.8061   0.2808   0.1437    Na
O       0.8092   0.8564    0.263     O
O       0.8123   0.9559   0.7421     O
O       0.8137   0.8758   0.0858     O
O        0.815   0.2581   0.6908     O
O       0.8223   0.2091   0.2284     O
C        0.823    0.934   0.2506     C
O       0.8265   0.3464   0.0586     O
H       0.8267   0.0227   0.0339     H
O       0.8291   0.4143   0.2018     O
Na      0.8296   0.0342   0.5225    Na
O       0.8319   0.5111   0.9197     O
C       0.8322   0.2453   0.5919     C
H       0.8348   0.1775   0.3682     H
O       0.8442   0.1416   0.1106     O
O       0.8573   0.3365   0.5932     O
O       0.8642   0.5952   0.1559     O
O        0.865   0.9666   0.8882     O
C        0.882   0.5963   0.6981     C
C       0.8846   0.8971   0.0422     C
O       0.8862   0.7984   0.8396     O
Na       0.888    0.056   0.8097    Na
Na      0.8949   0.7332   0.0999    Na
O        0.896   0.6558   0.7358     O
O       0.8962   0.7322   0.3893     O
H       0.8984   0.0618   0.3085     H
Cu      0.9009  0.36845  0.66979    Cu
O       0.9057   0.4128   0.7463     O
O       0.9145   0.1712   0.9573     O
O       0.9225   0.8426   0.0055     O
C       0.9238   0.9914   0.0359     C
O       0.9281   0.3682   0.3403     O
O       0.9327    0.678    0.921     O
C        0.939   0.3007   0.3703     C
O       0.9494   0.2792   0.8195     O
O       0.9501   0.8799   0.4913     O
O       0.9522   0.7805   0.5977     O
C         0.97   0.1241    0.092     C
O       0.9737   0.1131   0.5898     O
H       0.9745   0.9959   0.1213     H
Na      0.9805   0.0079   0.6668    Na
C       0.9818   0.9734   0.2514     C
C       0.9819   0.1929   0.5955     C
O       0.9874   0.1387   0.7328     O
Na      0.9878   0.8308   0.7506    Na
C       0.9902    0.526   0.9123     C
O       0.9941   0.5128   0.0133     O
C        0.995   0.0301   0.3053     C
H       0.9954   0.0097   0.2181     H
O       0.9957   0.5753   0.5514     O
O       0.9959   0.4762   0.6489     O
