data_I
_chemical_name_common  '/home/zhangsd/repos/MofS-CGCNN/ML/data/WS24/clean_cifs/ELUBAQ'
_cell_length_a  8.66960
_cell_length_b  9.21470
_cell_length_c 10.00120
_cell_angle_alpha 69.77400
_cell_angle_beta  74.03000
_cell_angle_gamma 66.50900
_space_group_name_H-M_alt      'P 1'


loop_
_space_group_symop_operation_xyz
  'x, y, z' 

loop_
_atom_site_label
_atom_site_fract_x
_atom_site_fract_y
_atom_site_fract_z
_atom_site_type_symbol
O       0.0171   0.4526   0.5224     O
O       0.0188   0.9686   0.2034     O
O       0.0422   0.8342   0.5526     O
H        0.043    0.433    0.604     H
Na      0.0455   0.7107   0.3788    Na
O       0.0664   0.2282   0.8058     O
H        0.079     0.91    0.495     H
H         0.08    0.956    0.123     H
H        0.097    0.172    0.178     H
H        0.116    0.133    0.851     H
H        0.119    0.778    0.605     H
Na        0.13   0.3168   0.3283    Na
H       0.1387   0.7947   0.9283     H
O       0.1405   0.2419   0.1221     O
O        0.149   0.5806   0.1793     O
H        0.229    0.192    0.075     H
O       0.2355   0.9389   0.9592     O
O       0.2361   0.4495   0.7717     O
C       0.2526   0.8069   0.9116     C
O       0.2603   0.0235   0.4176     O
H        0.278    0.369    0.838     H
H        0.283    0.518     0.76     H
C       0.2841   0.6101   0.1575     C
H        0.324    0.986    0.481     H
O        0.327   0.7209    0.696     O
H         0.33    0.003    0.343     H
C       0.3323   0.8234   0.7509     C
O       0.3526   0.6054   0.2562     O
Na       0.368   0.2036   0.6632    Na
C       0.3733   0.6513   0.0012     C
H        0.386    0.383    0.387     H
O       0.3959   0.2826   0.4104     O
O       0.3995   0.9325   0.6854     O
H       0.4014   0.5576   0.9598     H
O       0.4176   0.1532   0.9241     O
Cu     0.47005  0.92041  0.94695    Cu
H        0.475    0.245    0.347     H
H        0.493    0.642    0.551     H
O       0.5137   0.9399   0.1766     O
O       0.5252   0.6814   0.9896     O
H       0.5574   0.2652   0.9498     H
C       0.5622   0.1504   0.9652     C
C       0.5736   0.0545   0.1239     C
O       0.5759   0.6087   0.4875     O
Na      0.6063   0.6471   0.2367    Na
H        0.633    0.515    0.533     H
O       0.6465   0.0956    0.193     O
H        0.662     0.46    0.078     H
O       0.6743    0.158   0.6199     O
H        0.686    0.621    0.844     H
H        0.697    0.298    0.114     H
H        0.702    0.911    0.363     H
H        0.703    0.759    0.433     H
O       0.7063   0.9132   0.8762     O
C       0.7183   0.0642   0.8691     C
C       0.7183   0.1851   0.7152     C
O       0.7375    0.369   0.1075     O
H        0.742    0.522    0.758     H
O       0.7468    0.828   0.4298     O
Na      0.7491   0.8692    0.647    Na
O       0.7625   0.3063   0.6978     O
O        0.765   0.5936   0.7764     O
H        0.787     0.28    0.434     H
H        0.816    0.334     0.29     H
H       0.8238   0.0429   0.9055     H
H         0.83    0.732    0.001     H
O       0.8398   0.3349   0.3645     O
O       0.8642   0.6426   0.0639     O
H        0.918     0.01    0.186     H
H        0.935    0.416    0.542     H
H        0.958    0.639    0.077     H
Na       0.975   0.4324   0.9382    Na
H        0.988    0.223    0.776     H
