data_I
_chemical_name_common  '/home/zhangsd/repos/MofS-CGCNN/ML/data/WS24/clean_cifs/EPONEE'
_cell_length_a 20.38370
_cell_length_b 20.38370
_cell_length_c 14.00790
_cell_angle_alpha 90.00000
_cell_angle_beta  90.00000
_cell_angle_gamma 90.00000
_space_group_name_H-M_alt      'P 1'


loop_
_space_group_symop_operation_xyz
  'x, y, z' 

loop_
_atom_site_label
_atom_site_fract_x
_atom_site_fract_y
_atom_site_fract_z
_atom_site_type_symbol
Nb         0.0      0.0      0.5    Nb
Nb         0.0      0.5     0.75    Nb
C       0.0121   0.5651   0.8791     C
C       0.0121   0.9349   0.3709     C
C       0.0165   0.1024   0.5488     C
C       0.0165   0.3976   0.7012     C
N       0.0184   0.5974   0.9442     N
N       0.0184   0.9026   0.3058     N
Zn     0.02241     0.25    0.625    Zn
N       0.0242   0.1555   0.5752     N
N       0.0242   0.3445   0.6748     N
C       0.0651   0.5121   0.6209     C
C       0.0651   0.9879   0.6291     C
N       0.0974   0.5184   0.5558     N
N       0.0974   0.9816   0.6942     N
C       0.1024   0.0165   0.4512     C
C       0.1024   0.4835   0.7988     C
N       0.1555   0.0242   0.4248     N
N       0.1555   0.4758   0.8252     N
Zn        0.25  0.02241    0.375    Zn
Zn        0.25  0.47759    0.875    Zn
N       0.3445   0.0242   0.3252     N
N       0.3445   0.4758   0.9248     N
C       0.3976   0.0165   0.2988     C
C       0.3976   0.4835   0.9512     C
N       0.4026   0.5184   0.1942     N
N       0.4026   0.9816   0.0558     N
C       0.4349   0.5121   0.1291     C
C       0.4349   0.9879   0.1209     C
N       0.4758   0.1555   0.1748     N
N       0.4758   0.3445   0.0752     N
Zn     0.47759     0.25    0.125    Zn
N       0.4816   0.5974   0.8058     N
N       0.4816   0.9026   0.4442     N
C       0.4835   0.1024   0.2012     C
C       0.4835   0.3976   0.0488     C
C       0.4879   0.5651   0.8709     C
C       0.4879   0.9349   0.3791     C
Nb         0.5      0.0     0.25    Nb
Nb         0.5      0.5      0.0    Nb
C       0.5121   0.0651   0.3791     C
C       0.5121   0.4349   0.8709     C
C       0.5165   0.6024   0.0488     C
C       0.5165   0.8976   0.2012     C
N       0.5184   0.0974   0.4442     N
N       0.5184   0.4026   0.8058     N
Zn     0.52241     0.75    0.125    Zn
N       0.5242   0.6555   0.0752     N
N       0.5242   0.8445   0.1748     N
C       0.5651   0.0121   0.1209     C
C       0.5651   0.4879   0.1291     C
N       0.5974   0.0184   0.0558     N
N       0.5974   0.4816   0.1942     N
C       0.6024   0.5165   0.9512     C
C       0.6024   0.9835   0.2988     C
N       0.6555   0.5242   0.9248     N
N       0.6555   0.9758   0.3252     N
Zn        0.75  0.52241    0.875    Zn
Zn        0.75  0.97759    0.375    Zn
N       0.8445   0.5242   0.8252     N
N       0.8445   0.9758   0.4248     N
C       0.8976   0.5165   0.7988     C
C       0.8976   0.9835   0.4512     C
N       0.9026   0.0184   0.6942     N
N       0.9026   0.4816   0.5558     N
C       0.9349   0.0121   0.6291     C
C       0.9349   0.4879   0.6209     C
N       0.9758   0.6555   0.6748     N
N       0.9758   0.8445   0.5752     N
Zn     0.97759     0.75    0.625    Zn
N       0.9816   0.0974   0.3058     N
N       0.9816   0.4026   0.9442     N
C       0.9835   0.6024   0.7012     C
C       0.9835   0.8976   0.5488     C
C       0.9879   0.0651   0.3709     C
C       0.9879   0.4349   0.8791     C
