data_I
_chemical_name_common  '/home/zhangsd/repos/MofS-CGCNN/ML/data/WS24/clean_cifs/EPONAA'
_cell_length_a 20.35340
_cell_length_b 20.35340
_cell_length_c 13.98240
_cell_angle_alpha 90.00000
_cell_angle_beta  90.00000
_cell_angle_gamma 90.00000
_space_group_name_H-M_alt      'P 1'


loop_
_space_group_symop_operation_xyz
  'x, y, z' 

loop_
_atom_site_label
_atom_site_fract_x
_atom_site_fract_y
_atom_site_fract_z
_atom_site_type_symbol
Nb         0.0      0.0      0.5    Nb
Nb         0.0      0.5     0.75    Nb
C       0.0124   0.0654   0.3706     C
C       0.0124   0.4346   0.8794     C
C       0.0163   0.6032   0.7013     C
C       0.0163   0.8968   0.5487     C
N        0.019   0.0976   0.3063     N
N        0.019   0.4024   0.9437     N
Zn     0.02232     0.75    0.625    Zn
N       0.0242   0.6555   0.6746     N
N       0.0242   0.8445   0.5754     N
C       0.0654   0.0124   0.6294     C
C       0.0654   0.4876   0.6206     C
N       0.0976    0.019   0.6937     N
N       0.0976    0.481   0.5563     N
C       0.1032   0.5163   0.7987     C
C       0.1032   0.9837   0.4513     C
N       0.1555   0.5242   0.8254     N
N       0.1555   0.9758   0.4246     N
Zn        0.25  0.52232    0.875    Zn
Zn        0.25  0.97768    0.375    Zn
N       0.3445   0.5242   0.9246     N
N       0.3445   0.9758   0.3254     N
C       0.3968   0.5163   0.9513     C
C       0.3968   0.9837   0.2987     C
N       0.4024    0.019   0.0563     N
N       0.4024    0.481   0.1937     N
C       0.4346   0.0124   0.1206     C
C       0.4346   0.4876   0.1294     C
N       0.4758   0.6555   0.0754     N
N       0.4758   0.8445   0.1746     N
Zn     0.47768     0.75    0.125    Zn
N        0.481   0.0976   0.4437     N
N        0.481   0.4024   0.8063     N
C       0.4837   0.6032   0.0487     C
C       0.4837   0.8968   0.2013     C
C       0.4876   0.0654   0.3794     C
C       0.4876   0.4346   0.8706     C
Nb         0.5      0.0     0.25    Nb
Nb         0.5      0.5      0.0    Nb
C       0.5124   0.5654   0.8706     C
C       0.5124   0.9346   0.3794     C
C       0.5163   0.1032   0.2013     C
C       0.5163   0.3968   0.0487     C
N        0.519   0.5976   0.8063     N
N        0.519   0.9024   0.4437     N
Zn     0.52232     0.25    0.125    Zn
N       0.5242   0.1555   0.1746     N
N       0.5242   0.3445   0.0754     N
C       0.5654   0.5124   0.1294     C
C       0.5654   0.9876   0.1206     C
N       0.5976    0.519   0.1937     N
N       0.5976    0.981   0.0563     N
C       0.6032   0.0163   0.2987     C
C       0.6032   0.4837   0.9513     C
N       0.6555   0.0242   0.3254     N
N       0.6555   0.4758   0.9246     N
Zn        0.75  0.02232    0.375    Zn
Zn        0.75  0.47768    0.875    Zn
N       0.8445   0.0242   0.4246     N
N       0.8445   0.4758   0.8254     N
C       0.8968   0.0163   0.4513     C
C       0.8968   0.4837   0.7987     C
N       0.9024    0.519   0.5563     N
N       0.9024    0.981   0.6937     N
C       0.9346   0.5124   0.6206     C
C       0.9346   0.9876   0.6294     C
N       0.9758   0.1555   0.5754     N
N       0.9758   0.3445   0.6746     N
Zn     0.97768     0.25    0.625    Zn
N        0.981   0.5976   0.9437     N
N        0.981   0.9024   0.3063     N
C       0.9837   0.1032   0.5487     C
C       0.9837   0.3968   0.7013     C
C       0.9876   0.5654   0.8794     C
C       0.9876   0.9346   0.3706     C
