data_I
_chemical_name_common  '/home/zhangsd/repos/MofS-CGCNN/ML/data/WS24/clean_cifs/EQUMUA'
_cell_length_a  9.97980
_cell_length_b  9.97980
_cell_length_c 23.19210
_cell_angle_alpha 90.00000
_cell_angle_beta  90.00000
_cell_angle_gamma 90.00000
_space_group_name_H-M_alt      'P 1'


loop_
_space_group_symop_operation_xyz
  'x, y, z' 

loop_
_atom_site_label
_atom_site_fract_x
_atom_site_fract_y
_atom_site_fract_z
_atom_site_type_symbol
In         0.0      0.0     0.25    In
In         0.0      0.0     0.75    In
O          0.0   0.1426   0.1795     O
O          0.0   0.1426   0.8205     O
O          0.0   0.2412   0.2603     O
O          0.0   0.2412   0.7397     O
C          0.0   0.2474   0.2078     C
C          0.0   0.2474   0.7922     C
H          0.0   0.2994   0.0981     H
H          0.0   0.2994   0.9019     H
C          0.0   0.3806   0.1178     C
C          0.0   0.3806   0.1776     C
C          0.0   0.3806   0.8224     C
C          0.0   0.3806   0.8822     C
C          0.0      0.5   0.0264     C
C          0.0      0.5   0.0865     C
C          0.0      0.5   0.2072     C
H          0.0      0.5   0.2473     H
H          0.0      0.5   0.7527     H
C          0.0      0.5   0.7928     C
C          0.0      0.5   0.9135     C
C          0.0      0.5   0.9736     C
C          0.0   0.6194   0.1178     C
C          0.0   0.6194   0.1776     C
C          0.0   0.6194   0.8224     C
C          0.0   0.6194   0.8822     C
H          0.0   0.7006   0.0981     H
H          0.0   0.7006   0.9019     H
C          0.0   0.7526   0.2078     C
C          0.0   0.7526   0.7922     C
O          0.0   0.7588   0.2603     O
O          0.0   0.7588   0.7397     O
O          0.0   0.8574   0.1795     O
O          0.0   0.8574   0.8205     O
O       0.1426      0.0   0.3205     O
O       0.1426      0.0   0.6795     O
O       0.2412      0.0   0.2397     O
O       0.2412      0.0   0.7603     O
C       0.2474      0.0   0.2922     C
C       0.2474      0.0   0.7078     C
H       0.2994      0.0   0.4019     H
H       0.2994      0.0   0.5981     H
C       0.3806      0.0   0.3224     C
C       0.3806      0.0   0.3822     C
C       0.3806      0.0   0.6178     C
C       0.3806      0.0   0.6776     C
H          0.5      0.0   0.2527     H
C          0.5      0.0   0.2928     C
C          0.5      0.0   0.4135     C
C          0.5      0.0   0.4736     C
C          0.5      0.0   0.5264     C
C          0.5      0.0   0.5865     C
C          0.5      0.0   0.7072     C
H          0.5      0.0   0.7473     H
C       0.6194      0.0   0.3224     C
C       0.6194      0.0   0.3822     C
C       0.6194      0.0   0.6178     C
C       0.6194      0.0   0.6776     C
H       0.7006      0.0   0.4019     H
H       0.7006      0.0   0.5981     H
C       0.7526      0.0   0.2922     C
C       0.7526      0.0   0.7078     C
O       0.7588      0.0   0.2397     O
O       0.7588      0.0   0.7603     O
O       0.8574      0.0   0.3205     O
O       0.8574      0.0   0.6795     O
