data_I
_chemical_name_common  '/home/zhangsd/repos/MofS-CGCNN/ML/data/WS24/clean_cifs/EQUNAH'
_cell_length_a 25.16100
_cell_length_b 35.98800
_cell_length_c 10.02100
_cell_angle_alpha 90.00000
_cell_angle_beta  90.00000
_cell_angle_gamma 90.00000
_space_group_name_H-M_alt      'P 1'


loop_
_space_group_symop_operation_xyz
  'x, y, z' 

loop_
_atom_site_label
_atom_site_fract_x
_atom_site_fract_y
_atom_site_fract_z
_atom_site_type_symbol
H       0.0017   0.1412   0.3004     H
H       0.0017   0.1412   0.6996     H
H       0.0034     0.71      0.0     H
C       0.0068   0.8618      0.5     C
C       0.0083    0.345      0.0     C
C       0.0181    0.147   0.3809     C
C       0.0181    0.147   0.6191     C
C       0.0226   0.3083      0.0     C
H       0.0384   0.3978      0.0     H
C       0.0475   0.6448      0.0     C
C        0.048   0.3728      0.0     C
O        0.057   0.2332      0.0     O
C       0.0585   0.8803      0.5     C
C       0.0669   0.1643   0.3803     C
C       0.0669   0.1643   0.6197     C
O       0.0686  0.16172   0.1429     O
O       0.0686  0.16172   0.8571     O
C        0.077   0.2983      0.0     C
C       0.0905   0.1735      0.5     C
C       0.0909   0.1737   0.2489     C
C       0.0909   0.1737   0.7511     C
C       0.0912   0.6348      0.0     C
C       0.0922   0.2577      0.0     C
C       0.1004   0.3631      0.0     C
C        0.102   0.8938      0.5     C
C       0.1153   0.3253      0.0     C
H       0.1193   0.5657      0.0     H
H       0.1228   0.1861      0.5     H
In     0.12331   0.1881      0.0    In
O       0.1276    0.426      0.0     O
O       0.1311  0.19168   0.2424     O
O       0.1311  0.19168   0.7576     O
O         0.14  0.24925      0.0     O
C       0.1421   0.3929      0.0     C
C       0.1446   0.6184      0.0     C
C       0.1495   0.5806      0.0     C
H       0.1511   0.3187      0.0     H
C       0.1525   0.9091      0.5     C
H       0.1637   0.9114    0.299     H
H       0.1637   0.9114    0.701     H
O       0.1641  0.50319      0.0     O
O       0.1666   0.1327      0.0     O
C       0.1799   0.9169   0.3801     C
C       0.1799   0.9169   0.6199     C
H       0.1845    0.667      0.0     H
C       0.1887   0.6414      0.0     C
O       0.1893   0.3848      0.0     O
O       0.1998   0.4525   0.2414     O
O       0.1998   0.4525   0.7586     O
C       0.2001   0.5646      0.0     C
C       0.2058    0.523      0.0     C
In      0.2087  0.44969      0.0    In
H       0.2112   0.4508      0.5     H
C       0.2113   0.1489      0.0     C
O        0.214  0.18344      0.0     O
H       0.2213   0.0748      0.0     H
C       0.2293   0.9324   0.3801     C
C       0.2293   0.9324   0.6199     C
O       0.2294  0.93347   0.1421     O
O       0.2294  0.93347   0.8579     O
C       0.2396   0.6258      0.0     C
C       0.2447   0.4398   0.2466     C
C       0.2447   0.4398   0.7534     C
C        0.245   0.4404      0.5     C
C       0.2453   0.5858      0.0     C
O       0.2496  0.50882      0.0     O
O       0.2504  0.00882      0.0     O
C       0.2547   0.0858      0.0     C
C        0.255   0.9404      0.5     C
C       0.2553   0.9398   0.2466     C
C       0.2553   0.9398   0.7534     C
C       0.2604   0.1258      0.0     C
O       0.2706  0.43347   0.1421     O
O       0.2706  0.43347   0.8579     O
C       0.2707   0.4324   0.3801     C
C       0.2707   0.4324   0.6199     C
H       0.2787   0.5748      0.0     H
O        0.286  0.68344      0.0     O
C       0.2887   0.6489      0.0     C
H       0.2888   0.9508      0.5     H
In      0.2913  0.94969      0.0    In
C       0.2942    0.023      0.0     C
C       0.2999   0.0646      0.0     C
O       0.3002   0.9525   0.2414     O
O       0.3002   0.9525   0.7586     O
O       0.3107   0.8848      0.0     O
C       0.3113   0.1414      0.0     C
H       0.3155    0.167      0.0     H
C       0.3201   0.4169   0.3801     C
C       0.3201   0.4169   0.6199     C
O       0.3334   0.6327      0.0     O
O       0.3359  0.00319      0.0     O
H       0.3363   0.4114    0.299     H
H       0.3363   0.4114    0.701     H
C       0.3475   0.4091      0.5     C
H       0.3489   0.8187      0.0     H
C       0.3505   0.0806      0.0     C
C       0.3554   0.1184      0.0     C
C       0.3579   0.8929      0.0     C
O         0.36  0.74925      0.0     O
O       0.3689  0.69168   0.2424     O
O       0.3689  0.69168   0.7576     O
O       0.3724    0.926      0.0     O
In     0.37669   0.6881      0.0    In
H       0.3772   0.6861      0.5     H
H       0.3807   0.0657      0.0     H
C       0.3847   0.8253      0.0     C
C        0.398   0.3938      0.5     C
C       0.3996   0.8631      0.0     C
C       0.4078   0.7577      0.0     C
C       0.4088   0.1348      0.0     C
C       0.4091   0.6737   0.2489     C
C       0.4091   0.6737   0.7511     C
C       0.4095   0.6735      0.5     C
C        0.423   0.7983      0.0     C
O       0.4314  0.66172   0.1429     O
O       0.4314  0.66172   0.8571     O
C       0.4331   0.6643   0.3803     C
C       0.4331   0.6643   0.6197     C
C       0.4415   0.3803      0.5     C
O        0.443   0.7332      0.0     O
C        0.452   0.8728      0.0     C
C       0.4525   0.1448      0.0     C
H       0.4616   0.8978      0.0     H
C       0.4774   0.8083      0.0     C
C       0.4819    0.647   0.3809     C
C       0.4819    0.647   0.6191     C
C       0.4917    0.845      0.0     C
C       0.4932   0.3618      0.5     C
H       0.4966     0.21      0.0     H
H       0.4983   0.6412   0.3004     H
H       0.4983   0.6412   0.6996     H
H       0.5017   0.3588   0.3004     H
H       0.5017   0.3588   0.6996     H
H       0.5034     0.79      0.0     H
C       0.5068   0.6382      0.5     C
C       0.5083    0.155      0.0     C
C       0.5181    0.353   0.3809     C
C       0.5181    0.353   0.6191     C
C       0.5226   0.1917      0.0     C
H       0.5384   0.1022      0.0     H
C       0.5475   0.8552      0.0     C
C        0.548   0.1272      0.0     C
O        0.557   0.2668      0.0     O
C       0.5585   0.6197      0.5     C
C       0.5669   0.3357   0.3803     C
C       0.5669   0.3357   0.6197     C
O       0.5686  0.33828   0.1429     O
O       0.5686  0.33828   0.8571     O
C        0.577   0.2017      0.0     C
C       0.5905   0.3265      0.5     C
C       0.5909   0.3263   0.2489     C
C       0.5909   0.3263   0.7511     C
C       0.5912   0.8652      0.0     C
C       0.5922   0.2423      0.0     C
C       0.6004   0.1369      0.0     C
C        0.602   0.6062      0.5     C
C       0.6153   0.1747      0.0     C
H       0.6193   0.9343      0.0     H
H       0.6228   0.3139      0.5     H
In     0.62331   0.3119      0.0    In
O       0.6276    0.074      0.0     O
O       0.6311  0.30832   0.2424     O
O       0.6311  0.30832   0.7576     O
O         0.64  0.25075      0.0     O
C       0.6421   0.1071      0.0     C
C       0.6446   0.8816      0.0     C
C       0.6495   0.9194      0.0     C
H       0.6511   0.1813      0.0     H
C       0.6525   0.5909      0.5     C
H       0.6637   0.5886    0.299     H
H       0.6637   0.5886    0.701     H
O       0.6641  0.99681      0.0     O
O       0.6666   0.3673      0.0     O
C       0.6799   0.5831   0.3801     C
C       0.6799   0.5831   0.6199     C
H       0.6845    0.833      0.0     H
C       0.6887   0.8586      0.0     C
O       0.6893   0.1152      0.0     O
O       0.6998   0.0475   0.2414     O
O       0.6998   0.0475   0.7586     O
C       0.7001   0.9354      0.0     C
C       0.7058    0.977      0.0     C
In      0.7087   0.0503      0.0    In
H       0.7112   0.0492      0.5     H
C       0.7113   0.3511      0.0     C
O        0.714  0.31656      0.0     O
H       0.7213   0.4252      0.0     H
C       0.7293   0.5676   0.3801     C
C       0.7293   0.5676   0.6199     C
O       0.7294  0.56653   0.1421     O
O       0.7294  0.56653   0.8579     O
C       0.7396   0.8742      0.0     C
C       0.7447   0.0602   0.2466     C
C       0.7447   0.0602   0.7534     C
C        0.745   0.0596      0.5     C
C       0.7453   0.9142      0.0     C
O       0.7496  0.99118      0.0     O
O       0.7504  0.49118      0.0     O
C       0.7547   0.4142      0.0     C
C        0.755   0.5596      0.5     C
C       0.7553   0.5602   0.2466     C
C       0.7553   0.5602   0.7534     C
C       0.7604   0.3742      0.0     C
O       0.7706  0.06653   0.1421     O
O       0.7706  0.06653   0.8579     O
C       0.7707   0.0676   0.3801     C
C       0.7707   0.0676   0.6199     C
H       0.7787   0.9252      0.0     H
O        0.786  0.81656      0.0     O
C       0.7887   0.8511      0.0     C
H       0.7888   0.5492      0.5     H
In      0.7913   0.5503      0.0    In
C       0.7942    0.477      0.0     C
C       0.7999   0.4354      0.0     C
O       0.8002   0.5475   0.2414     O
O       0.8002   0.5475   0.7586     O
O       0.8107   0.6152      0.0     O
C       0.8113   0.3586      0.0     C
H       0.8155    0.333      0.0     H
C       0.8201   0.0831   0.3801     C
C       0.8201   0.0831   0.6199     C
O       0.8334   0.8673      0.0     O
O       0.8359  0.49681      0.0     O
H       0.8363   0.0886    0.299     H
H       0.8363   0.0886    0.701     H
C       0.8475   0.0909      0.5     C
H       0.8489   0.6813      0.0     H
C       0.8505   0.4194      0.0     C
C       0.8554   0.3816      0.0     C
C       0.8579   0.6071      0.0     C
O         0.86  0.75075      0.0     O
O       0.8689  0.80832   0.2424     O
O       0.8689  0.80832   0.7576     O
O       0.8724    0.574      0.0     O
In     0.87669   0.8119      0.0    In
H       0.8772   0.8139      0.5     H
H       0.8807   0.4343      0.0     H
C       0.8847   0.6747      0.0     C
C        0.898   0.1062      0.5     C
C       0.8996   0.6369      0.0     C
C       0.9078   0.7423      0.0     C
C       0.9088   0.3652      0.0     C
C       0.9091   0.8263   0.2489     C
C       0.9091   0.8263   0.7511     C
C       0.9095   0.8265      0.5     C
C        0.923   0.7017      0.0     C
O       0.9314  0.83828   0.1429     O
O       0.9314  0.83828   0.8571     O
C       0.9331   0.8357   0.3803     C
C       0.9331   0.8357   0.6197     C
C       0.9415   0.1197      0.5     C
O        0.943   0.7668      0.0     O
C        0.952   0.6272      0.0     C
C       0.9525   0.3552      0.0     C
H       0.9616   0.6022      0.0     H
C       0.9774   0.6917      0.0     C
C       0.9819    0.853   0.3809     C
C       0.9819    0.853   0.6191     C
C       0.9917    0.655      0.0     C
C       0.9932   0.1382      0.5     C
H       0.9966     0.29      0.0     H
H       0.9983   0.8588   0.3004     H
H       0.9983   0.8588   0.6996     H
