data_I
_chemical_name_common  '/home/zhangsd/repos/MofS-CGCNN/ML/data/WS24/clean_cifs/EQUNIP'
_cell_length_a 22.18110
_cell_length_b 22.18110
_cell_length_c 41.96100
_cell_angle_alpha 90.00000
_cell_angle_beta  90.00000
_cell_angle_gamma 120.00000
_space_group_name_H-M_alt      'P 1'


loop_
_space_group_symop_operation_xyz
  'x, y, z' 

loop_
_atom_site_label
_atom_site_fract_x
_atom_site_fract_y
_atom_site_fract_z
_atom_site_type_symbol
O          0.0      0.0  0.33324     O
O          0.0      0.0  0.66676     O
In         0.0  0.66516      0.5    In
In      0.0015  0.66817  0.83333    In
O      0.00199  0.12432  0.63188     O
O      0.00246  0.12408  0.70108     O
O      0.00712   0.7419  0.53804     O
C      0.00717  0.47693  0.43846     C
O       0.0081   0.7455  0.79597     O
C      0.00913  0.37297  0.75582     C
C      0.01093  0.37397  0.57812     C
C      0.01157  0.47943  0.22389     C
H      0.01423  0.23257  0.61037     H
H      0.01543  0.23397  0.72017     H
O      0.01594  0.57985  0.81553     O
O      0.02251  0.89508  0.62896     O
O       0.0249  0.89584  0.70258     O
H      0.02513  0.48217  0.79037     H
C      0.02887  0.43723  0.42028     C
C      0.02947  0.44093   0.2448     C
C       0.0297   0.3224  0.91145     C
C       0.0305   0.3242  0.08915     C
C      0.03126  0.59453  0.46008     C
H      0.03163  0.83247  0.58027     H
C      0.03247  0.59273  0.20334     C
O      0.03272  0.59883  0.53097     O
H      0.03323  0.48797  0.54937     H
H      0.03463  0.82827  0.74817     H
C      0.03963  0.34247  0.57752     C
C      0.04063  0.34427  0.75522     C
In     0.04389  0.93854  0.33372    In
C      0.04687  0.54983  0.43795     C
C      0.05087  0.55283  0.22522     C
C      0.05333  0.24657  0.73356     C
C      0.05353  0.24557  0.59788     C
C       0.0592  0.14717  0.71078     C
C      0.06023  0.14717   0.6217     C
In     0.06146  0.10535  0.33372    In
O      0.06784  0.76723   0.8643     O
O      0.06811  0.65954   0.2047     O
O      0.07073  0.65856  0.46263     O
C      0.07213  0.77006  0.79342     C
C      0.07393  0.77307  0.53668     C
C      0.07503  0.30447  0.75362     C
O      0.07523  0.67379  0.12863     O
C      0.07813  0.30387  0.57814     C
O      0.07883  0.67477   0.8707     O
C      0.07993  0.85507  0.57949     C
C      0.08273  0.85327  0.75031     C
C      0.08568  0.20822  0.73287     C
C      0.08673  0.20687   0.5992     C
C      0.08677  0.47343  0.40022     C
O      0.08682  0.76943  0.14886     O
C      0.08693  0.93977   0.6217     C
C      0.08777  0.47463  0.26454     C
C      0.08796   0.9408  0.71078     C
H      0.09937  0.44813  0.38683     H
O      0.10056  0.73451  0.80237     O
H      0.10077  0.44833  0.27703     H
O      0.10276  0.75349  0.51781     O
C      0.10339   0.7388  0.87325     C
C      0.10387  0.58393  0.41697     C
C       0.1039   0.3622  0.91305     C
O      0.10416  0.12907  0.70258     O
O      0.10492  0.12744  0.62896     O
In     0.10535  0.06146  0.66628    In
C       0.1064   0.7406  0.12999     C
C       0.1076   0.3628  0.08853     C
C      0.10847  0.58673  0.24615     C
C      0.11383  0.83137  0.55856     C
H       0.1148   0.4327   0.9465     H
H        0.115   0.4341   0.0563     H
C      0.11683  0.83037  0.77129     C
C      0.12013  0.91327   0.5992     C
H       0.1214   0.3001   0.8827     H
O      0.12161  0.99754  0.70108     O
O      0.12232  0.99801  0.63188     O
C      0.12253  0.91432  0.73287     C
H       0.1237   0.3082   0.1237     H
O      0.12408  0.00246  0.29892     O
O      0.12432  0.00199  0.36812     O
C      0.12512  0.54413  0.39953     C
C      0.12647  0.54653  0.26586     C
H      0.12697  0.63203  0.41483     H
O      0.12744  0.10492  0.37104     O
O      0.12907  0.10416  0.29742     O
H      0.13417  0.63503  0.24693     H
C      0.13453  0.32177  0.55723     C
C      0.13643  0.32617   0.7718     C
C       0.1401   0.4201  0.93311     C
C       0.1413   0.4211  0.06879     C
C       0.1436   0.3405  0.89487     C
C      0.14493  0.22487  0.57949     C
C       0.1461   0.3449  0.10944     C
C      0.14673  0.22947  0.75031     C
C      0.14717   0.0592  0.28922     C
C      0.14717  0.06023   0.3783     C
H      0.14883  0.35847  0.54297     H
H      0.15463  0.36657  0.78397     H
H       0.1616   0.7013   0.9185     H
C       0.1637   0.7835  0.89538     C
C       0.1647   0.7805  0.10811     C
H       0.1658   0.6983   0.0864     H
H      0.16753  0.19917  0.58027     H
C      0.16863  0.28247  0.55856     C
C      0.16963  0.28647  0.77129     C
H      0.17173  0.20637  0.74817     H
H       0.1787   0.8786   0.8827     H
H       0.1845   0.8763   0.1237     H
C      0.18617   0.5787  0.37744     C
C      0.18617  0.57973  0.28836     C
C       0.1866   0.7494  0.91636     C
C      0.18723  0.86547  0.55723     C
C       0.1884   0.7466  0.08718     C
C      0.18973  0.86357   0.7718     C
C      0.19203  0.94647  0.59788     C
C      0.19323  0.94667  0.73356     C
C       0.1969   0.8564  0.89487     C
C       0.1988   0.8539  0.10944     C
H      0.19917  0.16753  0.41973     H
O      0.20427  0.64176  0.36924     O
O       0.2059  0.64415  0.29562     O
H      0.20637  0.17173  0.25183     H
C      0.20687  0.08673   0.4008     C
C      0.20822  0.08568  0.26713     C
O      0.20902  0.54434  0.29854     O
O      0.20926  0.54505  0.36774     O
H      0.20963  0.85117  0.54297     H
C       0.2108  0.45845   0.9338     C
O      0.21101  0.54235  0.03479     O
O      0.21172  0.54259  0.96559     O
H      0.21193  0.84537  0.78397     H
C       0.2132   0.4598  0.06747     C
C       0.2165   0.3802  0.89538     C
H      0.21833  0.98577  0.61037     H
H      0.21853  0.98457  0.72017     H
C       0.2195   0.3842  0.10811     C
C      0.22487  0.14493  0.42051     C
C      0.22573  0.92187  0.57814     C
C      0.22693  0.30087  0.53668     C
In     0.22798  0.62278  0.00039    In
O      0.22841  0.68918  0.03771     O
O      0.22917  0.69157  0.96409     O
C      0.22943  0.92497  0.75362     C
C      0.22947  0.14673  0.24969     C
C      0.22994  0.30208  0.79342     C
O      0.23057  0.31739  0.14886     O
H      0.23257  0.01423  0.38963     H
O      0.23277  0.30061   0.8643     O
H      0.23397  0.01543  0.27983     H
C      0.24537   0.5195  0.95589     C
C      0.24557  0.05353  0.40212     C
C       0.2464   0.5195  0.04497     C
O      0.24651  0.34928  0.51781     O
C      0.24657  0.05333  0.26644     C
C       0.2466   0.7868  0.06747     C
C      0.24765   0.7892   0.9338     C
C       0.2506   0.4372  0.91636     C
C       0.2534   0.4418  0.08718     C
O       0.2545  0.26261  0.79597     O
C       0.2552   0.8924  0.08853     C
O       0.2581  0.26523  0.53804     O
C       0.2583   0.8961  0.91305     C
C       0.2594   0.3658  0.12999     C
C       0.2612  0.36459  0.87325     C
O      0.26261   0.2545  0.20403     O
O      0.26523   0.2581  0.46196     O
O      0.26549  0.36606  0.80237     O
In     0.27187  0.71056  0.33295    In
C       0.2731   0.7536  0.04497     C
C      0.27413  0.75463  0.95589     C
C       0.2798   0.8587  0.06879     C
C         0.28   0.8599  0.93311     C
C      0.28247  0.16863  0.44144     C
C      0.28647  0.16963  0.22871     C
In     0.28944  0.56131  0.33295    In
C       0.2927   0.9703  0.91145     C
C       0.2937   0.9695  0.08915     C
H       0.2987   0.4603   0.9185     H
H       0.3001   0.1214   0.1173     H
O      0.30061  0.23277   0.1357     O
C      0.30087  0.22693  0.46332     C
H       0.3017   0.4675   0.0864     H
C      0.30208  0.22994  0.20658     C
C      0.30283  0.96037  0.57752     C
C      0.30363  0.95937  0.75522     C
C      0.30387  0.07813  0.42186     C
C      0.30447  0.07503  0.24638     C
H       0.3082   0.1237   0.8763     H
O      0.30843   0.5376  0.96409     O
O      0.31082  0.53923  0.03771     O
O      0.31739  0.23057  0.85114     O
H       0.3179   0.8852   0.9465     H
H       0.3191    0.885   0.0563     H
C      0.32177  0.13453  0.44277     C
C       0.3224   0.0297  0.08855     C
C       0.3242   0.0305  0.91085     C
O      0.32523  0.40406   0.8707     O
C      0.32617  0.13643   0.2282     C
O      0.32621  0.40144  0.12863     O
O      0.33087  0.78828  0.96559     O
O      0.33134  0.78899  0.03479     O
In     0.33183  0.33333  0.83333    In
In     0.33333  0.33183  0.16667    In
O      0.33333  0.66667  0.33342     O
O      0.33333  0.66667  0.99991     O
In     0.33484  0.33484      0.5    In
O      0.33533  0.79098  0.29854     O
O       0.3358  0.79074  0.36774     O
O      0.34046  0.40856   0.2047     O
C       0.3405   0.1436  0.10513     C
O      0.34144  0.41216  0.46263     O
C      0.34247  0.03963  0.42248     C
C      0.34427  0.04063  0.24478     C
C       0.3449   0.1461  0.89056     C
H      0.34757  0.89923  0.27703     H
H      0.34877  0.90063  0.38683     H
O      0.34928  0.24651  0.48219     O
O      0.35585  0.56174  0.29562     O
O      0.35824   0.5625  0.36924     O
H      0.35847  0.14883  0.45703     H
C       0.3622   0.1039  0.08695     C
C       0.3628   0.1076  0.91147     C
C      0.36303  0.98907  0.57812     C
C      0.36383  0.99087  0.75582     C
C      0.36459   0.2612  0.12675     C
H      0.36497  0.49913  0.24693     H
C       0.3658   0.2594  0.87001     C
O      0.36606  0.26549  0.19763     O
H      0.36657  0.15463  0.21603     H
H      0.36797  0.49493  0.41483     H
C      0.37297  0.00913  0.24418     C
C      0.37397  0.01093  0.42188     C
In     0.37722   0.6052  0.00039    In
C       0.3802   0.2165  0.10462     C
C       0.3842   0.2195  0.89189     C
C      0.38667  0.91323  0.40022     C
C      0.38687  0.91223  0.26454     C
C      0.39254  0.81383  0.37744     C
C      0.39357  0.81383  0.28836     C
In      0.3948  0.77202  0.00039    In
O      0.40117   0.4339  0.53097     O
O      0.40144  0.32621  0.87137     O
O      0.40406  0.32523   0.1293     O
C      0.40547  0.43672  0.46008     C
C      0.40727  0.43973  0.20334     C
C      0.40837  0.97113  0.42028     C
O      0.40856  0.34046   0.7953     O
C      0.41147  0.97053   0.2448     C
O      0.41216  0.34144  0.53737     O
C      0.41327  0.52173  0.24615     C
C      0.41607  0.51993  0.41697     C
C      0.41902  0.87488  0.39953     C
C      0.42007  0.87353  0.26586     C
C       0.4201   0.1401  0.06689     C
O      0.42015   0.4361  0.81553     O
C      0.42027  0.60643  0.28836     C
C       0.4211   0.1413  0.93121     C
C       0.4213  0.60746  0.37744     C
H       0.4327   0.1148   0.0535     H
O       0.4339  0.40117  0.46903     O
H       0.4341    0.115   0.9437     H
O       0.4361  0.42015  0.18447     O
C      0.43672  0.40547  0.53992     C
C       0.4372   0.2506  0.08364     C
C      0.43723  0.02887  0.57972     C
O       0.4375  0.79573  0.36924     O
O      0.43826   0.7941  0.29562     O
In     0.43869  0.72813  0.33295    In
C      0.43973  0.40727  0.79666     C
C      0.44093  0.02947   0.7552     C
C       0.4418   0.2534  0.91282     C
C      0.44717  0.49803  0.22522     C
H      0.44813  0.09937  0.61317     H
H      0.44833  0.10077  0.72297     H
C      0.45017  0.49703  0.43795     C
C      0.45347  0.57993  0.26586     C
H      0.45473  0.96677  0.54937     H
O      0.45495   0.6642  0.36774     O
O      0.45566  0.66467  0.29854     O
C      0.45587  0.58098  0.39953     C
H      0.45703  0.97487  0.79037     H
O      0.45741  0.66913  0.96559     O
O      0.45765  0.66866  0.03479     O
C      0.45845   0.2108   0.0662     C
C       0.4598   0.2132  0.93253     C
H       0.4603   0.2987   0.0815     H
O      0.46077  0.77159  0.03771     O
O       0.4624  0.77083  0.96409     O
H       0.4675   0.3017   0.9136     H
C      0.46787  0.98843  0.22389     C
C      0.46977  0.99283  0.43846     C
C      0.47343  0.08677  0.59978     C
C      0.47463  0.08777  0.73546     C
C      0.47693  0.00717  0.56154     C
C      0.47827  0.89153  0.24615     C
C      0.47943  0.01157  0.77611     C
C      0.48007  0.89613  0.41697     C
C       0.4805  0.72587  0.95589     C
C       0.4805   0.7269  0.04497     C
H      0.48217  0.02513  0.20963     H
H      0.48797  0.03323  0.45063     H
H      0.49493  0.36797  0.58517     H
C      0.49703  0.45017  0.56205     C
C      0.49803  0.44717  0.77478     C
H      0.49913  0.36497  0.75307     H
H      0.50087  0.86583  0.24693     H
C      0.50197  0.94913  0.22522     C
C      0.50297  0.95313  0.43795     C
H      0.50507  0.87303  0.41483     H
H      0.51203  0.54527  0.54937     H
H      0.51783  0.54297  0.79037     H
C       0.5195  0.24537  0.04411     C
C       0.5195   0.2464  0.95503     C
C      0.51993  0.41607  0.58303     C
C      0.52057  0.53213  0.22389     C
C      0.52173  0.41327  0.75385     C
C      0.52307  0.53023  0.43846     C
C      0.52537  0.61313  0.26454     C
C      0.52657  0.61333  0.40022     C
C      0.53023  0.52307  0.56154     C
C      0.53213  0.52057  0.77611     C
H       0.5325   0.8342   0.0864     H
O       0.5376  0.30843  0.03591     O
O      0.53923  0.31082  0.96229     O
H       0.5397   0.8384   0.9185     H
C       0.5402   0.7534  0.06747     C
C      0.54155  0.75235   0.9338     C
O      0.54235  0.21101  0.96521     O
O      0.54259  0.21172  0.03441     O
H      0.54297  0.51783  0.20963     H
C      0.54413  0.12512  0.60047     C
O      0.54434  0.20902  0.70146     O
O      0.54505  0.20926  0.63226     O
H      0.54527  0.51203  0.45063     H
C      0.54653  0.12647  0.73414     C
C      0.54983  0.04687  0.56205     C
H      0.55167  0.65243  0.27703     H
H      0.55187  0.65123  0.38683     H
C      0.55283  0.05087  0.77478     C
C       0.5582   0.8116  0.08718     C
C      0.55907  0.58853   0.2448     C
C      0.56027  0.96753  0.20334     C
In     0.56131  0.28944  0.66705    In
O      0.56174  0.35585  0.70438     O
O       0.5625  0.35824  0.63076     O
C      0.56277  0.59163  0.42028     C
C       0.5628   0.8134  0.91636     C
C      0.56328  0.96874  0.46008     C
O       0.5639  0.98406  0.81553     O
H       0.5659   0.6809   0.0563     H
O       0.5661  0.96728  0.53097     O
H       0.5673   0.6821   0.9465     H
C       0.5787  0.18617  0.62256     C
C       0.5789   0.7202  0.06879     C
C      0.57973  0.18617  0.71164     C
O      0.57985  0.01594  0.18447     O
C       0.5799     0.72  0.93311     C
C      0.57993  0.45347  0.73414     C
C      0.58098  0.45587  0.60047     C
C      0.58393  0.10387  0.58303     C
C      0.58673  0.10847  0.75385     C
O      0.58784  0.92927  0.46263     O
C      0.58853  0.55907   0.7552     C
O      0.59144  0.93189   0.2047     O
C      0.59163  0.56277  0.57972     C
C      0.59273  0.03247  0.79666     C
C      0.59453  0.03126  0.53992     C
O      0.59594  0.92117   0.8707     O
O      0.59856  0.92477  0.12863     O
O      0.59883  0.03272  0.46903     O
In      0.6052  0.37722  0.99961    In
C      0.60643  0.42027  0.71164     C
C      0.60746   0.4213  0.62256     C
C      0.61313  0.52537  0.73546     C
C      0.61333  0.52657  0.59978     C
C       0.6158   0.8353  0.10811     C
C       0.6198   0.8363  0.89538     C
In     0.62278  0.22798  0.99961    In
C      0.62603  0.63697  0.57812     C
C      0.62703  0.63617  0.75582     C
H      0.63203  0.12697  0.58517     H
H      0.63343  0.78807  0.78397     H
O      0.63394  0.89944  0.80237     O
C       0.6342   0.8936  0.12999     C
H      0.63503  0.13417  0.75307     H
C      0.63541  0.89661  0.87325     C
C      0.63617  0.62703  0.24418     C
C      0.63697  0.62603  0.42188     C
C       0.6372   0.7448  0.08853     C
C       0.6378   0.7417  0.91305     C
H      0.64153  0.79037  0.54297     H
O      0.64176  0.20427  0.63076     O
O      0.64415   0.2059  0.70438     O
O      0.65072  0.89724  0.51781     O
H      0.65123  0.55187  0.61317     H
H      0.65243  0.55167  0.72297     H
C       0.6551   0.8012  0.10944     C
C      0.65573  0.69637  0.75522     C
C      0.65753  0.69717  0.57752     C
O      0.65856  0.07073  0.53737     O
C       0.6595   0.8031  0.89487     C
O      0.65954  0.06811   0.7953     O
O       0.6642  0.45495  0.63226     O
O      0.66467  0.45566  0.70146     O
In     0.66516      0.0      0.5    In
O      0.66667  0.33333    9e-05     O
O      0.66667  0.33333  0.66658     O
In     0.66667   0.9985  0.83333    In
In     0.66817   0.0015  0.16667    In
O      0.66866  0.45765  0.96521     O
O      0.66913  0.45741  0.03441     O
O      0.67379  0.07523  0.87137     O
C      0.67383  0.81027   0.7718     C
O      0.67477  0.07883   0.1293     O
C       0.6758   0.7063  0.08915     C
C       0.6776   0.7073  0.91145     C
C      0.67823  0.81277  0.55723     C
H       0.6809   0.5659   0.9437     H
H       0.6821   0.5673   0.0535     H
O      0.68261  0.91318  0.14886     O
O      0.68918  0.22841  0.96229     O
O      0.69157  0.22917  0.03591     O
H       0.6918   0.8155   0.1237     H
C      0.69553  0.77057  0.75362     C
C      0.69613  0.77427  0.57814     C
C      0.69637  0.65573  0.24478     C
C      0.69717  0.65753  0.42248     C
C      0.69792  0.92787  0.79342     C
H       0.6983   0.1658   0.9136     H
C      0.69913  0.92607  0.53668     C
O      0.69939  0.93216   0.8643     O
H       0.6999   0.8213   0.8827     H
H       0.7013   0.1616   0.0815     H
C       0.7063   0.6758  0.91085     C
C       0.7073   0.6776  0.08855     C
In     0.71056  0.27187  0.66705    In
C      0.71353  0.88317  0.77129     C
C      0.71753  0.88617  0.55856     C
C         0.72   0.5799  0.06689     C
C       0.7202   0.5789  0.93121     C
C      0.72587   0.4805  0.04411     C
C       0.7269   0.4805  0.95503     C
In     0.72813  0.43869  0.66705    In
O      0.73451  0.10056  0.19763     O
O      0.73477  0.99288  0.53804     O
O      0.73739   0.9919  0.79597     O
C       0.7388  0.10339  0.12675     C
C       0.7406   0.1064  0.87001     C
C       0.7417   0.6378  0.08695     C
O       0.7419  0.00712  0.46196     O
C       0.7448   0.6372  0.91147     C
O       0.7455   0.0081  0.20403     O
C       0.7466   0.1884  0.91282     C
C       0.7494   0.1866  0.08364     C
C      0.75235  0.54155   0.0662     C
C       0.7534   0.5402  0.93253     C
C      0.75343  0.80677  0.73356     C
O      0.75349  0.10276  0.48219     O
C       0.7536   0.2731  0.95503     C
C      0.75443  0.80797  0.59788     C
C      0.75463  0.27413  0.04411     C
H      0.76603  0.78147  0.72017     H
O      0.76723  0.06784   0.1357     O
H      0.76743  0.78167  0.61037     H
O      0.76943  0.08682  0.85114     O
C      0.77006  0.07213  0.20658     C
C      0.77053  0.91727  0.75031     C
C      0.77057  0.69553  0.24638     C
O      0.77083   0.4624  0.03591     O
O      0.77159  0.46077  0.96229     O
In     0.77202   0.3948  0.99961    In
C      0.77307  0.07393  0.46332     C
C      0.77427  0.69613  0.42186     C
C      0.77513  0.92007  0.57949     C
C       0.7805   0.1647  0.89189     C
H      0.78147  0.76603  0.27983     H
H      0.78167  0.76743  0.38963     H
C       0.7835   0.1637  0.10462     C
C       0.7868   0.2466  0.93253     C
H      0.78807  0.63343  0.21603     H
O      0.78828  0.33087  0.03441     O
O      0.78899  0.33134  0.96521     O
C       0.7892  0.24765   0.0662     C
H      0.79037  0.64153  0.45703     H
O      0.79074   0.3358  0.63226     O
O      0.79098  0.33533  0.70146     O
C      0.79178  0.87747  0.73287     C
C      0.79313  0.87987   0.5992     C
H      0.79363  0.96537  0.74817     H
O       0.7941  0.43826  0.70438     O
O      0.79573   0.4375  0.63076     O
H      0.80083  0.96837  0.58027     H
C       0.8012   0.6551  0.89056     C
C       0.8031   0.6595  0.10513     C
C      0.80677  0.75343  0.26644     C
C      0.80797  0.75443  0.40212     C
C      0.81027  0.67383   0.2282     C
C       0.8116   0.5582  0.91282     C
C      0.81277  0.67823  0.44277     C
C       0.8134   0.5628  0.08364     C
C      0.81383  0.39254  0.62256     C
C      0.81383  0.39357  0.71164     C
H       0.8155   0.6918   0.8763     H
H       0.8213   0.6999   0.1173     H
H      0.82827  0.03463  0.25183     H
C      0.83037  0.11683  0.22871     C
C      0.83137  0.11383  0.44144     C
H      0.83247  0.03163  0.41973     H
H       0.8342   0.5325   0.9136     H
C       0.8353   0.6158  0.89189     C
C       0.8363   0.6198  0.10462     C
H       0.8384   0.5397   0.0815     H
H      0.84537  0.21193  0.21603     H
H      0.85117  0.20963  0.45703     H
C      0.85283  0.91204  0.71078     C
C      0.85283  0.91307   0.6217     C
C      0.85327  0.08273  0.24969     C
C       0.8539   0.1988  0.89056     C
C      0.85507  0.07993  0.42051     C
C       0.8564   0.1969  0.10513     C
C       0.8587   0.2798  0.93121     C
C       0.8599     0.28  0.06689     C
C      0.86357  0.18973   0.2282     C
C      0.86547  0.18723  0.44277     C
H      0.86583  0.50087  0.75307     H
O      0.87093   0.9751  0.70258     O
O      0.87256  0.97749  0.62896     O
H      0.87303  0.50507  0.58517     H
C      0.87353  0.42007  0.73414     C
C      0.87488  0.41902  0.60047     C
O      0.87568  0.87768  0.63188     O
O      0.87592  0.87839  0.70108     O
H       0.8763   0.1845   0.8763     H
C      0.87747  0.79178  0.26713     C
O      0.87768  0.87568  0.36812     O
O      0.87839  0.87592  0.29892     O
H       0.8786   0.1787   0.1173     H
C      0.87987  0.79313   0.4008     C
C      0.88317  0.71353  0.22871     C
H        0.885   0.3191   0.9437     H
H       0.8852   0.3179   0.0535     H
C      0.88617  0.71753  0.44144     C
C      0.89153  0.47827  0.75385     C
C       0.8924   0.2552  0.91147     C
C       0.8936   0.6342  0.87001     C
In     0.89465  0.95611  0.33372    In
O      0.89508  0.02251  0.37104     O
O      0.89584   0.0249  0.29742     O
C       0.8961   0.2583  0.08695     C
C      0.89613  0.48007  0.58303     C
C      0.89661  0.63541  0.12675     C
O      0.89724  0.65072  0.48219     O
H      0.89923  0.34757  0.72297     H
O      0.89944  0.63394  0.19763     O
H      0.90063  0.34877  0.61317     H
C      0.91204  0.85283  0.28922     C
C      0.91223  0.38687  0.73546     C
C      0.91307  0.85283   0.3783     C
O      0.91318  0.68261  0.85114     O
C      0.91323  0.38667  0.59978     C
C      0.91327  0.12013   0.4008     C
C      0.91432  0.12253  0.26713     C
C      0.91727  0.77053  0.24969     C
C      0.92007  0.77513  0.42051     C
O      0.92117  0.59594   0.1293     O
C      0.92187  0.22573  0.42186     C
O      0.92477  0.59856  0.87137     O
C      0.92497  0.22943  0.24638     C
C      0.92607  0.69913  0.46332     C
C      0.92787  0.69792  0.20658     C
O      0.92927  0.58784  0.53737     O
O      0.93189  0.59144   0.7953     O
O      0.93216  0.69939   0.1357     O
In     0.93854  0.04389  0.66628    In
C      0.93977  0.08693   0.3783     C
C       0.9408  0.08796  0.28922     C
C      0.94647  0.19203  0.40212     C
C      0.94667  0.19323  0.26644     C
C      0.94913  0.50197  0.77478     C
C      0.95313  0.50297  0.56205     C
In     0.95611  0.89465  0.66628    In
C      0.95937  0.30363  0.24478     C
C      0.96037  0.30283  0.42248     C
H      0.96537  0.79363  0.25183     H
H      0.96677  0.45473  0.45063     H
O      0.96728   0.5661  0.46903     O
C      0.96753  0.56027  0.79666     C
H      0.96837  0.80083  0.41973     H
C      0.96874  0.56328  0.53992     C
C       0.9695   0.2937  0.91085     C
C       0.9703   0.2927  0.08855     C
C      0.97053  0.41147   0.7552     C
C      0.97113  0.40837  0.57972     C
H      0.97487  0.45703  0.20963     H
O       0.9751  0.87093  0.29742     O
O      0.97749  0.87256  0.37104     O
O      0.98406   0.5639  0.18447     O
H      0.98457  0.21853  0.27983     H
H      0.98577  0.21833  0.38963     H
C      0.98843  0.46787  0.77611     C
C      0.98907  0.36303  0.42188     C
C      0.99087  0.36383  0.24418     C
O       0.9919  0.73739  0.20403     O
C      0.99283  0.46977  0.56154     C
O      0.99288  0.73477  0.46196     O
O      0.99754  0.12161  0.29892     O
O      0.99801  0.12232  0.36812     O
In      0.9985  0.66667  0.16667    In
