data_I
_chemical_name_common  '/home/zhangsd/repos/MofS-CGCNN/ML/data/WS24/clean_cifs/ERIGUH'
_cell_length_a 10.39810
_cell_length_b 15.17270
_cell_length_c 15.90550
_cell_angle_alpha 79.32600
_cell_angle_beta  77.14000
_cell_angle_gamma 78.03000
_space_group_name_H-M_alt      'P 1'


loop_
_space_group_symop_operation_xyz
  'x, y, z' 

loop_
_atom_site_label
_atom_site_fract_x
_atom_site_fract_y
_atom_site_fract_z
_atom_site_type_symbol
H       0.0028   0.3954   0.5101     H
C       0.0041   0.3016   0.4309     C
H       0.0123   0.3743   0.0699     H
C       0.0148   0.3815    0.454     C
N       0.0174   0.1306   0.2052     N
H       0.0177   0.7488   0.5292     H
N       0.0283   0.3038    0.345     N
C       0.0465   0.4357   0.3782     C
N       0.0562  0.38844  0.31311     N
C       0.0563   0.9293   0.4531     C
C       0.0569   0.4254   0.2217     C
H       0.0594   0.4956   0.3721     H
C       0.0769   0.0855   0.1587     C
C       0.0801   0.0418   0.5352     C
N       0.0804   0.5427  0.79109     N
C       0.0883   0.3451    0.092     C
H        0.096   0.8816   0.4216     H
H       0.0991   0.5519   0.2285     H
H       0.1085   0.4034   0.8133     H
H       0.1145   0.1216   0.6156     H
Ag     0.11485  0.75943  0.72364    Ag
N        0.118  0.35413   0.1683     N
H       0.1223   0.0386   0.0442     H
C        0.135   0.9708   0.4879     C
O       0.1379  0.53314  0.10591     O
C       0.1389   0.5027   0.1945     C
C       0.1466   0.4558      0.8     C
C       0.1599   0.0275   0.0959     C
H       0.1628   0.9647   0.1211     H
C       0.1674    0.092   0.5669     C
N       0.1677   0.6032   0.7694     N
H       0.1724   0.9561   0.6811     H
C       0.1909    0.285   0.0538     C
H       0.1966    0.139   0.5206     H
H       0.1984   0.2638   0.0014     H
H       0.2025   0.6349   0.0192     H
H        0.211   0.9311   0.8529     H
H       0.2173   0.0894   0.3029     H
H        0.227   0.9504   0.4793     H
H         0.23   0.4807   0.2036     H
C       0.2337   0.5935   0.0677     C
H       0.2366   0.0193   0.7221     H
H       0.2388   0.6296   0.1108     H
N       0.2401   0.3052   0.1783     N
H       0.2403   0.8001   0.9696     H
H        0.246   0.4675   0.5423     H
H        0.249   0.0411   0.0811     H
C       0.2526   0.9811   0.6769     C
C        0.265   0.8747   0.8468     C
C       0.2786   0.4595   0.7858     C
C       0.2813   0.2623   0.1092     C
C       0.2813   0.8032   0.9111     C
O       0.2842  0.03269  0.59413     O
C        0.287   0.5515   0.7676     C
H        0.298   0.7195   0.5314     H
N       0.3049  0.79055   0.6235     N
C       0.3066   0.0675   0.3065     C
H       0.3132   0.4583   0.9714     H
H        0.328   0.3762   0.5811     H
C       0.3293   0.4258   0.5339     C
H       0.3301   0.9305   0.2951     H
C       0.3389   0.7614    0.547     C
N       0.3413  0.84873  0.77272     N
C       0.3482   0.3902   0.4508     C
H       0.3491   0.4106   0.7878     H
N       0.3594   0.3612   0.3895     N
Ag     0.36122  0.28053  0.28877    Ag
H       0.3616   0.2218   0.0992     H
H       0.3669   0.5739   0.7555     H
C       0.3684   0.9785   0.3015     C
C       0.3706   0.9046   0.6881     C
C       0.3712   0.5426   0.0358     C
C       0.3718   0.7364   0.8711     C
N       0.3894   0.1181   0.3172     N
C       0.3895   0.4774   0.9822     C
N       0.3929   0.8474  0.61995     N
H       0.4017   0.4568   0.5323     H
H       0.4021   0.6793   0.8999     H
N       0.4101   0.7626   0.7879     N
H       0.4356   0.0744    0.695     H
C       0.4427   0.8003   0.4926     C
H       0.4602   0.1083   0.4773     H
H       0.4742   0.6106   0.0878     H
C       0.4742   0.8553   0.5409     C
H       0.4821    0.791   0.4357     H
C       0.4842   0.5648   0.0525     C
N       0.4923  0.94038  0.68134     N
C       0.4962   0.9761   0.3078     C
C       0.5038   0.0239   0.6922     C
N       0.5077  0.05962  0.31866     N
C       0.5158   0.4352   0.9475     C
H       0.5179    0.209   0.5643     H
C       0.5258   0.1447   0.4591     C
H       0.5258   0.3894   0.9122     H
H       0.5398   0.8917   0.5227     H
C       0.5573   0.1997   0.5074     C
H       0.5644   0.9256    0.305     H
N       0.5899   0.2374   0.2121     N
H       0.5979   0.3207   0.1001     H
H       0.5983   0.5432   0.4677     H
N       0.6071   0.1526  0.38005     N
C       0.6105   0.5226   0.0178     C
N       0.6106   0.8819   0.6828     N
C       0.6282   0.2636   0.1289     C
C       0.6288   0.4574   0.9642     C
C       0.6294   0.0954   0.3119     C
C       0.6316   0.0215   0.6985     C
H       0.6331   0.4261   0.2445     H
H       0.6384   0.7782   0.9008     H
Ag     0.63878  0.71947  0.71123    Ag
N       0.6406   0.6388   0.6105     N
H       0.6509   0.5894   0.2122     H
C       0.6518   0.6098   0.5492     C
N       0.6587  0.15127  0.22728     N
C       0.6611   0.2386    0.453     C
H       0.6699   0.0695   0.7049     H
C       0.6707   0.5742   0.4661     C
H        0.672   0.6238   0.4189     H
H       0.6868   0.5417   0.0286     H
C       0.6934   0.9325   0.6935     C
N       0.6951  0.20945   0.3765     N
H        0.702   0.2805   0.4686     H
C        0.713   0.4485   0.2324     C
O       0.7158  0.96731  0.40587     O
C       0.7187   0.1968   0.0889     C
C       0.7187   0.7377   0.8908     C
C       0.7214   0.5405   0.2142     C
C        0.735   0.1253   0.1532     C
C       0.7474   0.0189   0.3231     C
H        0.751   0.9589   0.9189     H
H        0.754   0.5325   0.4577     H
H       0.7597   0.1999   0.0304     H
N       0.7599   0.6948   0.8217     N
H       0.7612   0.3704   0.8892     H
H       0.7634   0.9807   0.2779     H
C       0.7663   0.4065   0.9323     C
H         0.77   0.5193   0.7964     H
H        0.773   0.0496   0.5207     H
H       0.7827   0.9106   0.6971     H
H        0.789   0.0689   0.1471     H
H       0.7975   0.3651   0.9808     H
H       0.8016   0.7362   0.9986     H
H       0.8034    0.861   0.4794     H
C       0.8091    0.715   0.9462     C
H       0.8276   0.0439   0.3189     H
N       0.8323   0.3968   0.2306     N
C       0.8326    0.908   0.4331     C
H       0.8372   0.0353   0.8789     H
C       0.8401   0.9725   0.9041     C
C       0.8534   0.5442      0.2     C
C       0.8611   0.4973   0.8055     C
O       0.8621  0.46686  0.89409     O
C        0.865   0.0292   0.5121     C
H       0.8777   0.9614   0.9558     H
N        0.882  0.64587   0.8317     N
Ag     0.88515  0.24057  0.27636    Ag
H       0.8855   0.8784   0.3844     H
H       0.8915   0.5966   0.1867     H
H       0.9009   0.4481   0.7715     H
H        0.904   0.1184   0.5784     H
C       0.9117   0.6549    0.908     C
N       0.9196   0.4573  0.20891     N
C       0.9199   0.9582   0.4648     C
C       0.9231   0.9145   0.8413     C
H       0.9406   0.5044   0.6279     H
C       0.9431   0.5746   0.7783     C
C       0.9437   0.0707   0.5469     C
N       0.9438  0.61156  0.68689     N
C       0.9535   0.5643   0.6218     C
N       0.9717   0.6962    0.655     N
H       0.9823   0.2512   0.4708     H
N       0.9826   0.8694   0.7948     N
C       0.9852   0.6185    0.546     C
H       0.9877   0.6257   0.9301     H
C       0.9959   0.6984   0.5691     C
H       0.9972   0.6046   0.4899     H
