data_I
_chemical_name_common  '/home/zhangsd/repos/MofS-CGCNN/ML/data/WS24/clean_cifs/ERIGER'
_cell_length_a 29.90110
_cell_length_b 29.90110
_cell_length_c 11.74150
_cell_angle_alpha 90.00000
_cell_angle_beta  90.00000
_cell_angle_gamma 120.00000
_space_group_name_H-M_alt      'P 1'


loop_
_space_group_symop_operation_xyz
  'x, y, z' 

loop_
_atom_site_label
_atom_site_fract_x
_atom_site_fract_y
_atom_site_fract_z
_atom_site_type_symbol
H       0.0042   0.4641   0.3456     H
H      0.00687  0.87483  0.74643     H
C      0.00793  0.55653   0.5877     C
N      0.00803  0.59096   0.4185     N
N      0.00888  0.19738  0.20187     N
H      0.00923  0.60877  0.80497     H
C      0.00935  0.39682  0.12593     C
C      0.00952  0.15256  0.20027     C
C       0.0105  0.49948   0.8862     C
C      0.01121  0.61784  0.98287     C
H      0.01553  0.24707  0.50517     H
N      0.01589  0.26263  0.33287     N
H        0.018   0.4991   0.8077     H
C      0.01832  0.78597  0.72193     C
Ag     0.01906  0.40819  0.75498    Ag
C      0.02156    0.442   0.5022     C
H      0.02177  0.83333  0.58703     H
N      0.02544  0.39541  0.94023     N
C      0.02611  0.27215  0.44637     C
H       0.0315   0.7452    0.333     H
N      0.03599  0.22763  0.11217     N
N      0.03664   0.3079  0.27357     N
C      0.03761  0.15369  0.10917     C
C      0.04025  0.52746   0.0771     C
H      0.04513  0.12777  0.08567     H
H      0.04703  0.63517  0.99967     H
C      0.04704  0.82924  0.63383     C
C      0.04883  0.72671   0.3162     C
C      0.05042  0.52685   0.9618     C
C      0.05311  0.20074  0.05737     C
C      0.05414  0.32399  0.45927     C
N      0.05539  0.77888  0.79115     N
Ag      0.0558  0.31427  0.08832    Ag
N      0.05683  0.61128  0.45782     N
C      0.05768  0.59087   0.5601     C
H       0.0579   0.7338   0.1383     H
H       0.0581    0.462   0.5061     H
C      0.06004  0.34455  0.35047     C
C      0.06119  0.42063  0.11303     C
N      0.06208  0.70331   0.3931     N
C      0.06349  0.72081   0.2074     C
H      0.06713  0.34257  0.52837     H
H      0.06767  0.82173  0.93763     H
H      0.06927  0.86233  0.67363     H
H      0.07057  0.27523  0.83943     H
N      0.07071  0.41993  0.99953     N
O      0.07277  0.58898  0.22956     O
H      0.07363  0.21227  0.99037     H
Ag     0.07485  0.72246  0.57835    Ag
N      0.07571   0.7504  0.75183     N
C       0.0758  0.80014  0.89343     C
O      0.07769  0.81712  0.56289     O
H      0.07853  0.38037  0.33367     H
H      0.08263  0.95487  0.08567     H
N      0.08374  0.34136  0.91483     N
C      0.08392  0.55629   0.1596     C
H        0.085   0.5453   0.9348     H
H      0.08627  0.43513  0.17183     H
N       0.0866  0.68256   0.3338     N
C      0.08711  0.31177  0.83553     C
C       0.0873  0.69278   0.2203     C
H       0.0874    0.599   0.6043     H
H       0.0881   0.5315    0.208     H
H      0.08917  0.87233  0.45073     H
C      0.10099  0.64835   0.3886     C
H       0.1018   0.6822   0.1615     H
N      0.10571  0.47503  0.77883     N
C      0.10867  0.75377  0.83113     C
H      0.11007  0.24523  0.54133     H
C      0.11014  0.78473  0.92103     C
C      0.11038  0.86096  0.49293     C
N      0.11222  0.39016  0.87551     N
C      0.11554  0.61963   0.3005     C
C      0.11607  0.96239  0.10917     C
H       0.1165   0.5775   0.1174     H
C      0.11807  0.34126  0.74563     C
C      0.11931  0.43432  0.94473     C
H      0.12107  0.52803  0.65703     H
H      0.12137  0.87303  0.26813     H
H      0.12517  0.13203  0.74643     H
H       0.1264   0.5974   0.3403     H
H      0.12657  0.32913  0.67893     H
H      0.12697  0.24833  0.26813     H
H      0.12767  0.21683  0.45073     H
H      0.12777  0.08263  0.91433     H
H      0.12867  0.73723  0.82723     H
H      0.13077  0.79323  0.98773     H
H      0.13203  0.00687  0.25357     H
C       0.1326  0.51904  0.72403     C
C      0.13348  0.39101  0.77323     C
H      0.13517  0.88993  0.54133     H
N      0.13596  0.47817  0.86853     N
H      0.13767  0.20693  0.67363     H
H      0.13863  0.92637  0.99037     H
C      0.13904  0.24941  0.49293     C
C      0.13921  0.84612  0.41043     C
C      0.13982   0.8569  0.29513     C
N       0.1417  0.70266   0.5545     N
C      0.14303  0.99048  0.20027     C
C       0.1431  0.28291  0.29513     C
N      0.14484  0.67555   0.4648     N
H       0.1449   0.6449   0.2537     H
C      0.14762  0.94689  0.05737     C
H      0.14777  0.31533  0.14103     H
O      0.15046   0.4061  0.10377     O
C      0.15256  0.14303  0.79973     C
C      0.15369  0.11607  0.89083     C
C      0.15388  0.29308  0.41043     C
H      0.15507  0.42073  0.72903     H
C      0.15565  0.32283  0.21953     C
C      0.16258  0.44887  0.03283     C
H      0.16577  0.81443  0.52563     H
C      0.16615  0.82231  0.44713     C
H      0.16667  0.18843  0.58703     H
H      0.16667  0.47823  0.07963     H
C      0.16719  0.84435  0.21953     C
H      0.16757  0.85223  0.14103     H
C      0.17076  0.21779  0.63383     C
C      0.17769  0.34383  0.44713     C
H      0.17827  0.24593  0.93763     H
C      0.17946  0.37358  0.25623     C
C      0.17965  0.55059  0.77583     C
C      0.18078  0.52363  0.86693     C
O      0.18288  0.26056  0.56289     O
H      0.18557  0.35133  0.52563     H
C      0.18571  0.71978   0.6093     C
H      0.18843  0.02177  0.41297     H
N      0.18849  0.99112  0.20187     N
C      0.19024  0.38375  0.37153     C
C       0.1903  0.67619   0.4664     C
N      0.19163  0.96401  0.11217     N
C      0.19352  0.80976  0.37153     C
C      0.19413  0.82054  0.25623     C
C       0.1943  0.41725  0.17373     C
H       0.1947   0.7403   0.6763     H
H      0.19567  0.45973  0.99303     H
N      0.19738  0.18849  0.79813     N
H      0.19817  0.77673  0.12533     H
C      0.19986  0.27565  0.89343     C
C      0.20074  0.14762  0.94263     C
H       0.2013   0.6598   0.4131     H
H      0.20257  0.87343  0.67893     H
H      0.20467  0.92943  0.83943     H
H      0.20557  0.58403  0.75233     H
H      0.20567  0.44983  0.21593     H
H      0.20637  0.41833  0.39853     H
H      0.20677  0.33753  0.98773     H
H      0.20693  0.06927  0.32637     H
H      0.20817  0.53463  0.92023     H
H      0.21197  0.79363  0.39853     H
H      0.21227  0.13863  0.00963     H
C      0.21403  0.23234  0.72193     C
C      0.21527   0.3254  0.92103     C
H      0.21683  0.08917  0.54927     H
C      0.21726  0.70428   0.5575     C
C      0.21779  0.04704  0.36617     C
N      0.22112   0.2765  0.79115     N
C      0.22296   0.8057  0.17373     C
C       0.2232  0.88193  0.74563     C
H      0.22327  0.42143  0.12533     H
C      0.22467  0.91289  0.83553     C
N      0.22763  0.19163  0.88783     N
H      0.23153  0.98447  0.50517     H
C      0.23234  0.01832  0.27807     C
H      0.24417  0.79433  0.21593     H
H      0.24523  0.13517  0.45867     H
H      0.24593  0.06767  0.06237     H
C      0.24603  0.97389  0.44637     C
C      0.24623  0.35489  0.83113     C
N      0.24673  0.98411  0.33287     N
H      0.24707  0.23153  0.49483     H
H      0.24833  0.12137  0.73187     H
C      0.24941  0.11038  0.50707     C
N       0.2496   0.3253  0.75183     N
H       0.2507   0.7118    0.581     H
H       0.2548   0.2863    0.333     H
O      0.25565  0.84954  0.10377     O
C      0.25754  0.86652  0.77323     C
N      0.25763  0.91626  0.91483     N
Ag     0.25848   0.9442  0.08832    Ag
H       0.2597   0.4544   0.6763     H
O      0.26056  0.07769  0.43711     O
N      0.26263  0.24673  0.66713     N
H      0.26277  0.39143  0.82723     H
H      0.26407  0.80433  0.99303     H
H      0.26567  0.84493  0.72903     H
H       0.2662   0.3241   0.1383     H
C      0.26984  0.94586  0.45927     C
N      0.27125  0.96336  0.27357     N
C      0.27215  0.24603  0.55363     C
C      0.27329  0.32212   0.3162     C
H      0.27523  0.20467  0.16057     H
H      0.27543  0.93287  0.52837     H
C      0.27565   0.0758  0.10657     C
N       0.2765  0.05539  0.20885     N
Ag     0.27754  0.35239  0.57835    Ag
N      0.27795  0.88778  0.87551     N
C      0.27919  0.34268   0.2074     C
C      0.28022  0.46593   0.6093     C
C      0.28291  0.13982  0.70487     C
C       0.2845  0.93996  0.35047     C
H       0.2863   0.0315    0.667     H
C       0.2863  0.83742  0.03283     C
H       0.2882   0.5389    0.581     H
C      0.29308  0.13921  0.58957     C
C      0.29572  0.51298   0.5575     C
N      0.29669  0.35877   0.3931     N
N      0.29734  0.43904   0.5545     N
H      0.30183  0.92147  0.33367     H
C      0.30722  0.39452   0.2203     C
N       0.3079  0.27125  0.72643     N
H      0.31157  0.83333  0.07963     H
C      0.31177  0.22467  0.16447     C
Ag     0.31427  0.25848  0.91168    Ag
C      0.31502  0.88069  0.94473     C
H      0.31533  0.16757  0.85897     H
N      0.31744  0.40404   0.3338     N
H       0.3178   0.4196   0.1615     H
C      0.32212  0.04883   0.6838     C
C      0.32283  0.16719  0.78047     C
C      0.32381  0.51411   0.4664     C
C      0.32399  0.26984  0.54073     C
H       0.3241   0.0579   0.8617     H
N      0.32445  0.46929   0.4648     N
N       0.3253  0.07571  0.24817     N
C       0.3254  0.11014  0.07897     C
H      0.32647  0.79183  0.92023     H
H      0.32913  0.20257  0.32107     H
H      0.33753  0.13077  0.01227     H
H       0.3402   0.5415   0.4131     H
C      0.34126   0.2232  0.25437     C
N      0.34136  0.25763  0.08517     N
N      0.34222  0.86404  0.86853     N
H      0.34257  0.27543  0.47163     H
C      0.34268  0.06349   0.7926     C
C      0.34286  0.81922  0.86693     C
C      0.34383  0.16615  0.55287     C
C      0.34455   0.2845  0.64953     C
H      0.34887  0.91373  0.17183     H
N      0.34923  0.92929  0.99953     N
H      0.35133  0.16577  0.47437     H
C      0.35165  0.45264   0.3886     C
Ag     0.35239  0.07485  0.42165    Ag
C      0.35489  0.10867  0.16887     C
H       0.3551      0.5   0.2537     H
N      0.35877  0.06208   0.6069     N
C      0.35945  0.93881  0.11303     C
H      0.36483  0.41187  0.99967     H
N      0.36933  0.89429  0.77883     N
N      0.36998  0.97456  0.94023     N
C      0.37095  0.82035  0.77583     C
C      0.37358  0.19413  0.74377     C
H      0.37847  0.79443  0.75233     H
H      0.38037  0.30183  0.66633     H
C      0.38037  0.49591   0.3005     C
C      0.38216  0.39338  0.98287     C
C      0.38375  0.19352  0.62847     C
C      0.38645   0.8674  0.72403     C
C      0.38748  0.99065  0.12593     C
N      0.38872  0.44555  0.45782     N
Ag     0.38913  0.98094  0.75498    Ag
N      0.39016  0.27795  0.12449     N
C      0.39101  0.25754  0.22677     C
H      0.39123  0.40047  0.80497     H
H      0.39143  0.12867  0.17277     H
C      0.39338  0.01121  0.01713     C
C      0.39452   0.0873   0.7797     C
N      0.39541  0.36998  0.05977     N
C      0.39682  0.38748  0.87407     C
H      0.40047  0.00923  0.19503     H
H        0.401   0.4884   0.6043     H
H       0.4026    0.529   0.3403     H
H       0.4039   0.9419   0.5061     H
N      0.40404   0.0866   0.6662     N
O       0.4061  0.25565  0.89623     O
H      0.40697  0.87893  0.65703     H
Ag     0.40819  0.38913  0.24502    Ag
N      0.40904  0.41707   0.4185     N
C      0.40913  0.46681   0.5601     C
O      0.41102  0.48379  0.22956     O
H      0.41187  0.04703  0.00033     H
H      0.41597  0.62153  0.75233     H
N      0.41707  0.00803   0.5815     N
C      0.41725  0.22296  0.82627     C
H      0.41833  0.21197  0.60147     H
H       0.4196   0.1018   0.8385     H
N      0.41993  0.34923  0.00047     N
C      0.42044  0.97844   0.5022     C
C      0.42063  0.35945  0.88697     C
H      0.42073  0.26567  0.27097     H
H      0.42143  0.19817  0.87467     H
H       0.4225    0.539   0.1174     H
C      0.43432  0.31502  0.05527     C
H      0.43513  0.34887  0.82817     H
N      0.43904   0.1417   0.4455     N
C        0.442  0.42044   0.4978     C
H       0.4434   0.9119    0.208     H
C      0.44347   0.4514   0.5877     C
C      0.44371  0.52763   0.1596     C
N      0.44555  0.05683  0.54218     N
C      0.44887   0.2863  0.96717     C
C      0.44941  0.62905  0.77583     C
H      0.44983  0.24417  0.78407     H
C       0.4514  0.00793   0.4123     C
C      0.45264  0.10099   0.6114     C
H       0.4544   0.1947   0.3237     H
H       0.4547   0.5397   0.9348     H
H       0.4585   0.7987   0.4131     H
H      0.45973  0.26407  0.00697     H
H       0.4599   0.9958   0.3456     H
H       0.4603    0.915   0.9348     H
H        0.461   0.8835   0.1174     H
H       0.4611   0.7493    0.581     H
H        0.462   0.4039   0.4939     H
H       0.4641   0.4599   0.6544     H
H      0.46537  0.67353  0.92023     H
C      0.46593  0.18571   0.3907     C
C      0.46681  0.05768   0.4399     C
H       0.4685   0.5566    0.208     H
N      0.46929  0.14484   0.5352     N
H        0.471   0.8736   0.3403     H
H      0.47197  0.59303  0.65703     H
C      0.47237  0.91608   0.1596     C
C      0.47254  0.51279   0.0771     C
C      0.47315  0.52357   0.9618     C
N      0.47503  0.36933  0.22117     N
C      0.47637  0.65714  0.86693     C
C      0.47643  0.94958   0.9618     C
N      0.47817  0.34222  0.13147     N
H      0.47823  0.31157  0.92037     H
C      0.48096  0.61355  0.72403     C
H       0.4811    0.982   0.8077     H
O      0.48379  0.07277  0.77044     O
C      0.48589   0.8097   0.4664     C
C      0.48702  0.78274   0.5575     C
C      0.48721  0.95975   0.0771     C
H       0.4884   0.0874   0.3957     H
C      0.48898   0.9895   0.8862     C
C      0.49591  0.11554   0.6995     C
H       0.4991   0.4811   0.1923     H
C      0.49948  0.48898   0.1138     C
H          0.5   0.1449   0.7463     H
H          0.5   0.8551   0.2537     H
C      0.50052  0.51102   0.8862     C
H       0.5009   0.5189   0.8077     H
C      0.50409  0.88446   0.3005     C
C      0.51102   0.0105   0.1138     C
H       0.5116   0.9126   0.6043     H
C      0.51279  0.04025   0.9229     C
C      0.51298  0.21726   0.4425     C
C      0.51411   0.1903   0.5336     C
O      0.51621  0.92723  0.22956     O
H       0.5189    0.018   0.1923     H
C      0.51904  0.38645  0.27597     C
H      0.52177  0.68843  0.07963     H
N      0.52183  0.65778  0.86853     N
C      0.52357  0.05042   0.0382     C
C      0.52363  0.34286  0.13307     C
N      0.52497  0.63067  0.77883     N
C      0.52685  0.47643   0.0382     C
C      0.52746  0.48721   0.9229     C
C      0.52763  0.08392   0.8404     C
H      0.52803  0.40697  0.34297     H
H        0.529   0.1264   0.6597     H
N      0.53071  0.85516   0.4648     N
H       0.5315   0.4434    0.792     H
C      0.53319  0.94232   0.5601     C
C      0.53407  0.81429   0.6093     C
H      0.53463  0.32647  0.07977     H
H       0.5359   0.5401   0.3456     H
H        0.538   0.5961   0.5061     H
H       0.5389   0.2507    0.419     H
H        0.539   0.1165   0.8826     H
H       0.5397    0.085   0.0652     H
H       0.5401   0.0042   0.6544     H
H      0.54027  0.73593  0.99303     H
H       0.5415   0.2013   0.5869     H
H       0.5453   0.4603   0.0652     H
H       0.5456   0.8053   0.6763     H
C      0.54736  0.89901   0.3886     C
C       0.5486  0.99207   0.5877     C
H      0.55017  0.75583  0.21593     H
C      0.55059  0.37095  0.22417     C
C      0.55113   0.7137  0.03283     C
N      0.55445  0.94317  0.45782     N
C      0.55629  0.47237   0.8404     C
C      0.55653   0.5486   0.4123     C
H       0.5566   0.0881    0.792     H
C        0.558  0.57956   0.5022     C
N      0.56096   0.8583   0.5545     N
H      0.56487  0.65113  0.17183     H
C      0.56568  0.68498  0.94473     C
H       0.5775    0.461   0.8826     H
H      0.57857  0.80183  0.12533     H
H      0.57927  0.73433  0.72903     H
C      0.57937  0.64055  0.11303     C
C      0.57956  0.02156   0.4978     C
N      0.58007  0.65077  0.99953     N
H       0.5804   0.8982   0.1615     H
H      0.58167  0.78803  0.39853     H
C      0.58275  0.77704  0.17373     C
N      0.58293  0.99197   0.4185     N
H      0.58403  0.37847  0.24767     H
H      0.58813  0.95297  0.99967     H
O      0.58898  0.51621  0.77044     O
C      0.59087  0.53319   0.4399     C
N      0.59096  0.58293   0.5815     N
Ag     0.59181  0.61087  0.75498    Ag
H      0.59303  0.12107  0.34297     H
O       0.5939  0.74435  0.10377     O
N      0.59596   0.9134   0.3338     N
H       0.5961   0.0581   0.4939     H
H       0.5974    0.471   0.6597     H
H        0.599   0.5116   0.3957     H
H      0.59953  0.99077  0.80497     H
C      0.60318  0.61252  0.12593     C
N      0.60459  0.63002  0.94023     N
C      0.60548   0.9127   0.2203     C
C      0.60662  0.98879  0.98287     C
H      0.60857  0.87133  0.82723     H
H      0.60877  0.59953  0.19503     H
C      0.60899  0.74246  0.77323     C
N      0.60984  0.72205  0.87551     N
Ag     0.61087  0.01906  0.24502    Ag
N      0.61128  0.55445  0.54218     N
C      0.61252  0.00935  0.87407     C
C      0.61355   0.1326  0.27597     C
C      0.61625  0.80648  0.37153     C
C      0.61784  0.60662  0.01713     C
C      0.61963  0.50409   0.6995     C
H      0.61963  0.69817  0.33367     H
H      0.62153  0.20557  0.24767     H
C      0.62642  0.80587  0.25623     C
C      0.62905  0.17965  0.22417     C
N      0.63002  0.02544  0.05977     N
N      0.63067  0.10571  0.22117     N
H      0.63517  0.58813  0.00033     H
C      0.64055  0.06119  0.88697     C
N      0.64123  0.93792   0.3931     N
H       0.6449      0.5   0.7463     H
C      0.64511  0.89133  0.83113     C
Ag     0.64761  0.92515  0.57835    Ag
C      0.64835  0.54736   0.6114     C
H      0.64867  0.83423  0.52563     H
N      0.65077  0.07071  0.00047     N
H      0.65113  0.08627  0.82817     H
C      0.65545   0.7155  0.35047     C
C      0.65617  0.83385  0.44713     C
C      0.65714  0.18078  0.13307     C
C      0.65732  0.93651   0.2074     C
H      0.65743  0.72457  0.52837     H
N      0.65778  0.13596  0.13147     N
N      0.65864  0.74237  0.91483     N
C      0.65874   0.7768  0.74563     C
H       0.6598   0.4585   0.5869     H
H      0.66247  0.86923  0.98773     H
H      0.67087  0.79743  0.67893     H
H      0.67353  0.20817  0.07977     H
C       0.6746  0.88986  0.92103     C
N       0.6747  0.92429  0.75183     N
N      0.67555  0.53071   0.5352     N
H       0.6759   0.9421   0.1383     H
C      0.67601  0.73016  0.45927     C
C      0.67619  0.48589   0.5336     C
C      0.67717  0.83281  0.21953     C
C      0.67788  0.95117   0.3162     C
H       0.6822   0.5804   0.8385     H
N      0.68256  0.59596   0.6662     N
H      0.68467  0.83243  0.14103     H
C      0.68498  0.11931  0.05527     C
Ag     0.68573  0.74152  0.08832    Ag
C      0.68823  0.77533  0.83553     C
H      0.68843  0.16667  0.92037     H
N       0.6921  0.72875  0.27357     N
C      0.69278  0.60548   0.7797     C
H      0.69817  0.07853  0.66633     H
N      0.70266  0.56096   0.4455     N
N      0.70331  0.64123   0.6069     N
C      0.70428  0.48702   0.4425     C
C      0.70692  0.86079  0.41043     C
H       0.7118   0.4611    0.419     H
C       0.7137  0.16258  0.96717     C
H       0.7137   0.9685    0.333     H
C       0.7155  0.06004  0.64953     C
C      0.71709  0.86018  0.29513     C
C      0.71978  0.53407   0.3907     C
C      0.72081  0.65732   0.7926     C
N      0.72205  0.11222  0.12449     N
Ag     0.72246  0.64761  0.42165    Ag
N       0.7235  0.94461  0.79115     N
C      0.72435   0.9242  0.89343     C
H      0.72457  0.06713  0.47163     H
H      0.72477  0.79533  0.83943     H
C      0.72671  0.67788   0.6838     C
C      0.72785  0.75397  0.44637     C
N      0.72875  0.03664  0.72643     N
C      0.73016  0.05414  0.54073     C
H       0.7338   0.6759   0.8617     H
H      0.73433  0.15507  0.27097     H
H      0.73593  0.19567  0.00697     H
H      0.73723  0.60857  0.17277     H
N      0.73737  0.75327  0.33287     N
O      0.73944  0.92231  0.56289     O
H       0.7403   0.5456   0.3237     H
Ag     0.74152   0.0558  0.91168    Ag
N      0.74237  0.08374  0.08517     N
C      0.74246  0.13348  0.22677     C
O      0.74435  0.15046  0.89623     O
H       0.7452   0.7137    0.667     H
H       0.7493   0.2882    0.419     H
N       0.7504   0.6747  0.24817     N
C      0.75059  0.88962  0.49293     C
H      0.75167  0.87863  0.26813     H
H      0.75293  0.76847  0.50517     H
N      0.75327  0.01589  0.66713     N
C      0.75377  0.64511  0.16887     C
C      0.75397  0.02611  0.55363     C
H      0.75407  0.93233  0.93763     H
H      0.75477  0.86483  0.54133     H
H      0.75583  0.20567  0.78407     H
C      0.76766  0.98168  0.72193     C
H      0.76847  0.01553  0.49483     H
N      0.77237  0.80837  0.11217     N
C      0.77533  0.08711  0.16447     C
H      0.77673  0.57857  0.87467     H
C       0.7768  0.11807  0.25437     C
C      0.77704   0.1943  0.82627     C
N      0.77888   0.7235  0.20885     N
C      0.78221  0.95296  0.63383     C
C      0.78274  0.29572   0.4425     C
H      0.78317  0.91083  0.45073     H
C      0.78473   0.6746  0.07897     C
C      0.78597  0.76766  0.27807     C
H      0.78773  0.86137  0.99037     H
H      0.78803  0.20637  0.60147     H
H      0.79183  0.46537  0.07977     H
H      0.79307  0.93073  0.67363     H
H      0.79323  0.66247  0.01227     H
H      0.79363  0.58167  0.60147     H
H      0.79433  0.55017  0.78407     H
H      0.79443  0.41597  0.24767     H
H      0.79533  0.07057  0.16057     H
H      0.79743  0.12657  0.32107     H
H       0.7987   0.3402   0.5869     H
C      0.79926  0.85238  0.05737     C
C      0.80014  0.72435  0.10657     C
H      0.80183  0.22327  0.87467     H
N      0.80262  0.81151  0.20187     N
H      0.80433  0.54027  0.00697     H
H       0.8053   0.2597   0.3237     H
C       0.8057  0.58275  0.82627     C
C      0.80587  0.17946  0.74377     C
C      0.80648  0.19024  0.62847     C
N      0.80837  0.03599  0.88783     N
C       0.8097  0.32381   0.5336     C
C      0.80976  0.61625  0.62847     C
N      0.81151  0.00888  0.79813     N
H      0.81157  0.97823  0.58703     H
C      0.81429  0.28022   0.3907     C
H      0.81443  0.64867  0.47437     H
O      0.81712  0.73944  0.43711     O
C      0.81922  0.47637  0.13307     C
C      0.82035  0.44941  0.22417     C
C      0.82054  0.62642  0.74377     C
H      0.82173  0.75407  0.06237     H
C      0.82231  0.65617  0.55287     C
C      0.82924  0.78221  0.36617     C
H      0.83243  0.14777  0.85897     H
C      0.83281  0.15565  0.78047     C
H      0.83333  0.52177  0.92037     H
H      0.83333  0.81157  0.41297     H
C      0.83385  0.17769  0.55287     C
H      0.83423  0.18557  0.47437     H
C      0.83742  0.55113  0.96717     C
C      0.84435  0.67717  0.78047     C
H      0.84493  0.57927  0.27097     H
C      0.84612  0.70692  0.58957     C
C      0.84631  0.88393  0.10917     C
C      0.84744  0.85697  0.20027     C
O      0.84954   0.5939  0.89623     O
H      0.85223  0.68467  0.85897     H
C      0.85238  0.05311  0.94263     C
H       0.8551   0.3551   0.7463     H
N      0.85516  0.32445   0.5352     N
C       0.8569  0.71709  0.70487     C
C      0.85697  0.00952  0.79973     C
N       0.8583  0.29734   0.4455     N
C      0.86018   0.1431  0.70487     C
C      0.86079  0.15388  0.58957     C
C      0.86096  0.75059  0.50707     C
H      0.86137  0.07363  0.00963     H
H      0.86233  0.79307  0.32637     H
N      0.86404  0.52183  0.13147     N
H      0.86483  0.11007  0.45867     H
C      0.86652  0.60899  0.22677     C
C       0.8674  0.48096  0.27597     C
H      0.86797  0.99313  0.74643     H
H      0.86923  0.20677  0.01227     H
H      0.87133  0.26277  0.17277     H
H      0.87223  0.91737  0.08567     H
H      0.87233  0.78317  0.54927     H
H      0.87303  0.75167  0.73187     H
H      0.87343  0.67087  0.32107     H
H       0.8736   0.4026   0.6597     H
H      0.87483  0.86797  0.25357     H
H      0.87863  0.12697  0.73187     H
H      0.87893  0.47197  0.34297     H
C      0.88069  0.56568  0.05527     C
C      0.88193  0.65874  0.25437     C
H       0.8835   0.4225   0.8826     H
C      0.88393  0.03761  0.89083     C
C      0.88446  0.38037   0.6995     C
N      0.88778  0.60984  0.12449     N
C      0.88962  0.13904  0.50707     C
C      0.88986  0.21527  0.07897     C
H      0.88993  0.75477  0.45867     H
C      0.89133  0.24623  0.16887     C
N      0.89429  0.52497  0.22117     N
H       0.8982   0.3178   0.8385     H
C      0.89901  0.35165   0.6114     C
H      0.91083  0.12767  0.54927     H
H       0.9119   0.4685    0.792     H
H       0.9126    0.401   0.3957     H
C       0.9127  0.30722   0.7797     C
C      0.91289  0.68823  0.16447     C
N       0.9134  0.31744   0.6662     N
H      0.91373  0.56487  0.82817     H
H        0.915   0.4547   0.0652     H
C      0.91608  0.44371   0.8404     C
N      0.91626  0.65864  0.08517     N
H      0.91737  0.04513  0.91433     H
H      0.92147  0.61963  0.66633     H
O      0.92231  0.18288  0.43711     O
C       0.9242  0.19986  0.10657     C
N      0.92429   0.2496  0.24817     N
Ag     0.92515  0.27754  0.42165    Ag
H      0.92637  0.78773  0.00963     H
O      0.92723  0.41102  0.77044     O
N      0.92929  0.58007  0.00047     N
H      0.92943  0.72477  0.16057     H
H      0.93073  0.13767  0.32637     H
H      0.93233  0.17827  0.06237     H
H      0.93287  0.65743  0.47163     H
C      0.93651  0.27919   0.7926     C
N      0.93792  0.29669   0.6069     N
C      0.93881  0.57937  0.88697     C
C      0.93996  0.65545  0.64953     C
H       0.9419    0.538   0.4939     H
H       0.9421   0.2662   0.8617     H
C      0.94232  0.40913   0.4399     C
N      0.94317  0.38872  0.54218     N
Ag      0.9442  0.68573  0.91168    Ag
N      0.94461  0.22112  0.20885     N
C      0.94586  0.67601  0.54073     C
C      0.94689  0.79926  0.94263     C
C      0.94958  0.47315   0.0382     C
C      0.95117  0.27329   0.6838     C
C      0.95296  0.17076  0.36617     C
H      0.95297  0.36483  0.00033     H
H      0.95487  0.87223  0.91433     H
C      0.95975  0.47254   0.9229     C
C      0.96239  0.84631  0.89083     C
N      0.96336   0.6921  0.72643     N
N      0.96401  0.77237  0.88783     N
H       0.9685   0.2548    0.667     H
C      0.97389  0.72785  0.55363     C
N      0.97456  0.60459  0.05977     N
H      0.97823  0.16667  0.41297     H
C      0.97844    0.558   0.4978     C
Ag     0.98094  0.59181  0.24502    Ag
C      0.98168  0.21403  0.27807     C
H        0.982   0.5009   0.1923     H
N      0.98411  0.73737  0.66713     N
H      0.98447  0.75293  0.49483     H
C      0.98879  0.38216  0.01713     C
C       0.9895  0.50052   0.1138     C
C      0.99048  0.84744  0.79973     C
C      0.99065  0.60318  0.87407     C
H      0.99077  0.39123  0.19503     H
N      0.99112  0.80262  0.79813     N
N      0.99197  0.40904   0.5815     N
C      0.99207  0.44347   0.4123     C
H      0.99313  0.12517  0.25357     H
H       0.9958   0.5359   0.6544     H
