data_I
_chemical_name_common  '/home/zhangsd/repos/MofS-CGCNN/ML/data/WS24/clean_cifs/ERIHIW'
_cell_length_a 13.52200
_cell_length_b 15.37140
_cell_length_c 18.02430
_cell_angle_alpha 114.51900
_cell_angle_beta  90.00000
_cell_angle_gamma 90.00000
_space_group_name_H-M_alt      'P 1'


loop_
_space_group_symop_operation_xyz
  'x, y, z' 

loop_
_atom_site_label
_atom_site_fract_x
_atom_site_fract_y
_atom_site_fract_z
_atom_site_type_symbol
H       0.0038   0.4308   0.3267     H
H        0.004   0.5734   0.9941     H
C       0.0048   0.4782     0.65     C
H       0.0057   0.6573   0.6411     H
C       0.0061   0.7104   0.6269     C
C       0.0108   0.0575   0.1368     C
H       0.0312   0.0109    0.897     H
O       0.0364   0.0043   0.5979     O
H       0.0381   0.6043   0.2955     H
H       0.0393   0.9992   0.1327     H
N       0.0395   0.7064   0.4119     N
O       0.0397   0.4654   0.8904     O
N       0.0454   0.8066   0.5781     N
C       0.0515   0.9256   0.5203     C
C       0.0521   0.1456   0.1738     C
N       0.0567   0.4176   0.5192     N
C       0.0649   0.5413    0.965     C
C       0.0652   0.7287   0.8244     C
N       0.0707   0.7244   0.5822     N
C       0.0736   0.6558   0.3355     C
H        0.079   0.7648   0.7937     H
N       0.0812   0.6499   0.8967     N
H       0.0902   0.9475   0.4845     H
C       0.0992    0.995   0.8862     C
H       0.1009   0.5163   0.9998     H
C       0.1042   0.4832   0.6504     C
C       0.1064   0.8445     0.53     C
N       0.1066   0.7784   0.0512     N
H         0.11   0.9288   0.7568     H
H       0.1146   0.1599   0.2002     H
N        0.116   0.7677    0.446     N
H       0.1225   0.8897    0.158     H
C       0.1306    0.614    0.949     C
N        0.131    0.707   0.8669     N
N       0.1342   0.4455   0.5709     N
C        0.138   0.8245   0.1258     C
C       0.1433   0.9489   0.8076     C
H       0.1456   0.5081   0.6972     H
H       0.1465    0.243   0.7276     H
N       0.1498   0.6916   0.0277     N
C       0.1651   0.6859    0.321     C
N       0.1749   0.0129   0.9458     N
H       0.1886   0.2437   0.8548     H
C       0.1888   0.7596   0.3958     C
H       0.1912   0.1966   0.5868     H
C        0.193    0.773   0.1531     C
C       0.1978   0.6891   0.0908     C
H        0.199   0.2737   0.4984     H
H       0.2026   0.6621    0.272     H
N       0.2042   0.8714    0.563     N
H       0.2091   0.4277   0.8625     H
H       0.2119    0.274   0.3754     H
C       0.2137   0.2353   0.7392     C
H       0.2153   0.3347   0.2664     H
Ag     0.21827  0.64767  0.53805    Ag
H       0.2188   0.0144   0.5978     H
C       0.2196   0.3386   0.3832     C
C       0.2201   0.3717   0.3236     C
H       0.2222   0.7922   0.2054     H
N       0.2263   0.5735   0.9159     N
C        0.229   0.4702   0.3636     C
H       0.2308   0.5127   0.3375     H
H       0.2309   0.6347   0.0909     H
C       0.2321   0.4186   0.5353     C
N       0.2323   0.4158   0.4564     N
N       0.2349   0.4969   0.4441     N
C        0.239   0.2345   0.8156     C
C       0.2464   0.9384   0.8186     C
H       0.2472   0.7972   0.4081     H
C       0.2486   0.9561   0.5924     C
C       0.2515   0.4813   0.8757     C
C       0.2533   0.3173   0.5286     C
C       0.2584   0.2235   0.6029     C
O       0.2615   0.3195    0.609     O
N       0.2659   0.9779    0.904     N
N       0.2684   0.8028   0.5625     N
Ag     0.28125  0.78163  0.92596    Ag
N       0.2831   0.5826   0.6239     N
C       0.2844   0.2251   0.6825     C
H       0.2937     0.91   0.7765     H
H       0.2967    0.913    0.131     H
H       0.3005   0.2613   0.9544     H
N       0.3041   0.6293   0.9212     N
N       0.3049    0.486   0.5877     N
H       0.3057   0.1829   0.5609     H
C       0.3128   0.9548   0.1061     C
H       0.3156    0.293   0.4981     H
N       0.3161   0.9313   0.0253     N
C       0.3333    0.221   0.8335     C
C       0.3362   0.0481   0.1453     C
H       0.3396   0.0836   0.2027     H
C       0.3398   0.9469   0.6129     C
N       0.3416     0.01   0.0147     N
C       0.3483   0.4791   0.8576     C
C       0.3529   0.8494   0.5922     C
C       0.3537   0.2261   0.9159     C
C        0.354   0.0823   0.0888     C
C       0.3565   0.0002   0.9396     C
O       0.3572   0.1293   0.9051     O
H        0.359   0.1502   0.0204     H
C       0.3677   0.6215    0.662     C
H       0.3722    0.146   0.0994     H
H       0.3765   0.6883   0.6928     H
C        0.378   0.5705   0.8845     C
H       0.3816   0.2123   0.3138     H
C       0.3829   0.2091   0.7002     C
H       0.3872   0.9963   0.6368     H
H       0.3879   0.4237   0.8311     H
C       0.3903   0.1083   0.9681     C
C       0.3965   0.4682   0.6048     C
H       0.3966   0.9638   0.4189     H
H       0.4032   0.5634   0.0861     H
C       0.4054   0.2093   0.7737     C
N       0.4078   0.8386   0.8751     N
H       0.4127   0.8206   0.5983     H
H       0.4138   0.5807   0.4557     H
H       0.4162   0.2977   0.1951     H
H       0.4176   0.2585   0.9369     H
N       0.4216   0.9327   0.8934     N
H       0.4271   0.4074    0.588     H
H       0.4295   0.1045   0.3768     H
H       0.4309   0.6158   0.2491     H
H       0.4334   0.1981   0.6606     H
H       0.4344   0.3874   0.1093     H
C        0.437   0.2186    0.348     C
C       0.4384   0.5571   0.6523     C
H       0.4428   0.5901    0.878     H
H        0.443   0.7461   0.3719     H
C       0.4447   0.6768   0.2499     C
C       0.4478   0.7549   0.3229     C
C       0.4576   0.8448   0.3274     C
C       0.4609   0.6843   0.1773     C
H       0.4613    0.501   0.3045     H
C       0.4617   0.9314   0.4071     C
H       0.4631   0.1147   0.9739     H
C       0.4637   0.1605   0.3814     C
C       0.4659   0.8546   0.2539     C
C       0.4674   0.7717   0.1805     C
C       0.4682    0.596   0.0996     C
H       0.4705   0.9161   0.2536     H
H       0.4725   0.2013   0.7853     H
H       0.4733   0.7788   0.1307     H
C       0.4755   0.3062   0.1705     C
H       0.4778   0.9122   0.4517     H
C       0.4794   0.5658   0.4355     C
C       0.4854   0.3552   0.1243     C
H       0.4867   0.0978   0.5061     H
H       0.4877   0.6131   0.0544     H
C       0.4885   0.7901   0.8335     C
H       0.4986    0.723   0.8132     H
H       0.5038   0.5692   0.6733     H
H        0.504   0.4266   0.0059     H
C       0.5048   0.5218     0.35     C
H       0.5057   0.3427   0.3589     H
C       0.5061   0.2896   0.3731     C
C       0.5108   0.9425   0.8632     C
H       0.5312   0.9891    0.103     H
O       0.5364   0.9957   0.4021     O
H       0.5381   0.3957   0.7045     H
H       0.5393   0.0008   0.8673     H
N       0.5395   0.2936   0.5881     N
O       0.5397   0.5346   0.1096     O
N       0.5454   0.1934   0.4219     N
C       0.5515   0.0744   0.4797     C
C       0.5521   0.8544   0.8262     C
N       0.5567   0.5824   0.4808     N
C       0.5649   0.4587    0.035     C
C       0.5652   0.2713   0.1756     C
N       0.5707   0.2756   0.4178     N
C       0.5736   0.3442   0.6645     C
H        0.579   0.2352   0.2063     H
N       0.5812   0.3501   0.1033     N
H       0.5902   0.0525   0.5155     H
C       0.5992    0.005   0.1138     C
H       0.6009   0.4837   0.0002     H
C       0.6042   0.5168   0.3496     C
C       0.6064   0.1555     0.47     C
N       0.6066   0.2216   0.9488     N
H         0.61   0.0712   0.2432     H
H       0.6146   0.8401   0.7998     H
N        0.616   0.2323    0.554     N
H       0.6225   0.1103    0.842     H
C       0.6306    0.386    0.051     C
N        0.631    0.293   0.1331     N
N       0.6342   0.5545   0.4291     N
C        0.638   0.1755   0.8742     C
C       0.6433   0.0511   0.1924     C
H       0.6456   0.4919   0.3028     H
H       0.6465    0.757   0.2724     H
N       0.6498   0.3084   0.9723     N
C       0.6651   0.3141    0.679     C
N       0.6749   0.9871   0.0542     N
H       0.6886   0.7563   0.1452     H
C       0.6888   0.2404   0.6042     C
H       0.6912   0.8034   0.4132     H
C        0.693    0.227   0.8469     C
C       0.6978   0.3109   0.9092     C
H        0.699   0.7263   0.5016     H
H       0.7026   0.3379    0.728     H
N       0.7042   0.1286    0.437     N
H       0.7091   0.5723   0.1375     H
H       0.7119    0.726   0.6246     H
C       0.7137   0.7647   0.2608     C
H       0.7153   0.6653   0.7336     H
Ag     0.71827  0.35233  0.46195    Ag
H       0.7188   0.9856   0.4022     H
C       0.7196   0.6614   0.6168     C
C       0.7201   0.6283   0.6764     C
H       0.7222   0.2078   0.7946     H
N       0.7263   0.4265   0.0841     N
C        0.729   0.5298   0.6364     C
H       0.7308   0.4873   0.6625     H
H       0.7309   0.3653   0.9091     H
C       0.7321   0.5814   0.4647     C
N       0.7323   0.5842   0.5436     N
N       0.7349   0.5031   0.5559     N
C        0.739   0.7655   0.1844     C
C       0.7464   0.0616   0.1814     C
H       0.7472   0.2028   0.5919     H
C       0.7486   0.0439   0.4076     C
C       0.7515   0.5187   0.1243     C
C       0.7533   0.6827   0.4714     C
C       0.7584   0.7765   0.3971     C
O       0.7615   0.6805    0.391     O
N       0.7659   0.0221    0.096     N
N       0.7684   0.1972   0.4375     N
Ag     0.78125  0.21837  0.07404    Ag
N       0.7831   0.4174   0.3761     N
C       0.7844   0.7749   0.3175     C
H       0.7937     0.09   0.2235     H
H       0.7967    0.087    0.869     H
H       0.8005   0.7387   0.0456     H
N       0.8041   0.3707   0.0788     N
N       0.8049    0.514   0.4123     N
H       0.8057   0.8171   0.4391     H
C       0.8128   0.0452   0.8939     C
H       0.8156    0.707   0.5019     H
N       0.8161   0.0687   0.9747     N
C       0.8333    0.779   0.1665     C
C       0.8362   0.9519   0.8547     C
H       0.8396   0.9164   0.7973     H
C       0.8398   0.0531   0.3871     C
N       0.8416     0.99   0.9853     N
C       0.8483   0.5209   0.1424     C
C       0.8529   0.1506   0.4078     C
C       0.8537   0.7739   0.0841     C
C        0.854   0.9177   0.9112     C
C       0.8565   0.9998   0.0604     C
O       0.8572   0.8707   0.0949     O
H        0.859   0.8498   0.9796     H
C       0.8677   0.3785    0.338     C
H       0.8722    0.854   0.9006     H
H       0.8765   0.3117   0.3072     H
C        0.878   0.4295   0.1155     C
H       0.8816   0.7877   0.6862     H
C       0.8829   0.7909   0.2998     C
H       0.8872   0.0037   0.3632     H
H       0.8879   0.5763   0.1689     H
C       0.8903   0.8917   0.0319     C
C       0.8965   0.5318   0.3952     C
H       0.8966   0.0362   0.5811     H
H       0.9032   0.4366   0.9139     H
C       0.9054   0.7907   0.2263     C
N       0.9078   0.1614   0.1249     N
H       0.9127   0.1794   0.4017     H
H       0.9138   0.4193   0.5443     H
H       0.9162   0.7023   0.8049     H
H       0.9176   0.7415   0.0631     H
N       0.9216   0.0673   0.1066     N
H       0.9271   0.5926    0.412     H
H       0.9295   0.8955   0.6232     H
H       0.9309   0.3842   0.7509     H
H       0.9334   0.8019   0.3394     H
H       0.9344   0.6126   0.8907     H
C        0.937   0.7814    0.652     C
C       0.9384   0.4429   0.3477     C
H       0.9428   0.4099    0.122     H
H        0.943   0.2539   0.6281     H
C       0.9447   0.3232   0.7501     C
C       0.9478   0.2451   0.6771     C
C       0.9576   0.1552   0.6726     C
C       0.9609   0.3157   0.8227     C
H       0.9613    0.499   0.6955     H
C       0.9617   0.0686   0.5929     C
H       0.9631   0.8853   0.0261     H
C       0.9637   0.8395   0.6186     C
C       0.9659   0.1454   0.7461     C
C       0.9674   0.2283   0.8195     C
C       0.9682    0.404   0.9004     C
H       0.9705   0.0839   0.7464     H
H       0.9725   0.7987   0.2147     H
H       0.9733   0.2212   0.8693     H
C       0.9755   0.6938   0.8295     C
H       0.9778   0.0878   0.5483     H
C       0.9794   0.4342   0.5645     C
C       0.9854   0.6448   0.8757     C
H       0.9867   0.9022   0.4939     H
H       0.9877   0.3869   0.9456     H
C       0.9885   0.2099   0.1665     C
H       0.9986    0.277   0.1868     H
