data_I
_chemical_name_common  '/home/zhangsd/repos/MofS-CGCNN/ML/data/WS24/clean_cifs/ESIFIX'
_cell_length_a 18.77940
_cell_length_b 18.77940
_cell_length_c 19.12280
_cell_angle_alpha 90.00000
_cell_angle_beta  90.00000
_cell_angle_gamma 120.00000
_space_group_name_H-M_alt      'P 1'


loop_
_space_group_symop_operation_xyz
  'x, y, z' 

loop_
_atom_site_label
_atom_site_fract_x
_atom_site_fract_y
_atom_site_fract_z
_atom_site_type_symbol
Cd     0.00147  0.71851  0.95528    Cd
O       0.0033   0.5933  0.96277     O
N      0.01027  0.37123  0.48141     N
C      0.01043  0.61467  0.45577     C
H        0.013    0.476    0.935     H
N       0.0162   0.4985   0.9005     N
N      0.01673  0.29017  0.92733     N
C       0.0173   0.5686   0.9061     C
H        0.027    0.829    0.812     H
N      0.02763  0.32307  0.81475     N
H        0.028    0.483     0.86     H
C       0.0351   0.6206   0.8427     C
N       0.0379   0.6943  0.85192     N
H        0.043     0.82    0.733     H
N      0.04317  0.39323  0.59399     N
C      0.04607  0.74783  0.17603     C
C       0.0499   0.6142   0.7731     C
Cd     0.05037   0.6652  0.62195    Cd
O       0.0517    0.489  0.76331     O
Cd     0.05184  0.38371  0.71139    Cd
C        0.052   0.7291   0.7891     C
C      0.05247  0.76903  0.10643     C
C       0.0561   0.5513   0.7312     C
N       0.0599   0.6834  0.73934     N
C       0.0613   0.8113   0.7757     C
C      0.06243  0.34377  0.87757     C
N       0.0645   0.5633   0.6641     N
H        0.067    0.525    0.641     H
H      0.07133  0.54567  0.44667     H
O      0.07337  0.74333   0.2961     O
O      0.07667  0.33663  0.37056     O
C      0.08117  0.36843  0.49063     C
C      0.08333  0.60537  0.44237     C
C      0.09807  0.78203  0.23943     C
C      0.10237  0.38323  0.56023     C
N      0.10337  0.83453  0.99743     N
O      0.10397  0.28163  0.09664     O
H      0.11033  0.62367  0.39967     H
C      0.11537  0.35063  0.42723     C
C      0.11537  0.83813  0.06453     C
H        0.121    0.859     0.78     H
H      0.12167  0.30533  0.19333     H
H      0.12467  0.26633  0.97433     H
H      0.12967  0.32033  0.26833     H
H      0.13533  0.63967  0.47867     H
H        0.141    0.262     0.78     H
H      0.14167  0.87533  0.97433     H
H      0.14267  0.79633  0.39833     H
C      0.14463  0.41667  0.89097     C
N      0.14897  0.31713  0.23383     N
H      0.14967  0.78833  0.47333     H
H      0.15333  0.44367  0.93367     H
O      0.15567  0.77063  0.57002     O
C      0.16187  0.27723  0.06453     C
H      0.16233  0.46867  0.85467     H
N      0.16517  0.81563  0.43283     N
N      0.16547  0.26883  0.99743     N
N      0.16787  0.39783  0.66923     N
N      0.16817  0.85103  0.23383     N
H        0.171    0.198    0.812     H
C      0.17147  0.38943  0.60213     C
O      0.17767  0.89603  0.09664     O
H         0.18    0.223    0.733     H
H      0.18367  0.87833  0.19333     H
N      0.18437  0.34953  0.43283     N
C       0.1887     0.25   0.7757     C
H      0.19067  0.87033  0.26833     H
H      0.19167  0.79133  0.69233     H
H      0.19233  0.40467  0.88667     H
H        0.198    0.027    0.188     H
H      0.20367  0.34633  0.39833     H
H      0.20867  0.40033  0.69233     H
H      0.21167  0.36133  0.47333     H
H      0.21233  0.80767  0.88667     H
C      0.21797  0.31603  0.23943     C
C      0.21797  0.82853  0.60213     C
H        0.223    0.043    0.267     H
O      0.22937  0.38503  0.57002     O
N      0.22997  0.83213  0.66923     N
C      0.23097  0.28343  0.10643     C
C      0.23527  0.88463  0.42723     C
C         0.25   0.0613   0.2243     C
C      0.25217  0.29823  0.17603     C
O      0.25667  0.33003   0.2961     O
O      0.25997  0.92333  0.37056     O
H        0.262    0.121     0.22     H
H      0.26633  0.14167  0.02567     H
N      0.26883  0.10337  0.00257     N
C       0.2709   0.3229   0.7891     C
C      0.27203  0.85537  0.89097     C
N      0.27343  0.98327  0.92733     N
C      0.27723  0.11537  0.93547     C
C      0.28087  0.89763  0.56023     C
C      0.28133  0.93757  0.87757     C
Cd     0.28149  0.28296  0.95528    Cd
O      0.28163  0.17767  0.90336     O
Cd     0.28296  0.00147  0.04472    Cd
C      0.28343  0.05247  0.89357     C
C      0.28727  0.91883  0.49063     C
N      0.29017  0.27343  0.07267     N
H      0.29033  0.84667  0.93367     H
N      0.29543  0.97237  0.81475     N
C      0.29823  0.04607  0.82397     C
H      0.30533  0.18367  0.80667     H
N       0.3057   0.3436  0.85192     N
H      0.30633  0.83767  0.85467     H
C      0.31603  0.09807  0.76057     C
N       0.3166   0.3765  0.73934     N
N      0.31713  0.16817  0.76617     N
H      0.32033  0.19067  0.73167     H
C       0.3229    0.052   0.2109     C
N      0.32307  0.29543  0.18525     N
O      0.33003  0.07337   0.7039     O
Cd     0.33186  0.94816  0.71139    Cd
Cd      0.3348  0.38518  0.62195    Cd
O      0.33663  0.25997  0.62944     O
N       0.3436   0.0379  0.14808     N
C      0.34377  0.28133  0.12243     C
H      0.34633  0.14267  0.60167     H
N      0.34953  0.16517  0.56717     N
N      0.35007  0.95683  0.59399     N
C      0.35063  0.23527  0.57277     C
H      0.36033  0.49567  0.47867     H
N      0.36097  0.98973  0.48141     N
H      0.36133  0.14967  0.52667     H
C      0.36843  0.28727  0.50937     C
N      0.37123  0.36097  0.51859     N
H      0.37633  0.48667  0.39967     H
N       0.3765   0.0599  0.26066     N
C       0.3794   0.4145   0.8427     C
C      0.38323  0.28087  0.43977     C
Cd     0.38371  0.33186  0.28861    Cd
O      0.38503  0.15567  0.42998     O
Cd     0.38518  0.05037  0.37805    Cd
C      0.38533  0.39577  0.45577     C
C       0.3858   0.4357   0.7731     C
C      0.38943  0.21797  0.39787     C
N      0.39323  0.35007  0.40601     N
C      0.39463  0.47797  0.44237     C
C      0.39577  0.01043  0.54423     C
N      0.39783  0.22997  0.33077     N
H      0.40033  0.19167  0.30767     H
H      0.40467  0.21233  0.11333     H
O       0.4067     0.41  0.96277     O
O         0.41   0.0033  0.03723     O
C       0.4145   0.0351   0.1573     C
C      0.41667  0.27203  0.10903     C
C       0.4314   0.4487   0.9061     C
C       0.4357   0.0499   0.2269     C
N       0.4367   0.5012   0.6641     N
O       0.4373   0.9483  0.76331     O
H      0.44367  0.29033  0.06633     H
C       0.4487   0.0173   0.0939     C
C       0.4487   0.5048   0.7312     C
H      0.45433  0.52567  0.44667     H
H        0.455    0.972     0.86     H
H        0.458    0.933    0.641     H
H        0.463    0.987    0.935     H
H      0.46867  0.30633  0.14533     H
H      0.47433  0.92867  0.44667     H
H        0.475    0.542    0.641     H
H        0.476    0.463    0.065     H
C      0.47797  0.08333  0.55763     C
N       0.4823   0.9838   0.9005     N
H        0.483    0.455     0.14     H
H      0.48667  0.11033  0.60033     H
O        0.489   0.4373  0.23669     O
C       0.4952   0.9439   0.7312     C
H      0.49567  0.13533  0.52133     H
N       0.4985   0.4823   0.0995     N
N       0.4988   0.9355   0.6641     N
N       0.5012   0.0645   0.3359     N
N       0.5015   0.5177   0.9005     N
H      0.50433  0.86467  0.47867     H
C       0.5048   0.0561   0.2688     C
O        0.511   0.5627  0.76331     O
H      0.51333  0.88967  0.39967     H
H        0.517    0.545     0.86     H
N       0.5177   0.0162   0.0995     N
C      0.52203  0.91667  0.44237     C
H        0.524    0.537    0.935     H
H        0.525    0.458    0.359     H
H      0.52567  0.07133  0.55333     H
H      0.53133  0.69367  0.85467     H
H        0.537    0.013    0.065     H
H        0.542    0.067    0.359     H
H        0.545    0.028     0.14     H
H      0.54567  0.47433  0.55333     H
C       0.5513   0.4952   0.2688     C
C       0.5513   0.9827   0.9061     C
H      0.55633  0.70967  0.93367     H
O       0.5627   0.0517  0.23669     O
N       0.5633   0.4988   0.3359     N
C       0.5643   0.9501   0.7731     C
C       0.5686   0.5513   0.0939     C
C      0.58333  0.72797  0.89097     C
C       0.5855   0.9649   0.8427     C
O         0.59   0.9967  0.96277     O
O       0.5933     0.59  0.03723     O
H      0.59533  0.78767  0.88667     H
H      0.59967  0.80833  0.69233     H
N      0.60217  0.77003  0.66923     N
C      0.60423  0.98957  0.45577     C
C      0.60537  0.52203  0.55763     C
N      0.60677  0.64993  0.59399     N
C      0.61057  0.78203  0.60213     C
C       0.6142   0.5643   0.2269     C
C      0.61467  0.60423  0.54423     C
Cd     0.61482  0.94963  0.62195    Cd
O      0.61497  0.84433  0.57002     O
Cd     0.61629  0.66814  0.71139    Cd
C      0.61677  0.71913  0.56023     C
C       0.6206   0.5855   0.1573     C
N       0.6235   0.9401  0.73934     N
H      0.62367  0.51333  0.60033     H
N      0.62877  0.63903  0.48141     N
C      0.63157  0.71273  0.49063     C
H      0.63867  0.85033  0.47333     H
N      0.63903  0.01027  0.51859     N
H      0.63967  0.50433  0.52133     H
C      0.64937  0.76473  0.42723     C
N      0.64993  0.04317  0.40601     N
N      0.65047  0.83483  0.43283     N
H      0.65367  0.85733  0.39833     H
C      0.65623  0.71867  0.87757     C
N       0.6564   0.9621  0.85192     N
O      0.66337  0.74003  0.37056     O
Cd      0.6652  0.61482  0.37805    Cd
Cd     0.66814  0.05184  0.28861    Cd
O      0.66997  0.92663   0.2961     O
N      0.67693  0.70457  0.81475     N
C       0.6771    0.948   0.7891     C
H      0.67967  0.80933  0.26833     H
N      0.68287  0.83183  0.23383     N
N       0.6834   0.6235  0.26066     N
C      0.68397  0.90193  0.23943     C
H      0.69367  0.16233  0.14533     H
N       0.6943   0.6564  0.14808     N
H      0.69467  0.81633  0.19333     H
C      0.70177  0.95393  0.17603     C
N      0.70457  0.02763  0.18525     N
H      0.70967  0.15333  0.06633     H
N      0.70983  0.72657  0.92733     N
C      0.71273  0.08117  0.50937     C
C      0.71657  0.94753  0.10643     C
Cd     0.71704  0.99853  0.95528    Cd
O      0.71837  0.82233  0.09664     O
Cd     0.71851  0.71704  0.04472    Cd
C      0.71867  0.06243  0.12243     C
C      0.71913  0.10237  0.43977     C
C      0.72277  0.88463  0.06453     C
N      0.72657  0.01673  0.07267     N
C      0.72797  0.14463  0.10903     C
C       0.7291   0.6771   0.2109     C
N      0.73117  0.89663  0.99743     N
H      0.73367  0.85833  0.97433     H
H        0.738    0.879     0.78     H
O      0.74003  0.07667  0.62944     O
O      0.74333  0.66997   0.7039     O
C      0.74783  0.70177  0.82397     C
C         0.75   0.9387   0.7757     C
C      0.76473  0.11537  0.57277     C
C      0.76903  0.71657  0.89357     C
N      0.77003  0.16787  0.33077     N
O      0.77063  0.61497  0.42998     O
H        0.777    0.957    0.733     H
C      0.78203  0.17147  0.39787     C
C      0.78203  0.68397  0.76057     C
H      0.78767  0.19233  0.11333     H
H      0.78833  0.63867  0.52667     H
H      0.79133  0.59967  0.30767     H
H      0.79633  0.65367  0.60167     H
H        0.802    0.973    0.812     H
H      0.80767  0.59533  0.11333     H
H      0.80833  0.20867  0.30767     H
H      0.80933  0.12967  0.73167     H
C       0.8113     0.75   0.2243     C
N      0.81563  0.65047  0.56717     N
H      0.81633  0.12167  0.80667     H
H         0.82    0.777    0.267     H
O      0.82233  0.10397  0.90336     O
C      0.82853  0.61057  0.39787     C
H        0.829    0.802    0.188     H
N      0.83183  0.14897  0.76617     N
N      0.83213  0.60217  0.33077     N
N      0.83453  0.73117  0.00257     N
N      0.83483  0.18437  0.56717     N
H      0.83767  0.53133  0.14533     H
C      0.83813  0.72277  0.93547     C
O      0.84433  0.22937  0.42998     O
H      0.84667  0.55633  0.06633     H
H      0.85033  0.21167  0.52667     H
N      0.85103  0.68287  0.76617     N
C      0.85537  0.58333  0.10903     C
H      0.85733  0.20367  0.60167     H
H      0.85833  0.12467  0.02567     H
H        0.859    0.738     0.22     H
H      0.86467  0.36033  0.52133     H
H      0.87033  0.67967  0.73167     H
H      0.87533  0.73367  0.02567     H
H      0.87833  0.69467  0.80667     H
H        0.879    0.141     0.22     H
C      0.88463  0.16187  0.93547     C
C      0.88463  0.64937  0.57277     C
H      0.88967  0.37633  0.60033     H
O      0.89603  0.71837  0.90336     O
N      0.89663  0.16547  0.00257     N
C      0.89763  0.61677  0.43977     C
C      0.90193  0.21797  0.76057     C
C      0.91667  0.39463  0.55763     C
C      0.91883  0.63157  0.50937     C
O      0.92333  0.66337  0.62944     O
O      0.92663  0.25667   0.7039     O
H      0.92867  0.45433  0.55333     H
H        0.933    0.475    0.359     H
N       0.9355   0.4367   0.3359     N
C      0.93757  0.65623  0.12243     C
C       0.9387   0.1887   0.2243     C
N       0.9401   0.3166  0.26066     N
C       0.9439   0.4487   0.2688     C
C      0.94753  0.23097  0.89357     C
C        0.948   0.2709   0.2109     C
Cd     0.94816  0.61629  0.28861    Cd
O       0.9483    0.511  0.23669     O
Cd     0.94963   0.3348  0.37805    Cd
C       0.9501   0.3858   0.2269     C
C      0.95393  0.25217  0.82397     C
N      0.95683  0.60677  0.40601     N
H        0.957     0.18    0.267     H
N       0.9621   0.3057  0.14808     N
C       0.9649   0.3794   0.1573     C
H        0.972    0.517     0.14     H
N      0.97237  0.67693  0.18525     N
H        0.973    0.171    0.188     H
C       0.9827   0.4314   0.0939     C
N      0.98327  0.70983  0.07267     N
N       0.9838   0.5015   0.0995     N
H        0.987    0.524    0.065     H
C      0.98957  0.38533  0.54423     C
N      0.98973  0.62877  0.51859     N
O       0.9967   0.4067  0.03723     O
Cd     0.99853  0.28149  0.04472    Cd
