data_I
_chemical_name_common  '/home/zhangsd/repos/MofS-CGCNN/ML/data/WS24/clean_cifs/ESIGES'
_cell_length_a 27.58100
_cell_length_b  9.11140
_cell_length_c  9.97910
_cell_angle_alpha 90.00000
_cell_angle_beta  92.21300
_cell_angle_gamma 90.00000
_space_group_name_H-M_alt      'P 1'


loop_
_space_group_symop_operation_xyz
  'x, y, z' 

loop_
_atom_site_label
_atom_site_fract_x
_atom_site_fract_y
_atom_site_fract_z
_atom_site_type_symbol
O      0.01629   0.5152   0.1715     O
O      0.01629   0.9848   0.6715     O
O      0.02173   0.6431   0.6613     O
O      0.02173   0.8569   0.1613     O
P      0.02656  0.58033  0.80462     P
P      0.02656  0.91967  0.30462     P
O      0.03257   0.7031   0.9062     O
O      0.03257   0.7969   0.4062     O
Zn     0.04948  0.67781  0.09622    Zn
Zn     0.04948  0.82219  0.59622    Zn
O      0.07366   0.0191   0.3126     O
O      0.07366   0.4809   0.8126     O
H       0.0987   0.5349   0.7988     H
H       0.0987   0.9651   0.2988     H
O       0.1183   0.6325   0.1196     O
O       0.1183   0.8675   0.6196     O
O      0.14311   0.6946   0.7639     O
O      0.14311   0.8054   0.2639     O
C      0.15033   0.7044   0.1842     C
C      0.15033   0.7956   0.6842     C
H       0.1794    0.524   0.9826     H
H       0.1794    0.976   0.4826     H
C      0.20194   0.6645   0.1534     C
C      0.20194   0.8355   0.6534     C
C      0.21258     0.57   0.0502     C
C      0.21258     0.93   0.5502     C
H       0.2338   0.6896   0.8154     H
H       0.2338   0.8104   0.3154     H
C      0.23998    0.732   0.2279     C
C      0.23998    0.768   0.7279     C
C      0.26042   0.5456   0.0178     C
C      0.26042   0.9544   0.5178     C
H       0.2697   0.0164   0.4376     H
H       0.2697   0.4836   0.9376     H
C      0.28757   0.7088   0.1947     C
C      0.28757   0.7912   0.6947     C
C      0.29798   0.6191   0.0859     C
C      0.29798   0.8809   0.5859     C
H       0.3289   0.7424     0.72     H
H       0.3289   0.7576     0.22     H
C      0.34958   0.6056   0.0402     C
C      0.34958   0.8944   0.5402     C
O      0.35651   0.5408   0.9341     O
O      0.35651   0.9592   0.4341     O
O      0.38192   0.6657    0.116     O
O      0.38192   0.8343    0.616     O
H       0.4113   0.0024   0.3528     H
H       0.4113   0.4976   0.8528     H
O      0.43518   0.0404   0.3111     O
O      0.43518   0.4596   0.8111     O
Zn      0.4516  0.67815  0.08807    Zn
Zn      0.4516  0.82185  0.58807    Zn
O      0.46721   0.6974   0.9024     O
O      0.46721   0.8026   0.4024     O
O      0.47579   0.5019   0.1734     O
O      0.47579   0.9981   0.6734     O
P      0.47661  0.57746  0.80108     P
P      0.47661  0.92254  0.30108     P
O      0.47678   0.6379   0.6591     O
O      0.47678   0.8621   0.1591     O
O      0.52322   0.1379   0.8409     O
O      0.52322   0.3621   0.3409     O
P      0.52339  0.07746  0.69892     P
P      0.52339  0.42254  0.19892     P
O      0.52421   0.0019   0.3266     O
O      0.52421   0.4981   0.8266     O
O      0.53279   0.1974   0.5976     O
O      0.53279   0.3026   0.0976     O
Zn      0.5484  0.17815  0.41193    Zn
Zn      0.5484  0.32185  0.91193    Zn
O      0.56482   0.5404   0.1889     O
O      0.56482   0.9596   0.6889     O
H       0.5887   0.5024   0.1472     H
H       0.5887   0.9976   0.6472     H
O      0.61808   0.1657    0.384     O
O      0.61808   0.3343    0.884     O
O      0.64349   0.0408   0.5659     O
O      0.64349   0.4592   0.0659     O
C      0.65042   0.1056   0.4598     C
C      0.65042   0.3944   0.9598     C
H       0.6711   0.2424     0.78     H
H       0.6711   0.2576     0.28     H
C      0.70202   0.1191   0.4141     C
C      0.70202   0.3809   0.9141     C
C      0.71243   0.2088   0.3053     C
C      0.71243   0.2912   0.8053     C
H       0.7303   0.5164   0.0624     H
H       0.7303   0.9836   0.5624     H
C      0.73958   0.0456   0.4822     C
C      0.73958   0.4544   0.9822     C
C      0.76002    0.232   0.2721     C
C      0.76002    0.268   0.7721     C
H       0.7662   0.1896   0.6846     H
H       0.7662   0.3104   0.1846     H
C      0.78742     0.07   0.4498     C
C      0.78742     0.43   0.9498     C
C      0.79806   0.1645   0.3466     C
C      0.79806   0.3355   0.8466     C
H       0.8206    0.024   0.5174     H
H       0.8206    0.476   0.0174     H
C      0.84967   0.2044   0.3158     C
C      0.84967   0.2956   0.8158     C
O      0.85689   0.1946   0.7361     O
O      0.85689   0.3054   0.2361     O
O       0.8817   0.1325   0.3804     O
O       0.8817   0.3675   0.8804     O
H       0.9013   0.0349   0.7012     H
H       0.9013   0.4651   0.2012     H
O      0.92634   0.5191   0.1874     O
O      0.92634   0.9809   0.6874     O
Zn     0.95052  0.17781  0.40378    Zn
Zn     0.95052  0.32219  0.90378    Zn
O      0.96743   0.2031   0.5938     O
O      0.96743   0.2969   0.0938     O
P      0.97344  0.08033  0.69538     P
P      0.97344  0.41967  0.19538     P
O      0.97827   0.1431   0.8387     O
O      0.97827   0.3569   0.3387     O
O      0.98371   0.0152   0.3285     O
O      0.98371   0.4848   0.8285     O
