data_I
_chemical_name_common  '/home/zhangsd/repos/MofS-CGCNN/ML/data/WS24/clean_cifs/EWESEF'
_cell_length_a 21.77090
_cell_length_b 21.77090
_cell_length_c 21.77090
_cell_angle_alpha 60.00000
_cell_angle_beta  60.00000
_cell_angle_gamma 60.00000
_space_group_name_H-M_alt      'P 1'


loop_
_space_group_symop_operation_xyz
  'x, y, z' 

loop_
_atom_site_label
_atom_site_fract_x
_atom_site_fract_y
_atom_site_fract_z
_atom_site_type_symbol
P          0.0      0.0      0.0     P
O          0.0      0.0  0.76142     O
W          0.0  0.16182      0.0     W
W          0.0  0.16182  0.83818     W
O          0.0  0.23858      0.0     O
O          0.0  0.23858  0.76142     O
Cl         0.0      0.5      0.0    Cl
Cl         0.0      0.5      0.5    Cl
O          0.0  0.76142  0.23858     O
W          0.0  0.83818      0.0     W
W          0.0  0.83818  0.16182     W
W          0.0      1.0  0.16182     W
O          0.0      1.0  0.23858     O
Cl         0.0      1.0      0.5    Cl
W          0.0      1.0  0.83818     W
O      0.00634  0.40854  0.68136     O
O      0.00634  0.40854  0.90376     O
O      0.00634  0.68136  0.40854     O
O      0.00634  0.68136  0.90376     O
O      0.00634  0.90376  0.40854     O
O      0.00634  0.90376  0.68136     O
H       0.0103   0.1951   0.1951     H
H       0.0103   0.1951   0.5995     H
H       0.0103   0.5995   0.1951     H
O       0.0183   0.1879   0.8969     O
O       0.0183   0.8969   0.1879     O
O       0.0183   0.8969   0.8969     O
O       0.0307   0.0307   0.0307     O
O       0.0307   0.0307   0.9079     O
O       0.0307   0.9079   0.0307     O
C      0.05843  0.05843  0.28811     C
C      0.05843  0.05843  0.59503     C
C      0.05843  0.28811  0.05843     C
C      0.05843  0.28811  0.59503     C
C      0.05843  0.59503  0.05843     C
C      0.05843  0.59503  0.28811     C
C      0.05951  0.17033  0.17033     C
C      0.05951  0.17033  0.59983     C
C      0.05951  0.59983  0.17033     C
Cu    0.082116 0.417256 0.582744    Cu
Cu    0.082116 0.417256 0.917884    Cu
Cu    0.082116 0.582744 0.417256    Cu
Cu    0.082116 0.582744 0.917884    Cu
Cu    0.082116 0.917884 0.417256    Cu
Cu    0.082116 0.917884 0.582744    Cu
O       0.0921  0.49318  0.59612     O
O       0.0921  0.49318   0.8186     O
O       0.0921  0.59612  0.49318     O
O       0.0921  0.59612   0.8186     O
O       0.0921   0.8186  0.49318     O
O       0.0921   0.8186  0.59612     O
O       0.0921   0.9693   0.9693     O
C      0.09457  0.55843  0.55843     C
C      0.09457  0.55843  0.78857     C
C      0.09457  0.78857  0.55843     C
O      0.09624  0.31864  0.59146     O
O      0.09624  0.31864  0.99366     O
O      0.09624  0.59146  0.31864     O
O      0.09624  0.59146  0.99366     O
O      0.09624  0.99366  0.31864     O
O      0.09624  0.99366  0.59146     O
C       0.0965   0.0965  0.20686     C
C       0.0965   0.0965  0.60014     C
C       0.0965  0.20686   0.0965     C
C       0.0965  0.20686  0.60014     C
C       0.0965  0.60014   0.0965     C
C       0.0965  0.60014  0.20686     C
C      0.09869  0.59689  0.59689     C
C      0.09869  0.59689  0.70753     C
C      0.09869  0.70753  0.59689     C
C      0.09898  0.55998  0.67052     C
C      0.09898  0.67052  0.55998     C
C      0.09898  0.67052  0.67052     C
H       0.0993   0.5105   0.6951     H
H       0.0993   0.6951   0.5105     H
H       0.0993   0.6951   0.6951     H
O       0.1031   0.1031   0.8121     O
O       0.1031   0.1031   0.9817     O
O       0.1031   0.8121   0.1031     O
O       0.1031   0.8121   0.9817     O
O       0.1031   0.9817   0.1031     O
O       0.1031   0.9817   0.8121     O
W      0.16182      0.0  0.83818     W
W      0.16182      0.0      1.0     W
W      0.16182  0.83818      1.0     W
C      0.17033  0.05951  0.17033     C
C      0.17033  0.05951  0.59983     C
C      0.17033  0.17033  0.05951     C
C      0.17033  0.17033  0.59983     C
C      0.17033  0.59983  0.05951     C
C      0.17033  0.59983  0.17033     C
O       0.1814  0.40388  0.50682     O
O       0.1814  0.40388   0.9079     O
O       0.1814  0.50682  0.40388     O
O       0.1814  0.50682   0.9079     O
O       0.1814   0.9079  0.40388     O
O       0.1814   0.9079  0.50682     O
O       0.1879   0.0183   0.8969     O
O       0.1879   0.8969   0.0183     O
O       0.1879   0.8969   0.8969     O
H       0.1951   0.0103   0.1951     H
H       0.1951   0.0103   0.5995     H
H       0.1951   0.1951   0.0103     H
H       0.1951   0.1951   0.5995     H
H       0.1951   0.5995   0.0103     H
H       0.1951   0.5995   0.1951     H
C      0.20686   0.0965   0.0965     C
C      0.20686   0.0965  0.60014     C
C      0.20686  0.60014   0.0965     C
C      0.21143  0.44157  0.44157     C
C      0.21143  0.44157  0.90543     C
C      0.21143  0.90543  0.44157     C
O      0.23858      0.0  0.76142     O
O      0.23858  0.76142      1.0     O
O      0.23858      1.0      1.0     O
C      0.28811  0.05843  0.05843     C
C      0.28811  0.05843  0.59503     C
C      0.28811  0.59503  0.05843     C
C      0.29247  0.40311  0.40311     C
C      0.29247  0.40311  0.90131     C
C      0.29247  0.90131  0.40311     C
H       0.3049   0.3049   0.4895     H
H       0.3049   0.3049   0.9007     H
H       0.3049   0.4895   0.3049     H
H       0.3049   0.4895   0.9007     H
H       0.3049   0.9007   0.3049     H
H       0.3049   0.9007   0.4895     H
O      0.31864  0.09624  0.59146     O
O      0.31864  0.09624  0.99366     O
O      0.31864  0.59146  0.09624     O
O      0.31864  0.59146  0.99366     O
O      0.31864  0.99366  0.09624     O
O      0.31864  0.99366  0.59146     O
C      0.32948  0.32948  0.44002     C
C      0.32948  0.32948  0.90102     C
C      0.32948  0.44002  0.32948     C
C      0.32948  0.44002  0.90102     C
C      0.32948  0.90102  0.32948     C
C      0.32948  0.90102  0.44002     C
C      0.39986  0.79314   0.9035     C
C      0.39986   0.9035  0.79314     C
C      0.39986   0.9035   0.9035     C
C      0.40017  0.82967  0.82967     C
C      0.40017  0.82967  0.94049     C
C      0.40017  0.94049  0.82967     C
H       0.4005   0.8049   0.8049     H
H       0.4005   0.8049   0.9897     H
H       0.4005   0.9897   0.8049     H
C      0.40311  0.29247  0.40311     C
C      0.40311  0.29247  0.90131     C
C      0.40311  0.40311  0.29247     C
C      0.40311  0.40311  0.90131     C
C      0.40311  0.90131  0.29247     C
C      0.40311  0.90131  0.40311     C
O      0.40388   0.1814  0.50682     O
O      0.40388   0.1814   0.9079     O
O      0.40388  0.50682   0.1814     O
O      0.40388  0.50682   0.9079     O
O      0.40388   0.9079   0.1814     O
O      0.40388   0.9079  0.50682     O
C      0.40497  0.71189  0.94157     C
C      0.40497  0.94157  0.71189     C
C      0.40497  0.94157  0.94157     C
O      0.40854  0.00634  0.68136     O
O      0.40854  0.00634  0.90376     O
O      0.40854  0.68136  0.00634     O
O      0.40854  0.68136  0.90376     O
O      0.40854  0.90376  0.00634     O
O      0.40854  0.90376  0.68136     O
Cu    0.417256 0.082116 0.582744    Cu
Cu    0.417256 0.082116 0.917884    Cu
Cu    0.417256 0.582744 0.082116    Cu
Cu    0.417256 0.582744 0.917884    Cu
Cu    0.417256 0.917884 0.082116    Cu
Cu    0.417256 0.917884 0.582744    Cu
C      0.44002  0.32948  0.32948     C
C      0.44002  0.32948  0.90102     C
C      0.44002  0.90102  0.32948     C
C      0.44157  0.21143  0.44157     C
C      0.44157  0.21143  0.90543     C
C      0.44157  0.44157  0.21143     C
C      0.44157  0.44157  0.90543     C
C      0.44157  0.90543  0.21143     C
C      0.44157  0.90543  0.44157     C
H       0.4895   0.3049   0.3049     H
H       0.4895   0.3049   0.9007     H
H       0.4895   0.9007   0.3049     H
O      0.49318   0.0921  0.59612     O
O      0.49318   0.0921   0.8186     O
O      0.49318  0.59612   0.0921     O
O      0.49318  0.59612   0.8186     O
O      0.49318   0.8186   0.0921     O
O      0.49318   0.8186  0.59612     O
Cl         0.5      0.0      0.5    Cl
Cl         0.5      0.0      1.0    Cl
Cl         0.5      0.5      0.0    Cl
O      0.50682   0.1814  0.40388     O
O      0.50682   0.1814   0.9079     O
O      0.50682  0.40388   0.1814     O
O      0.50682  0.40388   0.9079     O
O      0.50682   0.9079   0.1814     O
O      0.50682   0.9079  0.40388     O
H       0.5105   0.0993   0.6951     H
H       0.5105   0.6951   0.0993     H
H       0.5105   0.6951   0.6951     H
C      0.55843  0.09457  0.55843     C
C      0.55843  0.09457  0.78857     C
C      0.55843  0.55843  0.09457     C
C      0.55843  0.55843  0.78857     C
C      0.55843  0.78857  0.09457     C
C      0.55843  0.78857  0.55843     C
C      0.55998  0.09898  0.67052     C
C      0.55998  0.67052  0.09898     C
C      0.55998  0.67052  0.67052     C
Cu    0.582744 0.082116 0.417256    Cu
Cu    0.582744 0.082116 0.917884    Cu
Cu    0.582744 0.417256 0.082116    Cu
Cu    0.582744 0.417256 0.917884    Cu
Cu    0.582744 0.917884 0.082116    Cu
Cu    0.582744 0.917884 0.417256    Cu
O      0.59146  0.09624  0.31864     O
O      0.59146  0.09624  0.99366     O
O      0.59146  0.31864  0.09624     O
O      0.59146  0.31864  0.99366     O
O      0.59146  0.99366  0.09624     O
O      0.59146  0.99366  0.31864     O
C      0.59503  0.05843  0.05843     C
C      0.59503  0.05843  0.28811     C
C      0.59503  0.28811  0.05843     C
O      0.59612   0.0921  0.49318     O
O      0.59612   0.0921   0.8186     O
O      0.59612  0.49318   0.0921     O
O      0.59612  0.49318   0.8186     O
O      0.59612   0.8186   0.0921     O
O      0.59612   0.8186  0.49318     O
C      0.59689  0.09869  0.59689     C
C      0.59689  0.09869  0.70753     C
C      0.59689  0.59689  0.09869     C
C      0.59689  0.59689  0.70753     C
C      0.59689  0.70753  0.09869     C
C      0.59689  0.70753  0.59689     C
H       0.5995   0.0103   0.1951     H
H       0.5995   0.1951   0.0103     H
H       0.5995   0.1951   0.1951     H
C      0.59983  0.05951  0.17033     C
C      0.59983  0.17033  0.05951     C
C      0.59983  0.17033  0.17033     C
C      0.60014   0.0965   0.0965     C
C      0.60014   0.0965  0.20686     C
C      0.60014  0.20686   0.0965     C
C      0.67052  0.09898  0.55998     C
C      0.67052  0.09898  0.67052     C
C      0.67052  0.55998  0.09898     C
C      0.67052  0.55998  0.67052     C
C      0.67052  0.67052  0.09898     C
C      0.67052  0.67052  0.55998     C
O      0.68136  0.00634  0.40854     O
O      0.68136  0.00634  0.90376     O
O      0.68136  0.40854  0.00634     O
O      0.68136  0.40854  0.90376     O
O      0.68136  0.90376  0.00634     O
O      0.68136  0.90376  0.40854     O
H       0.6951   0.0993   0.5105     H
H       0.6951   0.0993   0.6951     H
H       0.6951   0.5105   0.0993     H
H       0.6951   0.5105   0.6951     H
H       0.6951   0.6951   0.0993     H
H       0.6951   0.6951   0.5105     H
C      0.70753  0.09869  0.59689     C
C      0.70753  0.59689  0.09869     C
C      0.70753  0.59689  0.59689     C
C      0.71189  0.40497  0.94157     C
C      0.71189  0.94157  0.40497     C
C      0.71189  0.94157  0.94157     C
O      0.76142      0.0      0.0     O
O      0.76142      0.0  0.23858     O
O      0.76142  0.23858      1.0     O
C      0.78857  0.09457  0.55843     C
C      0.78857  0.55843  0.09457     C
C      0.78857  0.55843  0.55843     C
C      0.79314  0.39986   0.9035     C
C      0.79314   0.9035  0.39986     C
C      0.79314   0.9035   0.9035     C
H       0.8049   0.4005   0.8049     H
H       0.8049   0.4005   0.9897     H
H       0.8049   0.8049   0.4005     H
H       0.8049   0.8049   0.9897     H
H       0.8049   0.9897   0.4005     H
H       0.8049   0.9897   0.8049     H
O       0.8121   0.1031   0.1031     O
O       0.8121   0.1031   0.9817     O
O       0.8121   0.9817   0.1031     O
O       0.8186   0.0921  0.49318     O
O       0.8186   0.0921  0.59612     O
O       0.8186  0.49318   0.0921     O
O       0.8186  0.49318  0.59612     O
O       0.8186  0.59612   0.0921     O
O       0.8186  0.59612  0.49318     O
C      0.82967  0.40017  0.82967     C
C      0.82967  0.40017  0.94049     C
C      0.82967  0.82967  0.40017     C
C      0.82967  0.82967  0.94049     C
C      0.82967  0.94049  0.40017     C
C      0.82967  0.94049  0.82967     C
W      0.83818      0.0  0.16182     W
W      0.83818      0.0      1.0     W
W      0.83818  0.16182      1.0     W
O       0.8969   0.0183   0.1879     O
O       0.8969   0.0183   0.8969     O
O       0.8969   0.1879   0.0183     O
O       0.8969   0.1879   0.8969     O
O       0.8969   0.8969   0.0183     O
O       0.8969   0.8969   0.1879     O
H       0.9007   0.3049   0.3049     H
H       0.9007   0.3049   0.4895     H
H       0.9007   0.4895   0.3049     H
C      0.90102  0.32948  0.32948     C
C      0.90102  0.32948  0.44002     C
C      0.90102  0.44002  0.32948     C
C      0.90131  0.29247  0.40311     C
C      0.90131  0.40311  0.29247     C
C      0.90131  0.40311  0.40311     C
C       0.9035  0.39986  0.79314     C
C       0.9035  0.39986   0.9035     C
C       0.9035  0.79314  0.39986     C
C       0.9035  0.79314   0.9035     C
C       0.9035   0.9035  0.39986     C
C       0.9035   0.9035  0.79314     C
O      0.90376  0.00634  0.40854     O
O      0.90376  0.00634  0.68136     O
O      0.90376  0.40854  0.00634     O
O      0.90376  0.40854  0.68136     O
O      0.90376  0.68136  0.00634     O
O      0.90376  0.68136  0.40854     O
C      0.90543  0.21143  0.44157     C
C      0.90543  0.44157  0.21143     C
C      0.90543  0.44157  0.44157     C
O       0.9079   0.0307   0.0307     O
O       0.9079   0.1814  0.40388     O
O       0.9079   0.1814  0.50682     O
O       0.9079  0.40388   0.1814     O
O       0.9079  0.40388  0.50682     O
O       0.9079  0.50682   0.1814     O
O       0.9079  0.50682  0.40388     O
Cu    0.917884 0.082116 0.417256    Cu
Cu    0.917884 0.082116 0.582744    Cu
Cu    0.917884 0.417256 0.082116    Cu
Cu    0.917884 0.417256 0.582744    Cu
Cu    0.917884 0.582744 0.082116    Cu
Cu    0.917884 0.582744 0.417256    Cu
C      0.94049  0.40017  0.82967     C
C      0.94049  0.82967  0.40017     C
C      0.94049  0.82967  0.82967     C
C      0.94157  0.40497  0.71189     C
C      0.94157  0.40497  0.94157     C
C      0.94157  0.71189  0.40497     C
C      0.94157  0.71189  0.94157     C
C      0.94157  0.94157  0.40497     C
C      0.94157  0.94157  0.71189     C
O       0.9693   0.0921   0.9693     O
O       0.9693   0.9693   0.0921     O
O       0.9693   0.9693   0.9693     O
O       0.9817   0.1031   0.1031     O
O       0.9817   0.1031   0.8121     O
O       0.9817   0.8121   0.1031     O
H       0.9897   0.4005   0.8049     H
H       0.9897   0.8049   0.4005     H
H       0.9897   0.8049   0.8049     H
O      0.99366  0.09624  0.31864     O
O      0.99366  0.09624  0.59146     O
O      0.99366  0.31864  0.09624     O
O      0.99366  0.31864  0.59146     O
O      0.99366  0.59146  0.09624     O
O      0.99366  0.59146  0.31864     O
O          1.0  0.76142      0.0     O
