data_I
_chemical_name_common  '/home/zhangsd/repos/MofS-CGCNN/ML/data/WS24/clean_cifs/EZILUV'
_cell_length_a 18.24900
_cell_length_b 18.24900
_cell_length_c 26.38460
_cell_angle_alpha 69.76770
_cell_angle_beta  69.76780
_cell_angle_gamma 60.00000
_space_group_name_H-M_alt      'P 1'


loop_
_space_group_symop_operation_xyz
  'x, y, z' 

loop_
_atom_site_label
_atom_site_fract_x
_atom_site_fract_y
_atom_site_fract_z
_atom_site_type_symbol
C      0.00676  0.74888  0.36559     C
H       0.0075   0.2362    0.669     H
H       0.0096   0.7293   0.2339     H
H       0.0106    0.341   0.8888     H
C      0.01393  0.12305  0.17756     C
C      0.01446  0.30206  0.82391     C
C      0.02343  0.66504  0.12848     C
H       0.0272   0.0096   0.2339     H
H       0.0276   0.2208   0.1139     H
C       0.0276   0.2944   0.5364     C
C      0.03526  0.70763  0.20105     C
H       0.0406    0.101   0.5892     H
C       0.0491   0.2712   0.5871     C
C      0.04919  0.70333  0.46507     C
C      0.05606  0.03526  0.20105     C
C      0.05644  0.16114  0.12998     C
H       0.0647   0.3086   0.5031     H
C      0.07703  0.82751  0.79547     C
C      0.07751  0.67641  0.51577     C
N      0.08083  0.74841  0.36649     N
H       0.0873   0.0075    0.669     H
C       0.0926   0.0491   0.5871     C
C      0.10087  0.72593  0.41512     C
H        0.101   0.2692   0.5892     H
O      0.10497  0.86376  0.74771     O
C      0.10612  0.64952  0.55684     C
C      0.10897  0.27531  0.79841     C
C      0.11161  0.64086  0.10562     C
O      0.12092  0.75414  0.82217     O
C      0.12123  0.99324  0.63441     C
C      0.12305  0.68546  0.17756     C
H       0.1236   0.0647   0.5031     H
O      0.13506  0.25615  0.75188     O
O      0.13624  0.71644  0.25229     O
H       0.1377   0.7208   0.6139     H
C      0.14043  0.98554  0.17609     C
C      0.14086  0.61161  0.60562     C
C       0.1416   0.0276   0.5364     C
C      0.14191  0.11161  0.10562     C
O      0.14309  0.86494  0.24812     O
C      0.14952  0.60612  0.05684     C
C      0.15244  0.66114  0.62998     C
H       0.1529   0.7252   0.4159     H
O      0.15399  0.27556  0.82511     O
H        0.159   0.4894   0.6112     H
C      0.16114  0.65244  0.12998     C
C      0.16504  0.52343  0.62848     C
C      0.17249  0.70001  0.20453     C
C      0.17641  0.57751  0.01577     C
C      0.18269  0.89103  0.20159     C
C      0.18305  0.02343  0.12848     C
Cu     0.18367  0.74627  0.29337    Cu
C      0.18546  0.62305  0.67756     C
C      0.18752  0.14952  0.05684     C
H       0.1914   0.4353   0.9969     H
N      0.19573  0.91917  0.63351     N
O      0.19723  0.74586  0.67783     O
C      0.19794  0.48554  0.67609     C
C      0.20001  0.67249  0.70453     C
C      0.20333  0.54919  0.96507     C
C       0.2056   0.4724   0.9636     C
H        0.206   0.2252   0.9159     H
C      0.20763  0.53526  0.70105     C
O      0.21644  0.63624  0.75229     O
C      0.21759  0.95081  0.53493     C
H       0.2208   0.6377   0.1139     H
Cu     0.22331  0.81633  0.70663    Cu
O      0.22444  0.34601  0.67489     O
C      0.22469  0.39103  0.70159     C
H       0.2252   0.6529   0.9159     H
C      0.22593  0.60087  0.91512     C
C       0.2288   0.4509   0.9129     C
H       0.2293   0.5096   0.7339     H
C      0.23031  0.17641  0.01577     C
H       0.2308    0.399   0.9108     H
H       0.2362   0.0873    0.669     H
H       0.2404   0.9894   0.1112     H
C      0.24192  0.89913  0.58488     C
O      0.24385  0.36494  0.74812     O
O      0.24534  0.77556  0.32511     O
O      0.24586  0.69723  0.17783     O
Cu     0.24627  0.68367  0.79337    Cu
N      0.24841  0.58083  0.86649     N
C      0.24888  0.50676  0.86559     C
C      0.25112  0.12123  0.63441     C
N      0.25159  0.19573  0.63351     N
Cu     0.25373  0.22331  0.70663    Cu
O      0.25414  0.62092  0.32217     O
O      0.25466  0.84601  0.17489     O
O      0.25615  0.85691  0.75188     O
C      0.25808  0.22593  0.91512     C
H       0.2596    0.841   0.3888     H
H       0.2638   0.4925    0.831     H
H       0.2692   0.0406   0.5892     H
C      0.26969  0.92249  0.48423     C
H       0.2707   0.9728   0.7661     H
C       0.2712   0.0926   0.5871     C
C      0.27407  0.24192  0.58488     C
H       0.2748    0.294   0.5841     H
C      0.27531  0.81731  0.79841     C
O      0.27556  0.74534  0.82511     O
Cu     0.27669  0.24627  0.79337    Cu
H       0.2792   0.4724   0.3861     H
C      0.28241  0.20333  0.96507     C
O      0.28356  0.10497  0.74771     O
C      0.29237  0.94394  0.79895     C
H        0.294   0.8471   0.5841     H
C       0.2944   0.1416   0.5364     C
C      0.29667  0.21759  0.53493     C
C      0.29999  0.07703  0.79547     C
C      0.30206  0.85957  0.82391     C
O      0.30277  0.12092  0.82217     O
N      0.30427  0.24841  0.86649     N
H       0.3086   0.1236   0.5031     H
C      0.31248  0.89388  0.44316     C
C      0.31454  0.98607  0.82244     C
Cu     0.31633  0.72331  0.20663    Cu
C      0.31695  0.83496  0.37152     C
C      0.31731  0.77531  0.29841     C
C      0.32359  0.26969  0.48423     C
C      0.32751  0.57703  0.29547     C
C      0.33496  0.81695  0.87152     C
C      0.33886  0.44356  0.37002     C
H        0.341   0.7596   0.8888     H
O      0.34601  0.75466  0.67489     O
H       0.3471    0.794   0.0841     H
C      0.34756  0.94356  0.87002     C
C      0.35048  0.31248  0.44316     C
O      0.35691  0.75615  0.25188     O
C      0.35809  0.85914  0.39438     C
C       0.3584   0.2056   0.9636     C
C      0.35914  0.85809  0.89438     C
C      0.35957  0.80206  0.32391     C
H       0.3623   0.9724   0.8861     H
O      0.36376  0.60497  0.24771     O
O      0.36494  0.64309  0.74812     O
H       0.3764   0.1914   0.9969     H
C      0.37695  0.48607  0.32244     C
C      0.37877  0.24888  0.86559     C
O      0.37908  0.19723  0.67783     O
C      0.38839  0.35809  0.39438     C
C      0.39103  0.68269  0.70159     C
C      0.39388  0.81248  0.94316     C
O      0.39503  0.21644  0.75229     O
H        0.399   0.4594   0.9108     H
C      0.39913  0.74192  0.08488     C
C       0.4074   0.2288   0.9129     C
H       0.4127   0.2638    0.831     H
N      0.41917  0.69573  0.13351     N
C      0.42249  0.76969  0.98423     C
C      0.42297  0.20001  0.70453     C
H       0.4353   0.3764   0.9969     H
C      0.44356  0.84756  0.37002     C
C      0.44394  0.79237  0.29895     C
C      0.45081  0.71759  0.03493     C
C       0.4509   0.4074   0.9129     C
H       0.4594   0.2308   0.9108     H
C      0.46474  0.44394  0.29895     C
C       0.4724   0.3584   0.9636     C
H       0.4724   0.8623   0.3861     H
H       0.4728   0.7707   0.2661     H
C      0.47657  0.31695  0.37152     C
C      0.48554  0.64043  0.67609     C
C      0.48607  0.81454  0.32244     C
H       0.4894   0.7404   0.6112     H
H       0.4904   0.4728   0.2661     H
H       0.4925   0.4127    0.831     H
C      0.49324  0.62123  0.13441     C
C      0.50676  0.37877  0.86559     C
H       0.5075   0.5873    0.169     H
H       0.5096   0.5272   0.7339     H
H       0.5106   0.2596   0.3888     H
C      0.51393  0.18546  0.67756     C
C      0.51446  0.35957  0.32391     C
C      0.52343  0.68305  0.62848     C
H       0.5272   0.2293   0.7339     H
H       0.5276   0.1377   0.6139     H
C       0.5276   0.6416   0.0364     C
C      0.53526  0.55606  0.70105     C
H       0.5406   0.7692   0.0892     H
C       0.5491   0.5926   0.0871     C
C      0.54919  0.28241  0.96507     C
C      0.55606  0.20763  0.70105     C
C      0.55644  0.15244  0.62998     C
H       0.5647   0.6236   0.0031     H
C      0.57703  0.79999  0.29547     C
C      0.57751  0.23031  0.01577     C
N      0.58083  0.30427  0.86649     N
H       0.5873   0.7362    0.169     H
C       0.5926   0.7712   0.0871     C
C      0.60087  0.25808  0.91512     C
H        0.601   0.5406   0.0892     H
O      0.60497  0.78356  0.24771     O
C      0.60612  0.18752  0.05684     C
C      0.60897  0.31731  0.29841     C
C      0.61161  0.64191  0.60562     C
O      0.62092  0.80277  0.32217     O
C      0.62123  0.75112  0.13441     C
C      0.62305  0.51393  0.67756     C
H       0.6236   0.8086   0.0031     H
O      0.63506  0.35691  0.25188     O
O      0.63624  0.39503  0.75229     O
H       0.6377   0.0276   0.1139     H
C      0.64043  0.19794  0.67609     C
C      0.64086  0.14191  0.10562     C
C       0.6416   0.7944   0.0364     C
C      0.64191  0.14086  0.60562     C
O      0.64309  0.24385  0.74812     O
C      0.64952  0.68752  0.55684     C
C      0.65244  0.05644  0.12998     C
H       0.6529    0.206   0.9159     H
O      0.65399  0.24534  0.32511     O
H        0.659   0.2404   0.1112     H
C      0.66114  0.55644  0.62998     C
C      0.66504  0.18305  0.12848     C
C      0.67249  0.42297  0.70453     C
C      0.67641  0.73031  0.51577     C
C      0.68269  0.22469  0.70159     C
C      0.68305  0.16504  0.62848     C
Cu     0.68367  0.27669  0.79337    Cu
C      0.68546  0.01393  0.17756     C
C      0.68752  0.10612  0.55684     C
H       0.6914   0.8764   0.4969     H
N      0.69573  0.75159  0.13351     N
O      0.69723  0.87908  0.17783     O
C      0.69794  0.14043  0.17609     C
C      0.70001  0.92297  0.20453     C
C      0.70333  0.78241  0.46507     C
C       0.7056   0.8584   0.4636     C
H        0.706   0.1529   0.4159     H
C      0.70763  0.05606  0.20105     C
O      0.71644  0.89503  0.25229     O
C      0.71759  0.79667  0.03493     C
H       0.7208   0.5276   0.6139     H
Cu     0.72331  0.75373  0.20663    Cu
O      0.72444  0.25466  0.17489     O
C      0.72469  0.18269  0.20159     C
H       0.7252    0.706   0.4159     H
C      0.72593  0.75808  0.41512     C
C       0.7288   0.9074   0.4129     C
H       0.7293   0.0272   0.2339     H
C      0.73031  0.07751  0.51577     C
H       0.7308   0.9594   0.4108     H
H       0.7362   0.5075    0.169     H
H       0.7404    0.159   0.6112     H
C      0.74192  0.77407  0.08488     C
O      0.74385  0.14309  0.24812     O
O      0.74534  0.15399  0.82511     O
O      0.74586  0.37908  0.67783     O
Cu     0.74627  0.77669  0.29337    Cu
N      0.74841  0.80427  0.36649     N
C      0.74888  0.87877  0.36559     C
C      0.75112  0.49324  0.13441     C
N      0.75159  0.41917  0.13351     N
Cu     0.75373  0.31633  0.20663    Cu
O      0.75414  0.30277  0.82217     O
O      0.75466  0.22444  0.67489     O
O      0.75615  0.63506  0.25188     O
C      0.75808  0.10087  0.41512     C
H       0.7596   0.0106   0.8888     H
H       0.7638   0.9127    0.331     H
H       0.7692    0.601   0.0892     H
C      0.76969  0.82359  0.98423     C
H       0.7707   0.4904   0.2661     H
C       0.7712   0.5491   0.0871     C
C      0.77407  0.39913  0.08488     C
H       0.7748   0.3471   0.0841     H
C      0.77531  0.60897  0.29841     C
O      0.77556  0.65399  0.32511     O
Cu     0.77669  0.18367  0.29337    Cu
H       0.7792   0.3623   0.8861     H
C      0.78241  0.04919  0.46507     C
O      0.78356  0.36376  0.24771     O
C      0.79237  0.46474  0.29895     C
H        0.794   0.7748   0.0841     H
C       0.7944   0.5276   0.0364     C
C      0.79667  0.45081  0.03493     C
C      0.79999  0.32751  0.29547     C
C      0.80206  0.51446  0.32391     C
O      0.80277  0.25414  0.32217     O
N      0.80427  0.08083  0.36649     N
H       0.8086   0.5647   0.0031     H
C      0.81248  0.85048  0.94316     C
C      0.81454  0.37695  0.32244     C
Cu     0.81633  0.25373  0.70663    Cu
C      0.81695  0.97657  0.87152     C
C      0.81731  0.10897  0.79841     C
C      0.82359  0.42249  0.98423     C
C      0.82751  0.29999  0.79547     C
C      0.83496  0.47657  0.37152     C
C      0.83886  0.34756  0.87002     C
H        0.841   0.5106   0.3888     H
O      0.84601  0.72444  0.17489     O
H       0.8471   0.2748   0.5841     H
C      0.84756  0.33886  0.37002     C
C      0.85048  0.39388  0.94316     C
O      0.85691  0.13506  0.75188     O
C      0.85809  0.88839  0.89438     C
C       0.8584   0.9724   0.4636     C
C      0.85914  0.38839  0.39438     C
C      0.85957  0.01446  0.82391     C
H       0.8623   0.2792   0.3861     H
O      0.86376  0.28356  0.74771     O
O      0.86494  0.74385  0.24812     O
H       0.8764   0.9353   0.4969     H
C      0.87695  0.31454  0.82244     C
C      0.87877  0.00676  0.36559     C
O      0.87908  0.24586  0.17783     O
C      0.88839  0.35914  0.89438     C
C      0.89103  0.72469  0.20159     C
C      0.89388  0.35048  0.44316     C
O      0.89503  0.13624  0.25229     O
H        0.899   0.7308   0.4108     H
C      0.89913  0.27407  0.58488     C
C       0.9074   0.9509   0.4129     C
H       0.9127   0.9925    0.331     H
N      0.91917  0.25159  0.63351     N
C      0.92249  0.32359  0.48423     C
C      0.92297  0.17249  0.20453     C
H       0.9353   0.6914   0.4969     H
C      0.94356  0.83886  0.87002     C
C      0.94394  0.96474  0.79895     C
C      0.95081  0.29667  0.53493     C
C       0.9509   0.7288   0.4129     C
H       0.9594    0.899   0.4108     H
C      0.96474  0.29237  0.79895     C
C       0.9724   0.7056   0.4636     C
H       0.9724   0.7792   0.8861     H
H       0.9728   0.9904   0.7661     H
C      0.97657  0.33496  0.87152     C
C      0.98554  0.69794  0.17609     C
C      0.98607  0.87695  0.82244     C
H       0.9894    0.659   0.1112     H
H       0.9904   0.2707   0.7661     H
H       0.9925   0.7638    0.331     H
C      0.99324  0.25112  0.63441     C
