data_I
_chemical_name_common  '/home/zhangsd/repos/MofS-CGCNN/ML/data/WS24/clean_cifs/EZIMAC'
_cell_length_a 18.21800
_cell_length_b 18.21800
_cell_length_c 26.43620
_cell_angle_alpha 69.84470
_cell_angle_beta  69.84470
_cell_angle_gamma 60.00000
_space_group_name_H-M_alt      'P 1'


loop_
_space_group_symop_operation_xyz
  'x, y, z' 

loop_
_atom_site_label
_atom_site_fract_x
_atom_site_fract_y
_atom_site_fract_z
_atom_site_type_symbol
H       0.0059   0.7289   0.2339     H
C      0.00626  0.74467  0.36592     C
H       0.0086   0.2398   0.6687     H
C      0.01717  0.66766  0.12806     C
H       0.0175   0.3376   0.8891     H
C      0.01923  0.11854  0.17798     C
C      0.01993  0.29946   0.8243     C
C      0.02868  0.29674  0.53595     C
C      0.03107  0.70773   0.2009     C
H       0.0313   0.0059   0.2339     H
H       0.0335   0.2164   0.1142     H
H       0.0388   0.1035   0.5883     H
C      0.04949  0.69824  0.46531     C
C      0.05057  0.27322  0.58638     C
C       0.0603  0.03107   0.2009     C
C      0.06182  0.15654  0.13004     C
H       0.0665   0.3092   0.5028     H
C       0.0719   0.8293  0.79496     C
C      0.07876  0.67007  0.51571     C
N      0.08123  0.74095  0.36649     N
H       0.0829   0.0086   0.6687     H
C      0.08983  0.05057  0.58638     C
O      0.09938  0.86636  0.74732     O
C      0.10228  0.71818  0.41509     C
H       0.1035   0.2694   0.5883     H
C      0.10594  0.64223  0.10544     C
C      0.10695  0.64329  0.55642     C
O      0.11402  0.75506  0.82067     O
C      0.11443  0.27168  0.79901     C
C      0.11685  0.99374  0.63408     C
C      0.11854  0.68425  0.17798     C
H       0.1215   0.0665   0.5028     H
O      0.13364  0.71306  0.25268     O
H       0.1359   0.7164   0.6142     H
C      0.13863  0.02868  0.53595     C
O      0.14039  0.25315  0.75233     O
C      0.14223  0.60594  0.60544     C
C      0.14329  0.60695  0.05642     C
C      0.14369  0.98007   0.1757     C
O      0.14587  0.85961  0.24767     O
C      0.14639  0.10594  0.10544     C
C       0.1516  0.65654  0.63004     C
H       0.1555   0.7154   0.4156     H
C      0.15654   0.6516  0.13004     C
O      0.16113  0.26882  0.82637     O
H       0.1624   0.4825   0.6109     H
C      0.16766  0.51717  0.62806     C
C      0.17007  0.57876  0.01571     C
C       0.1707  0.69616  0.20504     C
Cu     0.18383   0.7402  0.29313    Cu
C      0.18425  0.61854  0.67798     C
C      0.18512  0.88557  0.20099     C
C      0.18711  0.01717  0.12806     C
N      0.18867  0.91877  0.63351     N
O      0.18975  0.74494  0.67933     O
H       0.1908   0.4335   0.9972     H
C      0.19334  0.14329  0.05642     C
C      0.19616   0.6707  0.70504     C
C      0.19824  0.54949  0.96531     C
C      0.20054  0.48007   0.6757     C
C      0.20326  0.47132  0.96405     C
C      0.20773  0.53107   0.7009     C
C      0.21304  0.95051  0.53469     C
O      0.21306  0.63364  0.75268     O
H       0.2135   0.2154   0.9156     H
H       0.2154   0.6555   0.9156     H
H       0.2164   0.6359   0.1142     H
Cu     0.21716  0.81617  0.70687    Cu
C      0.21818  0.60228  0.91509     C
C      0.22678  0.44943  0.91362     C
C      0.22832  0.38557  0.70099     C
H       0.2289   0.5059   0.7339     H
H       0.2306   0.3965   0.9117     H
O      0.23118  0.33887  0.67363     O
C      0.23546  0.17007  0.01571     C
C      0.23555  0.89772  0.58491     C
H       0.2398   0.0829   0.6687     H
Cu      0.2402  0.68383  0.79313    Cu
N      0.24095  0.58123  0.86649     N
O      0.24368  0.76882  0.32637     O
H       0.2442   0.9825   0.1109     H
C      0.24467  0.50626  0.86592     C
O      0.24494  0.68975  0.17933     O
O      0.24685  0.35961  0.74767     O
O      0.25315  0.85413  0.75233     O
O      0.25506  0.61402  0.32067     O
C      0.25533  0.11685  0.63408     C
H       0.2558   0.8376   0.3891     H
O      0.25632  0.83887  0.17363     O
N      0.25905  0.18867  0.63351     N
Cu      0.2598  0.21716  0.70687    Cu
H       0.2602   0.4914   0.8313     H
C      0.26445  0.21818  0.91509     C
C      0.26454  0.92124  0.48429     C
O      0.26882  0.74368  0.82637     O
H       0.2694   0.0388   0.5883     H
H       0.2711   0.9687   0.7661     H
C      0.27168  0.81488  0.79901     C
C      0.27322  0.08983  0.58638     C
C      0.28182  0.23555  0.58491     C
Cu     0.28284   0.2402  0.79313    Cu
H       0.2836   0.4665   0.3858     H
H       0.2846   0.2865   0.5844     H
H       0.2865   0.8445   0.5844     H
O      0.28694  0.09938  0.74732     O
C      0.28696  0.19824  0.96531     C
C      0.29227   0.9397   0.7991     C
C      0.29674  0.13863  0.53595     C
C      0.29946  0.85631   0.8243     C
C      0.30176  0.21304  0.53469     C
C      0.30384   0.0719  0.79496     C
C      0.30666  0.89305  0.44358     C
H       0.3092   0.1215   0.5028     H
O      0.31025  0.11402  0.82067     O
N      0.31133  0.24095  0.86649     N
C      0.31289  0.83234  0.37194     C
C      0.31488  0.77168  0.29901     C
C      0.31575  0.98077  0.82202     C
Cu     0.31617  0.71716  0.20687    Cu
C       0.3293   0.5719  0.29496     C
C      0.32993  0.26454  0.48429     C
C      0.33234  0.81289  0.87194     C
H       0.3376   0.7558   0.8891     H
O      0.33887  0.75632  0.67363     O
C      0.34346  0.43818  0.36996     C
H       0.3445   0.7865   0.0844     H
C       0.3484  0.93818  0.86996     C
C      0.35361  0.85777  0.39456     C
O      0.35413  0.75315  0.25233     O
C      0.35631  0.79946   0.3243     C
C      0.35671  0.30666  0.44358     C
C      0.35777  0.85361  0.89456     C
O      0.35961  0.64587  0.74767     O
C      0.36137  0.20326  0.96405     C
H       0.3641   0.9665   0.8858     H
O      0.36636  0.59938  0.24732     O
H       0.3785   0.1908   0.9972     H
C      0.38146  0.48077  0.32202     C
C      0.38315  0.24467  0.86592     C
C      0.38557  0.68512  0.70099     C
O      0.38598  0.18975  0.67933     O
C      0.39305  0.80666  0.94358     C
C      0.39406  0.35361  0.39456     C
H       0.3965   0.4612   0.9117     H
C      0.39772  0.73555  0.08491     C
O      0.40062  0.21306  0.75268     O
C      0.41017  0.22678  0.91362     C
H       0.4171   0.2602   0.8313     H
N      0.41877  0.68867  0.13351     N
C      0.42124  0.76454  0.98429     C
C       0.4281  0.19616  0.70504     C
H       0.4335   0.3785   0.9972     H
C      0.43818   0.8484  0.36996     C
C       0.4397  0.79227   0.2991     C
C      0.44943  0.41017  0.91362     C
C      0.45051  0.71304  0.03469     C
H       0.4612   0.2306   0.9117     H
H       0.4665   0.8641   0.3858     H
H       0.4687   0.7711   0.2661     H
C      0.46893   0.4397   0.2991     C
C      0.47132  0.36137  0.96405     C
C      0.48007  0.64369   0.6757     C
C      0.48077  0.81575  0.32202     C
H       0.4825   0.7442   0.6109     H
C      0.48283  0.31289  0.37194     C
H       0.4914   0.4171   0.8313     H
C      0.49374  0.61685  0.13408     C
H       0.4941   0.4687   0.2661     H
H       0.5059   0.5313   0.7339     H
C      0.50626  0.38315  0.86592     C
H       0.5086   0.5829   0.1687     H
C      0.51717  0.68711  0.62806     C
H       0.5175   0.2558   0.3891     H
C      0.51923  0.18425  0.67798     C
C      0.51993  0.35631   0.3243     C
C      0.52868  0.63863  0.03595     C
C      0.53107   0.5603   0.7009     C
H       0.5313   0.2289   0.7339     H
H       0.5335   0.1359   0.6142     H
H       0.5388   0.7694   0.0883     H
C      0.54949  0.28696  0.96531     C
C      0.55057  0.58983  0.08638     C
C       0.5603  0.20773   0.7009     C
C      0.56182   0.1516  0.63004     C
H       0.5665   0.6215   0.0028     H
C       0.5719  0.80384  0.29496     C
C      0.57876  0.23546  0.01571     C
N      0.58123  0.31133  0.86649     N
H       0.5829   0.7398   0.1687     H
C      0.58983  0.77322  0.08638     C
O      0.59938  0.78694  0.24732     O
C      0.60228  0.26445  0.91509     C
H       0.6035   0.5388   0.0883     H
C      0.60594  0.64639  0.60544     C
C      0.60695  0.19334  0.05642     C
O      0.61402  0.81025  0.32067     O
C      0.61443  0.31488  0.29901     C
C      0.61685  0.75533  0.13408     C
C      0.61854  0.51923  0.67798     C
H       0.6215   0.8092   0.0028     H
O      0.63364  0.40062  0.75268     O
H       0.6359   0.0335   0.1142     H
C      0.63863  0.79674  0.03595     C
O      0.64039  0.35413  0.25233     O
C      0.64223  0.14639  0.10544     C
C      0.64329  0.69334  0.55642     C
C      0.64369  0.20054   0.6757     C
O      0.64587  0.24685  0.74767     O
C      0.64639  0.14223  0.60544     C
C       0.6516  0.06182  0.13004     C
H       0.6555   0.2135   0.9156     H
C      0.65654  0.56182  0.63004     C
O      0.66113  0.24368  0.32637     O
H       0.6624   0.2442   0.1109     H
C      0.66766  0.18711  0.12806     C
C      0.67007  0.73546  0.51571     C
C       0.6707   0.4281  0.70504     C
Cu     0.68383  0.28284  0.79313    Cu
C      0.68425  0.01923  0.17798     C
C      0.68512  0.22832  0.70099     C
C      0.68711  0.16766  0.62806     C
N      0.68867  0.75905  0.13351     N
O      0.68975  0.88598  0.17933     O
H       0.6908   0.8785   0.4972     H
C      0.69334  0.10695  0.55642     C
C      0.69616   0.9281  0.20504     C
C      0.69824  0.78696  0.46531     C
C      0.70054  0.14369   0.1757     C
C      0.70326  0.86137  0.46405     C
C      0.70773   0.0603   0.2009     C
C      0.71304  0.80176  0.03469     C
O      0.71306  0.90062  0.25268     O
H       0.7135   0.1555   0.4156     H
H       0.7154   0.7135   0.4156     H
H       0.7164   0.5335   0.6142     H
Cu     0.71716   0.7598  0.20687    Cu
C      0.71818  0.76445  0.41509     C
C      0.72678  0.91017  0.41362     C
C      0.72832  0.18512  0.20099     C
H       0.7289   0.0313   0.2339     H
H       0.7306   0.9612   0.4117     H
O      0.73118  0.25632  0.17363     O
C      0.73546  0.07876  0.51571     C
C      0.73555  0.78182  0.08491     C
H       0.7398   0.5086   0.1687     H
Cu      0.7402  0.78284  0.29313    Cu
N      0.74095  0.81133  0.36649     N
O      0.74368  0.16113  0.82637     O
H       0.7442   0.1624   0.6109     H
C      0.74467  0.88315  0.36592     C
O      0.74494  0.38598  0.67933     O
O      0.74685  0.14587  0.24767     O
O      0.75315  0.64039  0.25233     O
O      0.75506  0.31025  0.82067     O
C      0.75533  0.49374  0.13408     C
H       0.7558   0.0175   0.8891     H
O      0.75632  0.23118  0.67363     O
N      0.75905  0.41877  0.13351     N
Cu      0.7598  0.31617  0.20687    Cu
H       0.7602   0.9171   0.3313     H
C      0.76445  0.10228  0.41509     C
C      0.76454  0.82993  0.98429     C
O      0.76882  0.66113  0.32637     O
H       0.7694   0.6035   0.0883     H
H       0.7711   0.4941   0.2661     H
C      0.77168  0.61443  0.29901     C
C      0.77322  0.55057  0.08638     C
C      0.78182  0.39772  0.08491     C
Cu     0.78284  0.18383  0.29313    Cu
H       0.7836   0.3641   0.8858     H
H       0.7846   0.3445   0.0844     H
H       0.7865   0.7846   0.0844     H
O      0.78694  0.36636  0.24732     O
C      0.78696  0.04949  0.46531     C
C      0.79227  0.46893   0.2991     C
C      0.79674  0.52868  0.03595     C
C      0.79946  0.51993   0.3243     C
C      0.80176  0.45051  0.03469     C
C      0.80384   0.3293  0.29496     C
C      0.80666  0.85671  0.94358     C
H       0.8092   0.5665   0.0028     H
O      0.81025  0.25506  0.32067     O
N      0.81133  0.08123  0.36649     N
C      0.81289  0.98283  0.87194     C
C      0.81488  0.11443  0.79901     C
C      0.81575  0.38146  0.32202     C
Cu     0.81617   0.2598  0.70687    Cu
C       0.8293  0.30384  0.79496     C
C      0.82993  0.42124  0.98429     C
C      0.83234  0.48283  0.37194     C
H       0.8376   0.5175   0.3891     H
O      0.83887  0.73118  0.17363     O
C      0.84346   0.3484  0.86996     C
H       0.8445   0.2846   0.5844     H
C       0.8484  0.34346  0.36996     C
C      0.85361  0.89406  0.89456     C
O      0.85413  0.14039  0.75233     O
C      0.85631  0.01993   0.8243     C
C      0.85671  0.39305  0.94358     C
C      0.85777  0.39406  0.39456     C
O      0.85961  0.74685  0.24767     O
C      0.86137  0.97132  0.46405     C
H       0.8641   0.2836   0.3858     H
O      0.86636  0.28694  0.74732     O
H       0.8785   0.9335   0.4972     H
C      0.88146  0.31575  0.82202     C
C      0.88315  0.00626  0.36592     C
C      0.88557  0.72832  0.20099     C
O      0.88598  0.24494  0.17933     O
C      0.89305  0.35671  0.44358     C
C      0.89406  0.35777  0.89456     C
H       0.8965   0.7306   0.4117     H
C      0.89772  0.28182  0.58491     C
O      0.90062  0.13364  0.25268     O
C      0.91017  0.94943  0.41362     C
H       0.9171   0.9914   0.3313     H
N      0.91877  0.25905  0.63351     N
C      0.92124  0.32993  0.48429     C
C       0.9281   0.1707  0.20504     C
H       0.9335   0.6908   0.4972     H
C      0.93818  0.84346  0.86996     C
C       0.9397  0.96893   0.7991     C
C      0.94943  0.72678  0.41362     C
C      0.95051  0.30176  0.53469     C
H       0.9612   0.8965   0.4117     H
H       0.9665   0.7836   0.8858     H
H       0.9687   0.9941   0.7661     H
C      0.96893  0.29227   0.7991     C
C      0.97132  0.70326  0.46405     C
C      0.98007  0.70054   0.1757     C
C      0.98077  0.88146  0.82202     C
H       0.9825   0.6624   0.1109     H
C      0.98283  0.33234  0.87194     C
H       0.9914   0.7602   0.3313     H
C      0.99374  0.25533  0.63408     C
H       0.9941   0.2711   0.7661     H
