data_I
_chemical_name_common  '/home/zhangsd/repos/MofS-CGCNN/ML/data/WS24/clean_cifs/EZOFUV'
_cell_length_a 15.14960
_cell_length_b 15.14960
_cell_length_c 18.65970
_cell_angle_alpha 90.00000
_cell_angle_beta  90.00000
_cell_angle_gamma 90.00000
_space_group_name_H-M_alt      'P 1'


loop_
_space_group_symop_operation_xyz
  'x, y, z' 

loop_
_atom_site_label
_atom_site_fract_x
_atom_site_fract_y
_atom_site_fract_z
_atom_site_type_symbol
Ni         0.0      0.0   0.0719    Ni
N          0.0      0.0   0.1819     N
N          0.0      0.0   0.3181     N
Ni         0.0      0.0   0.4281    Ni
Ni         0.0      0.0   0.5719    Ni
N          0.0      0.0   0.6819     N
N          0.0      0.0   0.8181     N
Ni         0.0      0.0   0.9281    Ni
C       0.0312   0.0861   0.2108     C
C       0.0312   0.0861   0.7892     C
C       0.0312   0.9139   0.2892     C
C       0.0312   0.9139   0.7108     C
C       0.0463   0.0828   0.2961     C
C       0.0463   0.0828   0.7039     C
C       0.0463   0.9172   0.2039     C
C       0.0463   0.9172   0.7961     C
O        0.067   0.1107   0.0637     O
O        0.067   0.1107   0.9363     O
O        0.067   0.8893   0.4363     O
O        0.067   0.8893   0.5637     O
C       0.0828   0.0463   0.2039     C
C       0.0828   0.0463   0.7961     C
C       0.0828   0.9537   0.2961     C
C       0.0828   0.9537   0.7039     C
C       0.0861   0.0312   0.2892     C
C       0.0861   0.0312   0.7108     C
C       0.0861   0.9688   0.2108     C
C       0.0861   0.9688   0.7892     C
C       0.0897   0.1347      0.0     C
C       0.0897   0.8653      0.5     C
O       0.1107    0.067   0.4363     O
O       0.1107    0.067   0.5637     O
O       0.1107    0.933   0.0637     O
O       0.1107    0.933   0.9363     O
C       0.1347   0.0897      0.5     C
C       0.1347   0.9103      0.0     C
C       0.1529   0.2146      0.0     C
C       0.1529   0.7854      0.5     C
C       0.1853   0.2481   0.0645     C
C       0.1853   0.2481   0.9355     C
C       0.1853   0.7519   0.4355     C
C       0.1853   0.7519   0.5645     C
C       0.2146   0.1529      0.5     C
C       0.2146   0.8471      0.0     C
C       0.2481   0.1853   0.4355     C
C       0.2481   0.1853   0.5645     C
C       0.2481   0.8147   0.0645     C
C       0.2481   0.8147   0.9355     C
C       0.2519   0.3147   0.0645     C
C       0.2519   0.3147   0.9355     C
C       0.2519   0.6853   0.4355     C
C       0.2519   0.6853   0.5645     C
C       0.2854   0.3471      0.0     C
C       0.2854   0.6529      0.5     C
C       0.3147   0.2519   0.4355     C
C       0.3147   0.2519   0.5645     C
C       0.3147   0.7481   0.0645     C
C       0.3147   0.7481   0.9355     C
C       0.3471   0.2854      0.5     C
C       0.3471   0.7146      0.0     C
C       0.3653   0.4103      0.0     C
C       0.3653   0.5897      0.5     C
O       0.3893    0.433   0.0637     O
O       0.3893    0.433   0.9363     O
O       0.3893    0.567   0.4363     O
O       0.3893    0.567   0.5637     O
C       0.4103   0.3653      0.5     C
C       0.4103   0.6347      0.0     C
C       0.4139   0.4688   0.2108     C
C       0.4139   0.4688   0.7892     C
C       0.4139   0.5312   0.2892     C
C       0.4139   0.5312   0.7108     C
C       0.4172   0.4537   0.2961     C
C       0.4172   0.4537   0.7039     C
C       0.4172   0.5463   0.2039     C
C       0.4172   0.5463   0.7961     C
O        0.433   0.3893   0.4363     O
O        0.433   0.3893   0.5637     O
O        0.433   0.6107   0.0637     O
O        0.433   0.6107   0.9363     O
C       0.4537   0.4172   0.2039     C
C       0.4537   0.4172   0.7961     C
C       0.4537   0.5828   0.2961     C
C       0.4537   0.5828   0.7039     C
C       0.4688   0.4139   0.2892     C
C       0.4688   0.4139   0.7108     C
C       0.4688   0.5861   0.2108     C
C       0.4688   0.5861   0.7892     C
Ni         0.5      0.5   0.0719    Ni
N          0.5      0.5   0.1819     N
N          0.5      0.5   0.3181     N
Ni         0.5      0.5   0.4281    Ni
Ni         0.5      0.5   0.5719    Ni
N          0.5      0.5   0.6819     N
N          0.5      0.5   0.8181     N
Ni         0.5      0.5   0.9281    Ni
C       0.5312   0.4139   0.2108     C
C       0.5312   0.4139   0.7892     C
C       0.5312   0.5861   0.2892     C
C       0.5312   0.5861   0.7108     C
C       0.5463   0.4172   0.2961     C
C       0.5463   0.4172   0.7039     C
C       0.5463   0.5828   0.2039     C
C       0.5463   0.5828   0.7961     C
O        0.567   0.3893   0.0637     O
O        0.567   0.3893   0.9363     O
O        0.567   0.6107   0.4363     O
O        0.567   0.6107   0.5637     O
C       0.5828   0.4537   0.2039     C
C       0.5828   0.4537   0.7961     C
C       0.5828   0.5463   0.2961     C
C       0.5828   0.5463   0.7039     C
C       0.5861   0.4688   0.2892     C
C       0.5861   0.4688   0.7108     C
C       0.5861   0.5312   0.2108     C
C       0.5861   0.5312   0.7892     C
C       0.5897   0.3653      0.0     C
C       0.5897   0.6347      0.5     C
O       0.6107    0.433   0.4363     O
O       0.6107    0.433   0.5637     O
O       0.6107    0.567   0.0637     O
O       0.6107    0.567   0.9363     O
C       0.6347   0.4103      0.5     C
C       0.6347   0.5897      0.0     C
C       0.6529   0.2854      0.0     C
C       0.6529   0.7146      0.5     C
C       0.6853   0.2519   0.0645     C
C       0.6853   0.2519   0.9355     C
C       0.6853   0.7481   0.4355     C
C       0.6853   0.7481   0.5645     C
C       0.7146   0.3471      0.5     C
C       0.7146   0.6529      0.0     C
C       0.7481   0.3147   0.4355     C
C       0.7481   0.3147   0.5645     C
C       0.7481   0.6853   0.0645     C
C       0.7481   0.6853   0.9355     C
C       0.7519   0.1853   0.0645     C
C       0.7519   0.1853   0.9355     C
C       0.7519   0.8147   0.4355     C
C       0.7519   0.8147   0.5645     C
C       0.7854   0.1529      0.0     C
C       0.7854   0.8471      0.5     C
C       0.8147   0.2481   0.4355     C
C       0.8147   0.2481   0.5645     C
C       0.8147   0.7519   0.0645     C
C       0.8147   0.7519   0.9355     C
C       0.8471   0.2146      0.5     C
C       0.8471   0.7854      0.0     C
C       0.8653   0.0897      0.0     C
C       0.8653   0.9103      0.5     C
O       0.8893    0.067   0.0637     O
O       0.8893    0.067   0.9363     O
O       0.8893    0.933   0.4363     O
O       0.8893    0.933   0.5637     O
C       0.9103   0.1347      0.5     C
C       0.9103   0.8653      0.0     C
C       0.9139   0.0312   0.2108     C
C       0.9139   0.0312   0.7892     C
C       0.9139   0.9688   0.2892     C
C       0.9139   0.9688   0.7108     C
C       0.9172   0.0463   0.2961     C
C       0.9172   0.0463   0.7039     C
C       0.9172   0.9537   0.2039     C
C       0.9172   0.9537   0.7961     C
O        0.933   0.1107   0.4363     O
O        0.933   0.1107   0.5637     O
O        0.933   0.8893   0.0637     O
O        0.933   0.8893   0.9363     O
C       0.9537   0.0828   0.2039     C
C       0.9537   0.0828   0.7961     C
C       0.9537   0.9172   0.2961     C
C       0.9537   0.9172   0.7039     C
C       0.9688   0.0861   0.2892     C
C       0.9688   0.0861   0.7108     C
C       0.9688   0.9139   0.2108     C
C       0.9688   0.9139   0.7892     C
