data_I
_chemical_name_common  '/home/zhangsd/repos/MofS-CGCNN/ML/data/WS24/clean_cifs/EZOGAC'
_cell_length_a 21.59300
_cell_length_b 21.59300
_cell_length_c  9.36720
_cell_angle_alpha 90.00000
_cell_angle_beta  90.00000
_cell_angle_gamma 120.00000
_space_group_name_H-M_alt      'P 1'


loop_
_space_group_symop_operation_xyz
  'x, y, z' 

loop_
_atom_site_label
_atom_site_fract_x
_atom_site_fract_y
_atom_site_fract_z
_atom_site_type_symbol
Ni         0.0      0.5   0.1382    Ni
N          0.0      0.5   0.3561     N
N          0.0      0.5   0.6439     N
Ni         0.0      0.5   0.8618    Ni
C       0.0031   0.4447   0.5778     C
C       0.0031   0.5584   0.5778     C
C       0.0649   0.5095   0.4196     C
C       0.0649   0.5554   0.4196     C
C       0.0684   0.5118   0.5807     C
C       0.0684   0.5566   0.5807     C
O       0.0736   0.4726   0.8919     O
O       0.0736    0.601   0.8919     O
O        0.075   0.4732   0.1085     O
O        0.075   0.6018   0.1085     O
C       0.1076   0.4721   0.9977     C
C       0.1076   0.6355   0.9977     C
C       0.1731   0.4598   0.0085     C
C       0.1731   0.7133   0.0085     C
C       0.1985   0.4594   0.1415     C
C       0.1985   0.7391   0.1415     C
C       0.1987   0.4617   0.8736     C
C       0.1987    0.737   0.8736     C
C       0.2609   0.4594   0.1415     C
C       0.2609   0.8015   0.1415     C
C        0.263   0.4617   0.8736     C
C        0.263   0.8013   0.8736     C
C       0.2867   0.4598   0.0085     C
C       0.2867   0.8269   0.0085     C
C       0.3645   0.4721   0.9977     C
C       0.3645   0.8924   0.9977     C
O       0.3982   0.4732   0.1085     O
O       0.3982    0.925   0.1085     O
O        0.399   0.4726   0.8919     O
O        0.399   0.9264   0.8919     O
C       0.4416   0.4447   0.5778     C
C       0.4416   0.9969   0.5778     C
C       0.4434   0.5118   0.5807     C
C       0.4434   0.9316   0.5807     C
C       0.4446   0.5095   0.4196     C
C       0.4446   0.9351   0.4196     C
C       0.4447   0.0031   0.4222     C
C       0.4447   0.4416   0.4222     C
C       0.4594   0.1985   0.8585     C
C       0.4594   0.2609   0.8585     C
C       0.4598   0.1731   0.9915     C
C       0.4598   0.2867   0.9915     C
C       0.4617   0.1987   0.1264     C
C       0.4617    0.263   0.1264     C
C       0.4721   0.1076   0.0023     C
C       0.4721   0.3645   0.0023     C
O       0.4726   0.0736   0.1081     O
O       0.4726    0.399   0.1081     O
O       0.4732    0.075   0.8915     O
O       0.4732   0.3982   0.8915     O
C       0.4882   0.5566   0.5807     C
C       0.4882   0.9316   0.5807     C
C       0.4905   0.5554   0.4196     C
C       0.4905   0.9351   0.4196     C
Ni         0.5      0.0   0.1382    Ni
N          0.5      0.0   0.3561     N
N          0.5      0.0   0.6439     N
Ni         0.5      0.0   0.8618    Ni
Ni         0.5      0.5   0.1382    Ni
N          0.5      0.5   0.3561     N
N          0.5      0.5   0.6439     N
Ni         0.5      0.5   0.8618    Ni
C       0.5095   0.0649   0.5804     C
C       0.5095   0.4446   0.5804     C
C       0.5118   0.0684   0.4193     C
C       0.5118   0.4434   0.4193     C
O       0.5268   0.6018   0.1085     O
O       0.5268    0.925   0.1085     O
O       0.5274    0.601   0.8919     O
O       0.5274   0.9264   0.8919     O
C       0.5279   0.6355   0.9977     C
C       0.5279   0.8924   0.9977     C
C       0.5383    0.737   0.8736     C
C       0.5383   0.8013   0.8736     C
C       0.5402   0.7133   0.0085     C
C       0.5402   0.8269   0.0085     C
C       0.5406   0.7391   0.1415     C
C       0.5406   0.8015   0.1415     C
C       0.5553   0.5584   0.5778     C
C       0.5553   0.9969   0.5778     C
C       0.5554   0.0649   0.5804     C
C       0.5554   0.4905   0.5804     C
C       0.5566   0.0684   0.4193     C
C       0.5566   0.4882   0.4193     C
C       0.5584   0.0031   0.4222     C
C       0.5584   0.5553   0.4222     C
O        0.601   0.0736   0.1081     O
O        0.601   0.5274   0.1081     O
O       0.6018    0.075   0.8915     O
O       0.6018   0.5268   0.8915     O
C       0.6355   0.1076   0.0023     C
C       0.6355   0.5279   0.0023     C
C       0.7133   0.1731   0.9915     C
C       0.7133   0.5402   0.9915     C
C        0.737   0.1987   0.1264     C
C        0.737   0.5383   0.1264     C
C       0.7391   0.1985   0.8585     C
C       0.7391   0.5406   0.8585     C
C       0.8013    0.263   0.1264     C
C       0.8013   0.5383   0.1264     C
C       0.8015   0.2609   0.8585     C
C       0.8015   0.5406   0.8585     C
C       0.8269   0.2867   0.9915     C
C       0.8269   0.5402   0.9915     C
C       0.8924   0.3645   0.0023     C
C       0.8924   0.5279   0.0023     C
O        0.925   0.3982   0.8915     O
O        0.925   0.5268   0.8915     O
O       0.9264    0.399   0.1081     O
O       0.9264   0.5274   0.1081     O
C       0.9316   0.4434   0.4193     C
C       0.9316   0.4882   0.4193     C
C       0.9351   0.4446   0.5804     C
C       0.9351   0.4905   0.5804     C
C       0.9969   0.4416   0.4222     C
C       0.9969   0.5553   0.4222     C
