data_I
_chemical_name_common  '/home/zhangsd/repos/MofS-CGCNN/ML/data/WS24/clean_cifs/FIJFEK'
_cell_length_a 10.27920
_cell_length_b 10.27920
_cell_length_c 14.53760
_cell_angle_alpha 90.00000
_cell_angle_beta  90.00000
_cell_angle_gamma 90.00000
_space_group_name_H-M_alt      'P 1'


loop_
_space_group_symop_operation_xyz
  'x, y, z' 

loop_
_atom_site_label
_atom_site_fract_x
_atom_site_fract_y
_atom_site_fract_z
_atom_site_type_symbol
H          0.0    0.101      0.5     H
C          0.0    0.194      0.5     C
C          0.0    0.391      0.0     C
C          0.0    0.461      0.5     C
C          0.0    0.539      0.0     C
C          0.0    0.609      0.5     C
C          0.0    0.806      0.0     C
H          0.0    0.899      0.0     H
C       0.0405   0.3949   0.5769     C
C       0.0405   0.6051   0.9231     C
C        0.041    0.261   0.5767     C
C        0.041    0.739   0.9233     C
O       0.0691   0.1106   0.0979     O
O       0.0691   0.8894   0.4021     O
O       0.0709   0.3353   0.9418     O
O       0.0709   0.6647   0.5582     O
H       0.0733   0.4358   0.6283     H
H       0.0733   0.5642   0.8717     H
C       0.0857   0.1855   0.6598     C
C       0.0857   0.8145   0.8402     C
O       0.0919   0.2438   0.7353     O
O       0.0919   0.7562   0.7647     O
H        0.101      0.0     0.25     H
O       0.1106   0.0691   0.6521     O
O       0.1106   0.9309   0.8479     O
Tb     0.14871  0.14871    0.875    Tb
Tb     0.14871  0.85129    0.625    Tb
C       0.1855   0.0857   0.0902     C
C       0.1855   0.9143   0.4098     C
C        0.194      0.0     0.25     C
O       0.2438   0.0919   0.0147     O
O       0.2438   0.9081   0.4853     O
C        0.261    0.041   0.1733     C
C        0.261    0.959   0.3267     C
O       0.3353   0.0709   0.8082     O
O       0.3353   0.9291   0.6918     O
C        0.391      0.0     0.75     C
C       0.3949   0.0405   0.1731     C
C       0.3949   0.9595   0.3269     C
H       0.4358   0.0733   0.1217     H
H       0.4358   0.9267   0.3783     H
C        0.461      0.0     0.25     C
C        0.539      0.0     0.75     C
H       0.5642   0.0733   0.8783     H
H       0.5642   0.9267   0.6217     H
C       0.6051   0.0405   0.8269     C
C       0.6051   0.9595   0.6731     C
C        0.609      0.0     0.25     C
O       0.6647   0.0709   0.1918     O
O       0.6647   0.9291   0.3082     O
C        0.739    0.041   0.8267     C
C        0.739    0.959   0.6733     C
O       0.7562   0.0919   0.9853     O
O       0.7562   0.9081   0.5147     O
C        0.806      0.0     0.75     C
C       0.8145   0.0857   0.9098     C
C       0.8145   0.9143   0.5902     C
Tb     0.85129  0.14871    0.125    Tb
Tb     0.85129  0.85129    0.375    Tb
O       0.8894   0.0691   0.3479     O
O       0.8894   0.9309   0.1521     O
H        0.899      0.0     0.75     H
O       0.9081   0.2438   0.2647     O
O       0.9081   0.7562   0.2353     O
C       0.9143   0.1855   0.3402     C
C       0.9143   0.8145   0.1598     C
H       0.9267   0.4358   0.3717     H
H       0.9267   0.5642   0.1283     H
O       0.9291   0.3353   0.0582     O
O       0.9291   0.6647   0.4418     O
O       0.9309   0.1106   0.9021     O
O       0.9309   0.8894   0.5979     O
C        0.959    0.261   0.4233     C
C        0.959    0.739   0.0767     C
C       0.9595   0.3949   0.4231     C
C       0.9595   0.6051   0.0769     C
