data_I
_chemical_name_common  '/home/zhangsd/repos/MofS-CGCNN/ML/data/WS24/clean_cifs/FIVYOZ'
_cell_length_a 11.40070
_cell_length_b 11.56080
_cell_length_c 12.23140
_cell_angle_alpha 90.00000
_cell_angle_beta  90.00000
_cell_angle_gamma 111.59600
_space_group_name_H-M_alt      'P 1'


loop_
_space_group_symop_operation_xyz
  'x, y, z' 

loop_
_atom_site_label
_atom_site_fract_x
_atom_site_fract_y
_atom_site_fract_z
_atom_site_type_symbol
O       0.0004   0.1235   0.5553     O
H        0.012    0.062    0.588     H
C       0.0142   0.9337   0.7788     C
O       0.0149   0.9252   0.6747     O
H       0.0224   0.1166   0.0066     H
H       0.0482   0.6316   0.6447     H
C        0.059   0.6909    0.587     C
C       0.0599   0.1846   0.1598     C
H        0.062    0.864    0.414     H
C       0.0642   0.1879   0.0474     C
H       0.0643   0.6533   0.5182     H
O        0.069   0.0275   0.8318     O
Sn     0.09545   0.2517  0.41498    Sn
N       0.1191   0.2852   0.2215     N
C       0.1317   0.2991    0.996     C
H       0.1351   0.7617   0.5991     H
H       0.1376   0.3033   0.9202     H
H       0.1741   0.7321   0.9368     H
O        0.178   0.3831   0.5677     O
C       0.1828   0.3926   0.1716     C
C       0.1899   0.4033   0.0587     C
H       0.2239   0.4627   0.2139     H
O       0.2327   0.4636   0.4051     O
C       0.2357   0.4733   0.5075     C
H       0.2384   0.1352   0.4764     H
H        0.239    0.837   0.8511     H
C       0.2487    0.803   0.9205     C
C       0.2513    0.197   0.4205     C
H        0.261    0.163   0.3511     H
H       0.2616   0.8648   0.9764     H
C       0.2643   0.5267   0.0075     C
O       0.2673   0.5364   0.9051     O
H       0.2761   0.5373   0.7139     H
C       0.3101   0.5967   0.5587     C
C       0.3172   0.6074   0.6716     C
O        0.322   0.6169   0.0677     O
H       0.3259   0.2679   0.4368     H
H       0.3624   0.6967   0.4202     H
H       0.3649   0.2383   0.0991     H
C       0.3683   0.7009    0.496     C
N       0.3809   0.7148   0.7215     N
Sn     0.40455   0.7483  0.91498    Sn
O        0.431   0.9725   0.3318     O
H       0.4357   0.3467   0.0182     H
C       0.4358   0.8121   0.5474     C
H        0.438    0.136    0.914     H
C       0.4401   0.8154   0.6598     C
C        0.441   0.3091    0.087     C
H       0.4518   0.3684   0.1447     H
H       0.4776   0.8834   0.5066     H
O       0.4851   0.0748   0.1747     O
C       0.4858   0.0663   0.2788     C
H        0.488    0.938    0.088     H
O       0.4996   0.8765   0.0553     O
O       0.5004   0.1235   0.9447     O
H        0.512    0.062    0.912     H
C       0.5142   0.9337   0.7212     C
O       0.5149   0.9252   0.8253     O
H       0.5224   0.1166   0.4934     H
H       0.5482   0.6316   0.8553     H
C        0.559   0.6909    0.913     C
C       0.5599   0.1846   0.3402     C
H        0.562    0.864    0.086     H
C       0.5642   0.1879   0.4526     C
H       0.5643   0.6533   0.9818     H
O        0.569   0.0275   0.6682     O
Sn     0.59545   0.2517  0.08502    Sn
N       0.6191   0.2852   0.2785     N
C       0.6317   0.2991    0.504     C
H       0.6351   0.7617   0.9009     H
H       0.6376   0.3033   0.5798     H
H       0.6741   0.7321   0.5632     H
O        0.678   0.3831   0.9323     O
C       0.6828   0.3926   0.3284     C
C       0.6899   0.4033   0.4413     C
H       0.7239   0.4627   0.2861     H
O       0.7327   0.4636   0.0949     O
C       0.7357   0.4733   0.9925     C
H       0.7384   0.1352   0.0236     H
H        0.739    0.837   0.6489     H
C       0.7487    0.803   0.5795     C
C       0.7513    0.197   0.0795     C
H        0.761    0.163   0.1489     H
H       0.7616   0.8648   0.5236     H
C       0.7643   0.5267   0.4925     C
O       0.7673   0.5364   0.5949     O
H       0.7761   0.5373   0.7861     H
C       0.8101   0.5967   0.9413     C
C       0.8172   0.6074   0.8284     C
O        0.822   0.6169   0.4323     O
H       0.8259   0.2679   0.0632     H
H       0.8624   0.6967   0.0798     H
H       0.8649   0.2383   0.4009     H
C       0.8683   0.7009    0.004     C
N       0.8809   0.7148   0.7785     N
Sn     0.90455   0.7483  0.58502    Sn
O        0.931   0.9725   0.1682     O
H       0.9357   0.3467   0.4818     H
C       0.9358   0.8121   0.9526     C
H        0.938    0.136    0.586     H
C       0.9401   0.8154   0.8402     C
C        0.941   0.3091    0.413     C
H       0.9518   0.3684   0.3553     H
H       0.9776   0.8834   0.9934     H
O       0.9851   0.0748   0.3253     O
C       0.9858   0.0663   0.2212     C
H        0.988    0.938    0.412     H
O       0.9996   0.8765   0.4447     O
