data_I
_chemical_name_common  '/home/zhangsd/repos/MofS-CGCNN/ML/data/WS24/clean_cifs/FIVZEQ'
_cell_length_a 21.77907
_cell_length_b 21.77907
_cell_length_c 21.77907
_cell_angle_alpha 109.47122
_cell_angle_beta  109.47122
_cell_angle_gamma 109.47122
_space_group_name_H-M_alt      'P 1'


loop_
_space_group_symop_operation_xyz
  'x, y, z' 

loop_
_atom_site_label
_atom_site_fract_x
_atom_site_fract_y
_atom_site_fract_z
_atom_site_type_symbol
H       0.0092   0.7055   0.2133     H
C       0.0205   0.8324   0.4453     C
H        0.027   0.2934   0.7468     H
H       0.0286   0.1978   0.8014     H
O       0.0334   0.3322   0.6234     O
C       0.0372   0.6261   0.3377     C
N       0.0375   0.5859     0.22     N
C       0.0376   0.2513   0.7379     C
H       0.0416   0.2943   0.8925     H
H       0.0423   0.2688   0.4923     H
H       0.0432   0.5574   0.1254     H
H       0.0492   0.5936    0.799     H
O       0.0526   0.9044    0.485     O
H       0.0574   0.3422    0.852     H
O       0.0584   0.8002   0.4434     O
H       0.0595    0.662   0.8673     H
C       0.0607   0.4627   0.8484     C
C       0.0652   0.2457   0.8097     C
H       0.0687   0.4293   0.7536     H
H       0.0721   0.2105    0.482     H
C       0.0726   0.5822   0.1786     C
C       0.0732   0.3128   0.8724     C
O       0.0758   0.6622   0.4078     O
C       0.0801   0.6214   0.2955     C
H       0.0822   0.5142   0.9568     H
C       0.0851    0.262   0.5159     C
C       0.0859   0.6401   0.8474     C
H       0.0871   0.4319    0.213     H
Sn     0.09402  0.26789  0.61889    Sn
O       0.0956   0.1482   0.5806     O
H       0.0966   0.3088   0.4176     H
C       0.0972   0.4589   0.8069     C
C       0.1005    0.265   0.7179     C
C        0.106   0.5096   0.9274     C
H       0.1075   0.4018   0.1491     H
H       0.1088   0.6912   0.7878     H
H        0.112   0.8858   0.6046     H
H       0.1142   0.2262   0.7188     H
H       0.1142   0.2476   0.8238     H
H        0.115   0.6289   0.8829     H
H       0.1159   0.8059     0.35     H
H       0.1171    0.746   0.2321     H
H       0.1234     0.87   0.2822     H
H       0.1254   0.0432   0.5574     H
H       0.1259   0.3448   0.9129     H
C       0.1276   0.4404   0.2008     C
H         0.13   0.2534   0.4122     H
H       0.1327   0.7947   0.1922     H
H       0.1334   0.8858   0.7096     H
C       0.1384   0.6951   0.8361     C
H       0.1384   0.9279   0.4099     H
C        0.141   0.3049   0.4433     C
H       0.1444   0.3137   0.7607     H
H        0.148   0.4902   0.2054     H
O       0.1482   0.5806   0.0956     O
H       0.1491   0.1075   0.4018     H
C       0.1503   0.3149   0.5188     C
C       0.1516   0.6143   0.2123     C
C       0.1526   0.7927   0.2385     C
C       0.1578   0.6551   0.3315     C
H       0.1588   0.7466   0.8766     H
H       0.1621   0.3666   0.5501     H
C       0.1639    0.859   0.3023     C
C       0.1645   0.8995   0.6174     C
C       0.1646   0.8497   0.3685     C
C       0.1676   0.1881   0.6129     C
H       0.1692   0.9714   0.7728     H
H       0.1693   0.8556   0.6163     H
C       0.1737   0.4973   0.8422     C
Sn     0.17387  0.90598  0.52487    Sn
H       0.1762   0.4238   0.2904     H
C       0.1769   0.9149   0.4308     C
C       0.1786   0.0726   0.5822     C
C       0.1805   0.9348   0.7445     C
N       0.1825   0.5484   0.9625     N
H       0.1835   0.6334   0.7955     H
H       0.1864   0.6804   0.3848     H
C       0.1881   0.6129   0.1676     C
C       0.1903    0.436   0.2555     C
O       0.1904   0.3902   0.6936     O
H       0.1922   0.1327   0.7947     H
C       0.1931    0.652   0.2903     C
H       0.1941     0.31   0.5441     H
H       0.1978   0.8014   0.0286     H
H       0.1984    0.494   0.8136     H
H       0.1986   0.3964   0.2272     H
O       0.1998   0.2582   0.6432     O
O       0.1998   0.8096   0.5032     O
C       0.2008   0.1276   0.4404     C
H        0.201   0.7946   0.2502     H
C       0.2039   0.6851   0.8354     C
H       0.2041   0.6963   0.9908     H
H       0.2045   0.8379    0.388     H
H       0.2053    0.338   0.3975     H
H       0.2054    0.148   0.4902     H
H       0.2054   0.4064   0.4556     H
C       0.2073   0.3599   0.4458     C
H       0.2105    0.482   0.0721     H
H       0.2122   0.9034    0.321     H
C       0.2123   0.1516   0.6143     C
H        0.213   0.0871   0.4319     H
H       0.2133   0.0092   0.7055     H
C       0.2137   0.9624   0.7003     C
C       0.2154   0.5413   0.9199     C
H       0.2189   0.8741    0.787     H
N         0.22   0.0375   0.5859     N
H       0.2235   0.7312   0.7735     H
H       0.2262   0.7188   0.1142     H
H       0.2265   0.9577     0.45     H
H       0.2272   0.1986   0.3964     H
H       0.2321   0.1171    0.746     H
H       0.2341     0.69   0.8841     H
C       0.2385   0.1526   0.7927     C
H       0.2393    0.553   0.3837     H
C       0.2396   0.9268   0.7992     C
C       0.2457   0.8097   0.0652     C
H       0.2464   0.6757   0.3151     H
H       0.2476   0.8238   0.1142     H
H       0.2502    0.201   0.7946     H
C       0.2513   0.7379   0.0376     C
H       0.2527   0.9584   0.8509     H
H       0.2532   0.5466   0.2802     H
H       0.2534   0.4122     0.13     H
C       0.2539    0.738   0.8231     C
H        0.254   0.3711   0.4861     H
O       0.2544    0.668   0.5922     O
C       0.2555   0.1903    0.436     C
O       0.2582   0.6432   0.1998     O
C        0.262   0.5159   0.0851     C
C       0.2621   0.5134   0.2997     C
C        0.265   0.7179   0.1005     C
H       0.2664    0.973   0.7198     H
Sn     0.26789  0.61889  0.09402    Sn
H       0.2688   0.4923   0.0423     H
H       0.2715   0.7895   0.8616     H
H       0.2802   0.2532   0.5466     H
H       0.2812   0.5074   0.3954     H
C       0.2821   0.5471   0.3826     C
H       0.2822   0.1234     0.87     H
H       0.2848   0.9426   0.7946     H
C       0.2884   0.6995   0.6623     C
C       0.2903   0.1931    0.652     C
H       0.2904   0.1762   0.4238     H
O       0.2912   0.6678   0.7012     O
H       0.2934   0.7468    0.027     H
H       0.2943   0.8925   0.0416     H
H       0.2945   0.3037   0.5078     H
C       0.2955   0.0801   0.6214     C
H       0.2956   0.8016   0.6152     H
O       0.2988   0.9666     0.59     O
C       0.2997   0.2621   0.5134     C
C       0.3005   0.5889   0.9628     C
C       0.3023   0.1639    0.859     C
O       0.3034   0.6098   0.8002     O
H       0.3037   0.5078   0.2945     H
C       0.3049   0.4433    0.141     C
O       0.3064   0.6966   0.4968     O
H       0.3088   0.4176   0.0966     H
H         0.31   0.5441   0.1941     H
C       0.3128   0.8724   0.0732     C
H       0.3137   0.7607   0.1444     H
C       0.3149   0.5188   0.1503     C
H       0.3151   0.2464   0.6757     H
H       0.3196    0.506   0.7044     H
H        0.321   0.2122   0.9034     H
C       0.3236   0.8263   0.6685     C
H       0.3243   0.5707   0.6394     H
C       0.3259   0.7846   0.7045     C
C       0.3315   0.1578   0.6551     C
O        0.332   0.5864   0.9242     O
O       0.3322   0.6234   0.0334     O
C       0.3377   0.0372   0.6261     C
O       0.3378   0.4136   0.7456     O
H        0.338   0.3975   0.2053     H
H       0.3422    0.852   0.0574     H
H       0.3448   0.9129   0.1259     H
C       0.3449   0.5027   0.6764     C
C        0.348   0.5411   0.6383     C
H         0.35   0.1159   0.8059     H
Sn       0.351  0.73211  0.82613    Sn
O       0.3568    0.615   0.5566     O
C       0.3599   0.4458   0.2073     C
H       0.3606   0.9313   0.6849     H
C       0.3617   0.9028   0.7097     C
N       0.3659   0.8175     0.78     N
H       0.3666   0.5501   0.1621     H
C       0.3685   0.1646   0.8497     C
H       0.3711   0.4861    0.254     H
C       0.3739   0.4111   0.7116     C
O       0.3766   0.7088     0.41     O
C       0.3786   0.4587   0.6741     C
Sn     0.38111    0.649  0.47513    Sn
C       0.3826   0.2821   0.5471     C
H       0.3837   0.2393    0.553     H
H       0.3848   0.1864   0.6804     H
O        0.385   0.7418   0.9416     O
C       0.3857   0.5373    0.598     C
C       0.3871   0.5752   0.5547     C
H        0.388   0.2045   0.8379     H
O       0.3902   0.6936   0.1904     O
H       0.3954   0.2812   0.5074     H
H       0.3964   0.2272   0.1986     H
H       0.3975   0.2053    0.338     H
H       0.4018   0.1491   0.1075     H
C        0.402   0.9393   0.7877     C
C       0.4036    0.894   0.8214     C
H       0.4064   0.4556   0.2054     H
O       0.4078   0.0758   0.6622     O
H       0.4099   0.1384   0.9279     H
O         0.41   0.3766   0.7088     O
C       0.4111   0.7116   0.3739     C
H       0.4122     0.13   0.2534     H
O       0.4136   0.7456   0.3378     O
N       0.4141   0.4516   0.6341     N
H       0.4176   0.0966   0.3088     H
C       0.4178   0.4904   0.5964     C
O       0.4194   0.5676    0.515     O
H       0.4238   0.2904   0.1762     H
C       0.4248   0.8119   0.9795     C
H       0.4293   0.7536   0.0687     H
C       0.4308   0.1769   0.9149     C
H       0.4319    0.213   0.0871     H
H        0.432   0.9178   0.8746     H
O       0.4324   0.8518   0.9474     O
C        0.436   0.2555   0.1903     C
C       0.4404   0.2008   0.1276     C
H       0.4426   0.4858    0.568     H
C       0.4433    0.141   0.3049     C
O       0.4434   0.0584   0.8002     O
C       0.4453   0.0205   0.8324     C
C       0.4458   0.2073   0.3599     C
H        0.447   0.6863   0.8307     H
H       0.4499   0.8165    0.612     H
H         0.45   0.2265   0.9577     H
N       0.4516   0.6341   0.4141     N
C       0.4529    0.735   0.8355     C
H       0.4534   0.7066   0.7336     H
H       0.4556   0.2054   0.4064     H
H       0.4559   0.7659     0.65     H
C       0.4587   0.6741   0.3786     C
C       0.4589   0.8069   0.0972     C
C       0.4627   0.8484   0.0607     C
Sn     0.47513  0.38111    0.649    Sn
C       0.4812   0.7961   0.6315     C
H        0.482   0.0721   0.2105     H
C       0.4841   0.7461   0.5692     C
O        0.485   0.0526   0.9044     O
H       0.4858    0.568   0.4426     H
H       0.4861    0.254   0.3711     H
C       0.4866   0.7487   0.7863     C
H       0.4902   0.2054    0.148     H
C       0.4904   0.5964   0.4178     C
H       0.4922   0.7959   0.7867     H
H       0.4923   0.0423   0.2688     H
H       0.4926   0.7738    0.888     H
H        0.494   0.8136   0.1984     H
O       0.4968   0.3064   0.6966     O
C       0.4973   0.8422   0.1737     C
C       0.5027   0.6764   0.3449     C
O       0.5032   0.1998   0.8096     O
H        0.506   0.7044   0.3196     H
H       0.5074   0.3954   0.2812     H
H       0.5077   0.7765     0.55     H
H       0.5078   0.2945   0.3037     H
C       0.5096   0.9274    0.106     C
H       0.5098   0.6578   0.7152     H
C       0.5134   0.2997   0.2621     C
H       0.5139    0.885   0.7679     H
H       0.5142   0.9568   0.0822     H
O        0.515   0.4194   0.5676     O
C       0.5159   0.0851    0.262     C
H        0.518   0.7285   0.5901     H
C       0.5188   0.1503   0.3149     C
Sn     0.52487  0.17387  0.90598    Sn
C       0.5373    0.598   0.3857     C
C       0.5411   0.6383    0.348     C
C       0.5413   0.9199   0.2154     C
H       0.5441   0.1941     0.31     H
H       0.5444   0.9508   0.7498     H
H       0.5466   0.2802   0.2532     H
C       0.5471   0.3826   0.2821     C
N       0.5484   0.9625   0.1825     N
H         0.55   0.5077   0.7765     H
H       0.5501   0.1621   0.3666     H
H        0.553   0.3837   0.2393     H
C       0.5542   0.9141   0.7615     C
C       0.5547   0.3871   0.5752     C
O       0.5566   0.3568    0.615     O
C       0.5567   0.8616   0.6977     C
H       0.5574   0.1254   0.0432     H
C       0.5596   0.6872   0.7604     C
C        0.564   0.7543   0.8195     C
O       0.5676    0.515   0.4194     O
H        0.568   0.4426   0.4858     H
H       0.5681   0.6552   0.7811     H
C       0.5692   0.4841   0.7461     C
H       0.5707   0.6394   0.3243     H
C       0.5752   0.5547   0.3871     C
H       0.5762   0.7524   0.8666     H
O       0.5806   0.0956   0.1482     O
C       0.5822   0.1786   0.0726     C
H       0.5824   0.8912    0.679     H
N       0.5859     0.22   0.0375     N
O       0.5864   0.9242    0.332     O
H       0.5878   0.8412   0.7178     H
C       0.5889   0.9628   0.3005     C
O         0.59   0.2988   0.9666     O
H       0.5901    0.518   0.7285     H
O       0.5922   0.2544    0.668     O
H       0.5936    0.799   0.0492     H
C       0.5964   0.4178   0.4904     C
C        0.598   0.3857   0.5373     C
H       0.5982   0.7057   0.7473     H
H       0.6025   0.9405   0.8078     H
H       0.6036   0.8022   0.8308     H
H       0.6046    0.112   0.8858     H
O       0.6098   0.8002   0.3034     O
H        0.612   0.4499   0.8165     H
C       0.6129   0.1676   0.1881     C
C       0.6143   0.2123   0.1516     C
O        0.615   0.5566   0.3568     O
H       0.6152   0.2956   0.8016     H
H       0.6163   0.1693   0.8556     H
C       0.6174   0.1645   0.8995     C
Sn     0.61889  0.09402  0.26789    Sn
C       0.6214   0.2955   0.0801     C
O       0.6234   0.0334   0.3322     O
C       0.6261   0.3377   0.0372     C
H       0.6289   0.8829    0.115     H
C       0.6315   0.4812   0.7961     C
H       0.6334   0.7955   0.1835     H
N       0.6341   0.4141   0.4516     N
C       0.6383    0.348   0.5411     C
H       0.6394   0.3243   0.5707     H
C       0.6401   0.8474   0.0859     C
O       0.6432   0.1998   0.2582     O
Sn       0.649  0.47513  0.38111    Sn
H         0.65   0.4559   0.7659     H
C        0.652   0.2903   0.1931     C
C       0.6551   0.3315   0.1578     C
H       0.6552   0.7811   0.5681     H
H       0.6578   0.7152   0.5098     H
H        0.662   0.8673   0.0595     H
O       0.6622   0.4078   0.0758     O
C       0.6623   0.2884   0.6995     C
O       0.6678   0.7012   0.2912     O
O        0.668   0.5922   0.2544     O
C       0.6685   0.3236   0.8263     C
C       0.6741   0.3786   0.4587     C
H       0.6757   0.3151   0.2464     H
C       0.6764   0.3449   0.5027     C
H        0.679   0.5824   0.8912     H
H       0.6804   0.3848   0.1864     H
H       0.6849   0.3606   0.9313     H
C       0.6851   0.8354   0.2039     C
H       0.6863   0.8307    0.447     H
C       0.6872   0.7604   0.5596     C
H         0.69   0.8841   0.2341     H
H       0.6912   0.7878   0.1088     H
O       0.6936   0.1904   0.3902     O
C       0.6951   0.8361   0.1384     C
H       0.6963   0.9908   0.2041     H
O       0.6966   0.4968   0.3064     O
C       0.6977   0.5567   0.8616     C
C       0.6995   0.6623   0.2884     C
C       0.7003   0.2137   0.9624     C
O       0.7012   0.2912   0.6678     O
H       0.7044   0.3196    0.506     H
C       0.7045   0.3259   0.7846     C
H       0.7055   0.2133   0.0092     H
H       0.7057   0.7473   0.5982     H
H       0.7066   0.7336   0.4534     H
O       0.7088     0.41   0.3766     O
H       0.7096   0.1334   0.8858     H
C       0.7097   0.3617   0.9028     C
C       0.7116   0.3739   0.4111     C
H       0.7152   0.5098   0.6578     H
H       0.7178   0.5878   0.8412     H
C       0.7179   0.1005    0.265     C
H       0.7188   0.1142   0.2262     H
H       0.7198   0.2664    0.973     H
H       0.7285   0.5901    0.518     H
H       0.7312   0.7735   0.2235     H
Sn     0.73211  0.82613    0.351    Sn
H       0.7336   0.4534   0.7066     H
C        0.735   0.8355   0.4529     C
C       0.7379   0.0376   0.2513     C
C        0.738   0.8231   0.2539     C
O       0.7418   0.9416    0.385     O
C       0.7445   0.1805   0.9348     C
O       0.7456   0.3378   0.4136     O
H        0.746   0.2321   0.1171     H
C       0.7461   0.5692   0.4841     C
H       0.7466   0.8766   0.1588     H
H       0.7468    0.027   0.2934     H
H       0.7473   0.5982   0.7057     H
C       0.7487   0.7863   0.4866     C
H       0.7498   0.5444   0.9508     H
H       0.7524   0.8666   0.5762     H
H       0.7536   0.0687   0.4293     H
C       0.7543   0.8195    0.564     C
C       0.7604   0.5596   0.6872     C
H       0.7607   0.1444   0.3137     H
C       0.7615   0.5542   0.9141     C
H       0.7659     0.65   0.4559     H
H       0.7679   0.5139    0.885     H
H       0.7728   0.1692   0.9714     H
H       0.7735   0.2235   0.7312     H
H       0.7738    0.888   0.4926     H
H       0.7765     0.55   0.5077     H
N         0.78   0.3659   0.8175     N
H       0.7811   0.5681   0.6552     H
C       0.7846   0.7045   0.3259     C
C       0.7863   0.4866   0.7487     C
H       0.7867   0.4922   0.7959     H
H        0.787   0.2189   0.8741     H
C       0.7877    0.402   0.9393     C
H       0.7878   0.1088   0.6912     H
H       0.7895   0.8616   0.2715     H
C       0.7927   0.2385   0.1526     C
H       0.7946   0.2502    0.201     H
H       0.7946   0.2848   0.9426     H
H       0.7947   0.1922   0.1327     H
H       0.7955   0.1835   0.6334     H
H       0.7959   0.7867   0.4922     H
C       0.7961   0.6315   0.4812     C
H        0.799   0.0492   0.5936     H
C       0.7992   0.2396   0.9268     C
O       0.8002   0.3034   0.6098     O
O       0.8002   0.4434   0.0584     O
H       0.8014   0.0286   0.1978     H
H       0.8016   0.6152   0.2956     H
H       0.8022   0.8308   0.6036     H
H       0.8059     0.35   0.1159     H
C       0.8069   0.0972   0.4589     C
H       0.8078   0.6025   0.9405     H
O       0.8096   0.5032   0.1998     O
C       0.8097   0.0652   0.2457     C
C       0.8119   0.9795   0.4248     C
H       0.8136   0.1984    0.494     H
H       0.8165    0.612   0.4499     H
N       0.8175     0.78   0.3659     N
C       0.8195    0.564   0.7543     C
C       0.8214   0.4036    0.894     C
C       0.8231   0.2539    0.738     C
H       0.8238   0.1142   0.2476     H
Sn     0.82613    0.351  0.73211    Sn
C       0.8263   0.6685   0.3236     C
H       0.8307    0.447   0.6863     H
H       0.8308   0.6036   0.8022     H
C       0.8324   0.4453   0.0205     C
C       0.8354   0.2039   0.6851     C
C       0.8355   0.4529    0.735     C
C       0.8361   0.1384   0.6951     C
H       0.8379    0.388   0.2045     H
H       0.8412   0.7178   0.5878     H
C       0.8422   0.1737   0.4973     C
C       0.8474   0.0859   0.6401     C
C       0.8484   0.0607   0.4627     C
C       0.8497   0.3685   0.1646     C
H       0.8509   0.2527   0.9584     H
O       0.8518   0.9474   0.4324     O
H        0.852   0.0574   0.3422     H
H       0.8556   0.6163   0.1693     H
C        0.859   0.3023   0.1639     C
H       0.8616   0.2715   0.7895     H
C       0.8616   0.6977   0.5567     C
H       0.8666   0.5762   0.7524     H
H       0.8673   0.0595    0.662     H
H         0.87   0.2822   0.1234     H
C       0.8724   0.0732   0.3128     C
H       0.8741    0.787   0.2189     H
H       0.8746    0.432   0.9178     H
H       0.8766   0.1588   0.7466     H
H       0.8829    0.115   0.6289     H
H       0.8841   0.2341     0.69     H
H        0.885   0.7679   0.5139     H
H       0.8858   0.6046    0.112     H
H       0.8858   0.7096   0.1334     H
H        0.888   0.4926   0.7738     H
H       0.8912    0.679   0.5824     H
H       0.8925   0.0416   0.2943     H
C        0.894   0.8214   0.4036     C
C       0.8995   0.6174   0.1645     C
C       0.9028   0.7097   0.3617     C
H       0.9034    0.321   0.2122     H
O       0.9044    0.485   0.0526     O
Sn     0.90598  0.52487  0.17387    Sn
H       0.9129   0.1259   0.3448     H
C       0.9141   0.7615   0.5542     C
C       0.9149   0.4308   0.1769     C
H       0.9178   0.8746    0.432     H
C       0.9199   0.2154   0.5413     C
O       0.9242    0.332   0.5864     O
C       0.9268   0.7992   0.2396     C
C       0.9274    0.106   0.5096     C
H       0.9279   0.4099   0.1384     H
H       0.9313   0.6849   0.3606     H
C       0.9348   0.7445   0.1805     C
C       0.9393   0.7877    0.402     C
H       0.9405   0.8078   0.6025     H
O       0.9416    0.385   0.7418     O
H       0.9426   0.7946   0.2848     H
O       0.9474   0.4324   0.8518     O
H       0.9508   0.7498   0.5444     H
H       0.9568   0.0822   0.5142     H
H       0.9577     0.45   0.2265     H
H       0.9584   0.8509   0.2527     H
C       0.9624   0.7003   0.2137     C
N       0.9625   0.1825   0.5484     N
C       0.9628   0.3005   0.5889     C
O       0.9666     0.59   0.2988     O
H       0.9714   0.7728   0.1692     H
H        0.973   0.7198   0.2664     H
C       0.9795   0.4248   0.8119     C
H       0.9908   0.2041   0.6963     H
