data_I
_chemical_name_common  '/home/zhangsd/repos/MofS-CGCNN/ML/data/WS24/clean_cifs/FIVZIU'
_cell_length_a 17.87800
_cell_length_b 17.95800
_cell_length_c 18.05300
_cell_angle_alpha 102.15100
_cell_angle_beta  104.81500
_cell_angle_gamma 119.64500
_space_group_name_H-M_alt      'P 1'


loop_
_space_group_symop_operation_xyz
  'x, y, z' 

loop_
_atom_site_label
_atom_site_fract_x
_atom_site_fract_y
_atom_site_fract_z
_atom_site_type_symbol
H       0.0023   0.5104   0.4594     H
H       0.0048   0.5674   0.8686     H
C       0.0051   0.6311   0.0508     C
N       0.0069   0.6748   0.2367     N
H       0.0078   0.7812   0.0403     H
H       0.0097   0.4407   0.7623     H
O       0.0106   0.1371   0.7616     O
H       0.0125   0.7005   0.9248     H
C       0.0193   0.1187   0.0034     C
C       0.0195   0.8141   0.2314     C
H       0.0287   0.1361   0.1206     H
C       0.0293   0.5975   0.9263     C
C       0.0316   0.2767   0.7622     C
C       0.0318   0.4151   0.0353     C
C       0.0339   0.2587   0.2615     C
C       0.0339   0.6775     0.96     C
H       0.0358   0.3771   0.9236     H
C       0.0372   0.2141   0.9935     C
C       0.0372   0.4084   0.7604     C
H       0.0377     0.13   0.8997     H
H       0.0378   0.9406   0.0237     H
H       0.0577   0.2946   0.1039     H
H       0.0588   0.5101   0.9571     H
C       0.0591   0.1647   0.0899     C
C       0.0608   0.7841   0.7388     C
C       0.0616   0.5635   0.9793     C
C       0.0648   0.1613   0.9575     C
C       0.0682   0.5457   0.4863     C
O       0.0692   0.2126    0.266     O
C       0.0705   0.7235   0.0462     C
H        0.073   0.6792   0.7408     H
H       0.0734    0.777   0.0684     H
H       0.0748   0.6352   0.4478     H
C       0.0767   0.2597   0.0799     C
O       0.0773   0.3385   0.2593     O
H        0.079   0.5873    0.604     H
H       0.0805   0.9035   0.7332     H
H       0.0905   0.5216   0.3818     H
O       0.0935   0.8362   0.2168     O
H       0.0972   0.4544   0.0672     H
C       0.0983   0.6094   0.0654     C
C       0.1028   0.6894   0.0991     C
C       0.1053    0.739   0.7415     C
C       0.1087   0.8718   0.7358     C
C       0.1117   0.6206   0.4792     C
C       0.1141    0.592   0.5729     C
C       0.1168    0.313   0.7556     C
H       0.1198   0.5865   0.1007     H
C       0.1206   0.5521   0.4398     C
C       0.1235   0.4489   0.7544     C
H       0.1238   0.0301   0.3321     H
C       0.1269    0.655   0.9743     C
H        0.127   0.1205   0.3627     H
C       0.1332   0.1557   0.0083     C
O       0.1344   0.5833   0.7484     O
H       0.1427   0.2791    0.754     H
C       0.1444   0.2533   0.1306     C
O       0.1477   0.6205   0.2473     O
C       0.1501     0.25   0.9978     C
H       0.1524   0.1212   0.9843     H
H       0.1525   0.7134   0.5923     H
C       0.1576   0.0952    0.342     C
S       0.1576   0.1077   0.2484     S
C        0.158   0.6672   0.5658     C
Sn     0.16038  0.76389  0.23206    Sn
C        0.163   0.3976   0.7515     C
C       0.1635   0.7011   0.0604     C
H       0.1639   0.2812   0.4105     H
H       0.1678   0.6628   0.9488     H
H       0.1709   0.4924   0.2566     H
C       0.1728   0.2013   0.0948     C
C       0.1732   0.5418   0.7521     C
C       0.1742   0.5289   0.4864     C
H       0.1783   0.9916   0.2205     H
H       0.1792   0.4823     0.46     H
H       0.1806   0.2786   0.9671     H
C       0.1894   0.2957   0.0843     C
N       0.1933   0.7786   0.7451     N
H       0.1964   0.4347   0.4187     H
C       0.1982   0.9118   0.7368     C
H       0.2016   0.7284   0.3975     H
Sn     0.21008  0.31966  0.26426    Sn
C       0.2126   0.6453    0.613     C
C       0.2164   0.0561   0.2288     C
H       0.2182   0.1971   0.1286     H
C       0.2182   0.8342   0.3641     C
H       0.2185   0.7049   0.8971     H
C       0.2192   0.6063   0.4803     C
H       0.2203   0.4217   0.7468     H
C       0.2204   0.5759    0.573     C
H       0.2218   0.1281   0.3826     H
C       0.2237   0.7908   0.4186     C
C       0.2243   0.3369   0.4409     C
H       0.2263   0.0601   0.1796     H
H       0.2289   0.7399   0.0924     H
C       0.2296   0.5188   0.2544     C
C       0.2296   0.6551   0.2475     C
H       0.2301   0.9694   0.7332     H
O       0.2329   0.2112   0.2734     O
H       0.2331   0.3389   0.5553     H
C       0.2386   0.8638   0.7434     C
C       0.2437   0.4287   0.4457     C
H       0.2464   0.3551   0.1113     H
H       0.2478   0.9569   0.3599     H
C       0.2513   0.9276   0.3961     C
H       0.2544   0.6115   0.4492     H
O       0.2548   0.5756     0.75     O
H       0.2566   0.5609   0.6044     H
C       0.2618   0.8402   0.5043     C
H       0.2652   0.8109   0.5405     H
C       0.2657   0.6529   0.5669     C
C       0.2658   0.3714   0.5277     C
H       0.2659   0.4925   0.5635     H
N       0.2699   0.4717   0.2571     N
O       0.2705   0.8922   0.2288     O
C       0.2719   0.6037   0.2487     C
C       0.2727   0.3852   0.3992     C
O       0.2761    0.738   0.2463     O
H       0.2766   0.0884   0.2758     H
C        0.284   0.7483   0.9257     C
Sn     0.28461  0.71419  0.74799    Sn
C       0.2854   0.4633   0.5325     C
C       0.2897   0.9774   0.4817     C
H       0.2899   0.7711   0.0422     H
C       0.2949   0.9337   0.5359     C
H       0.3117   0.0399   0.5028     H
H       0.3207   0.9669   0.5932     H
C       0.3269    0.788   0.0126     C
H       0.3294   0.6612   0.8966     H
H       0.3316   0.6887   0.5938     H
C       0.3386   0.9036   0.7445     C
C       0.3394   0.7737   0.8817     C
C       0.3435   0.3765   0.4398     C
O       0.3484   0.3788    0.264     O
C       0.3506   0.7223   0.9256     C
C       0.3528   0.5087   0.2516     C
C       0.3561   0.4546   0.5732     C
C        0.359   0.6417   0.2447     C
H        0.363   0.3474   0.4088     H
C        0.363   0.4684    0.445     C
H       0.3636   0.8995   0.8959     H
O       0.3643   0.8505   0.7433     O
S       0.3672    0.924   0.2296     S
C        0.371   0.8649   0.9251     C
H       0.3753   0.0259   0.1717     H
O       0.3831   0.9814   0.7486     O
H       0.3838   0.4777   0.6313     H
C       0.3851   0.4112   0.5266     C
H       0.3907   0.7004   0.2429     H
C       0.3931   0.7614   0.0125     C
C       0.3956   0.4532    0.255     C
H       0.3956   0.5009   0.4174     H
H       0.3962   0.2116   0.2042     H
C       0.3983   0.5923   0.2434     C
H       0.4003   0.7266   0.0417     H
C       0.4047   0.5031   0.5318     C
H        0.405   0.0705   0.2678     H
C        0.411   0.0336   0.2259     C
C       0.4136   0.9043    0.012     C
O       0.4198   0.7374   0.7579     O
H       0.4209   0.3006   0.2723     H
C       0.4249   0.8527   0.0556     C
H       0.4275   0.9053   0.3446     H
H       0.4325   0.4053   0.5536     H
H       0.4345   0.6468   0.8627     H
H       0.4346   0.9653    0.041     H
C       0.4374   0.8389   0.9242     C
H       0.4385   0.0004   0.3701     H
C       0.4421   0.2621   0.2579     C
C        0.444   0.9592    0.332     C
S       0.4483   0.6705   0.7461     S
H        0.449   0.2373   0.2993     H
H       0.4538   0.8793   0.1137     H
H       0.4547   0.0778   0.9603     H
H       0.4547   0.6152   0.2371     H
H       0.4627   0.2669   0.1131     H
H       0.4651   0.5588   0.5621     H
O       0.4695   0.4833   0.2471     O
H       0.4743    0.856   0.8946     H
H       0.4766   0.0646   0.2362     H
C       0.4798   0.8784   0.0111     C
C       0.4866   0.6704   0.8471     C
H       0.4914   0.3687   0.1538     H
H       0.4919   0.0086   0.6625     H
H       0.5081   0.9914   0.3375     H
H       0.5086   0.6313   0.8462     H
C       0.5134   0.3296   0.1529     C
C       0.5202   0.1216   0.9889     C
H       0.5234   0.9354   0.7638     H
H       0.5257    0.144   0.1054     H
O       0.5305   0.5167   0.7529     O
H       0.5349   0.4412   0.4379     H
H       0.5373   0.7331   0.8869     H
H       0.5453   0.3848   0.7629     H
H       0.5453   0.9222   0.0397     H
H       0.5462   0.1207   0.8863     H
H        0.551   0.7627   0.7007     H
S       0.5517   0.3295   0.2539     S
C        0.556   0.0408    0.668     C
C       0.5579   0.7379   0.7421     C
H       0.5615   0.9996   0.6299     H
C       0.5626   0.1611   0.0758     C
H       0.5654   0.0347    0.959     H
H       0.5655   0.3532   0.1373     H
H       0.5675   0.5947   0.4464     H
H       0.5725   0.0947   0.6554     H
C       0.5751   0.1473   0.9444     C
H       0.5791   0.6994   0.7277     H
O       0.5802   0.2626   0.2421     O
C       0.5864   0.0957    0.988     C
C        0.589   0.9664   0.7741     C
H        0.595   0.9295   0.7322     H
C       0.5953   0.4969   0.4682     C
H       0.5997   0.2734   0.9583     H
C       0.6017   0.4077   0.7566     C
H       0.6038   0.7884   0.7958     H
H       0.6044   0.4991   0.5826     H
C       0.6044   0.5468    0.745     C
C       0.6069   0.2386   0.9875     C
H       0.6093   0.2996   0.7571     H
C       0.6149   0.5888   0.4734     C
H       0.6162   0.5223   0.3687     H
O       0.6169   0.0186   0.2514     O
H       0.6247   0.9741   0.8283     H
C        0.629   0.1351   0.0749     C
S       0.6328    0.076   0.7704     S
O       0.6357   0.1495   0.2567     O
H       0.6364   0.1005   0.1041     H
C        0.637   0.5316    0.555     C
H        0.637   0.6526   0.5912     H
C        0.641   0.3583   0.7553     C
C       0.6439   0.5454   0.4268     C
C       0.6472   0.4913   0.7484     C
C       0.6494   0.2777   0.0744     C
O       0.6516   0.6212    0.736     O
C       0.6565   0.6235   0.5602     C
C       0.6606   0.2263   0.1183     C
C       0.6614   0.0964   0.2555     C
H       0.6684   0.3113   0.4062     H
H       0.6706   0.3388   0.1034     H
C       0.6731    0.212   0.9874     C
H       0.6793   0.0331   0.4068     H
H       0.6883   0.9601   0.4972     H
C       0.7051   0.0663   0.4641     C
H       0.7101   0.2289   0.9578     H
C       0.7103   0.0226   0.5183     C
C       0.7146   0.5367   0.4675     C
Sn     0.71539  0.28581  0.25201    Sn
C        0.716   0.2517   0.0743     C
H       0.7234   0.9116   0.7242     H
O       0.7239    0.262   0.7537     O
C       0.7273   0.6148   0.6008     C
C       0.7281   0.3963   0.7513     C
O       0.7295   0.1078   0.7712     O
N       0.7301   0.5283   0.7429     N
H       0.7341   0.5075   0.4365     H
C       0.7342   0.6286   0.4723     C
C       0.7343   0.3471   0.4331     C
H       0.7348   0.1891   0.4595     H
C       0.7382   0.1598   0.4957     C
H       0.7434   0.4391   0.3956     H
O       0.7452   0.4244     0.25     O
H       0.7456   0.3885   0.5508     H
C       0.7487   0.0724   0.6039     C
H       0.7522   0.0431   0.6401     H
H       0.7536   0.6449   0.8887     H
C       0.7563   0.5713   0.5543     C
C       0.7614   0.1362   0.2566     C
H       0.7669   0.6611   0.4447     H
O       0.7671   0.7888   0.7266     O
H       0.7699   0.0306   0.2668     H
C       0.7704   0.3449   0.7525     C
C       0.7704   0.4812   0.7456     C
H       0.7711   0.2601   0.9076     H
H       0.7737   0.9399   0.8204     H
C       0.7757   0.6631   0.5591     C
C       0.7763   0.2092   0.5814     C
H       0.7782   0.8719   0.6174     H
C       0.7796   0.4241    0.427     C
H       0.7797   0.5783   0.2532     H
C       0.7808   0.3937   0.5197     C
H       0.7815   0.2951   0.1029     H
C       0.7818   0.1658   0.6359     C
H       0.7818   0.8029   0.8714     H
C       0.7836   0.9439   0.7712     C
C       0.7874   0.3547    0.387     C
Sn     0.78992  0.68034  0.73574    Sn
H       0.7984   0.2716   0.6025     H
C       0.8018   0.0882   0.2632     C
H       0.8036   0.5653   0.5813     H
N       0.8067   0.2214   0.2549     N
C       0.8106   0.7043   0.9157     C
H       0.8194   0.7214   0.0329     H
H       0.8208   0.5177     0.54     H
H       0.8217   0.0084   0.7795     H
C       0.8258   0.4711   0.5136     C
C       0.8268   0.4582   0.2479     C
C       0.8272   0.7987   0.9052     C
H       0.8291   0.5076   0.7434     H
H       0.8322   0.3372   0.0512     H
H       0.8361   0.7188   0.5895     H
C       0.8365   0.2989   0.9396     C
C        0.837   0.6024   0.2485     C
Sn     0.83962  0.23611  0.76794    Sn
C        0.842   0.3328   0.4342     C
S       0.8424   0.8923   0.7516     S
C       0.8424   0.9048    0.658     C
H       0.8475   0.2866   0.4077     H
H       0.8476   0.8788   0.0157     H
C       0.8499     0.75   0.0022     C
O       0.8523   0.3795   0.7527     O
C       0.8556   0.7467   0.8694     C
H       0.8573   0.7209    0.246     H
O       0.8656   0.4167   0.2516     O
C       0.8668   0.8443   0.9917     C
H        0.873   0.8795   0.6373     H
C       0.8731    0.345   0.0257     C
H       0.8762   0.9699   0.6679     H
C       0.8765   0.5511   0.2456     C
C       0.8794   0.4479   0.5602     C
H       0.8802   0.4135   0.8993     H
C       0.8832    0.687   0.2444     C
C       0.8859    0.408   0.4271     C
C       0.8883   0.3794   0.5208     C
C       0.8913   0.1282   0.2642     C
C       0.8947    0.261   0.2585     C
C       0.8972   0.3106   0.9009     C
C       0.9017   0.3906   0.9346     C
H       0.9028   0.5456   0.9328     H
O       0.9065   0.1638   0.7832     O
H       0.9095   0.4784   0.6182     H
H       0.9195   0.0965   0.2668     H
H        0.921   0.4127    0.396     H
O       0.9227   0.6615   0.7407     O
C       0.9233   0.7403   0.9201     C
H       0.9252   0.3648   0.5522     H
H       0.9266    0.223   0.9316     H
H        0.927   0.3208   0.2592     H
C       0.9295   0.2765   0.9538     C
O       0.9308   0.7874    0.734     O
C       0.9318   0.4543   0.5137     C
C       0.9352   0.8387   0.0425     C
C       0.9384   0.4365   0.0207     C
C       0.9392   0.2159   0.2612     C
C       0.9409   0.8353   0.9101     C
H       0.9412   0.4899   0.0429     H
H       0.9423   0.7054   0.8961     H
H       0.9622   0.0594   0.9763     H
H       0.9623     0.87   0.1003     H
C       0.9628   0.5916   0.2396     C
C       0.9628   0.7859   0.0065     C
H       0.9642   0.6229   0.0764     H
C       0.9661   0.3225     0.04     C
C       0.9661   0.7413   0.7385     C
C       0.9682   0.5849   0.9647     C
C       0.9684   0.7233   0.2378     C
C       0.9707   0.4025   0.0737     C
H       0.9713   0.8639   0.8794     H
C       0.9805   0.1859   0.7686     C
C       0.9807   0.8813   0.9966     C
H       0.9875   0.2995   0.0752     H
O       0.9894   0.8629   0.2384     O
H       0.9903   0.5593   0.2377     H
H       0.9922   0.2188   0.9597     H
N       0.9931   0.3252   0.7633     N
C       0.9949   0.3689   0.9492     C
H       0.9952   0.4326   0.1314     H
H       0.9977   0.4896   0.5406     H
