data_I
_chemical_name_common  '/home/zhangsd/repos/MofS-CGCNN/ML/data/WS24/clean_cifs/FIVZAM'
_cell_length_a 16.21400
_cell_length_b 16.21400
_cell_length_c 17.23000
_cell_angle_alpha 90.00000
_cell_angle_beta  90.00000
_cell_angle_gamma 120.00000
_space_group_name_H-M_alt      'P 1'


loop_
_space_group_symop_operation_xyz
  'x, y, z' 

loop_
_atom_site_label
_atom_site_fract_x
_atom_site_fract_y
_atom_site_fract_z
_atom_site_type_symbol
C       0.0022   0.6812   0.5776     C
C       0.0022   0.6812   0.9224     C
H       0.0071   0.3816   0.0884     H
H       0.0071   0.3816   0.4116     H
O       0.0179   0.4137     0.25     O
H       0.0225   0.2864   0.5336     H
H       0.0225   0.2864   0.9664     H
H       0.0237   0.4123   0.5781     H
H       0.0237   0.4123   0.9219     H
C        0.026   0.7049   0.0087     C
C        0.026   0.7049   0.4913     C
C        0.032    0.624   0.0464     C
C        0.032    0.624   0.4536     C
H       0.0343   0.5833    0.007     H
H       0.0343   0.5833    0.493     H
H       0.0345   0.6563     0.25     H
C       0.0467   0.7859     0.25     C
H       0.0565   0.3194   0.0897     H
H       0.0565   0.3194   0.4103     H
C       0.0582   0.2462     0.75     C
H       0.0638   0.5134    0.681     H
H       0.0638   0.5134    0.819     H
H       0.0743   0.1662     0.25     H
Sn     0.07497   0.7406     0.75    Sn
C       0.0781   0.7212     0.25     C
C       0.0815   0.7538    0.627     C
C       0.0815   0.7538    0.873     C
N       0.0862    0.292     0.25     N
H       0.0868   0.7634    0.014     H
H       0.0868   0.7634    0.486     H
O        0.087   0.1881     0.75     O
H       0.0877   0.6488   0.0781     H
H       0.0877   0.6488   0.4219     H
H       0.0884   0.8153   0.6147     H
H       0.0884   0.8153   0.8853     H
H       0.0919   0.9257     0.25     H
O       0.1011    0.913     0.75     O
C       0.1117    0.456     0.25     C
C       0.1132    0.882     0.25     C
O       0.1155   0.3361     0.75     O
C        0.118   0.2312     0.25     C
C         0.13   0.5343   0.6729     C
C         0.13   0.5343   0.8271     C
H       0.1387     0.48   0.6701     H
H       0.1387     0.48   0.8299     H
H       0.1396   0.7558   0.6104     H
H       0.1396   0.7558   0.8896     H
H       0.1509   0.5696   0.6253     H
H       0.1509   0.5696   0.8747     H
C       0.1517   0.3895     0.25     C
O       0.1623   0.5386     0.25     O
H       0.1662   0.0919     0.75     H
C       0.1753   0.7532     0.25     C
O       0.1845   0.6952     0.75     O
H       0.1847   0.2731   0.6147     H
H       0.1847   0.2731   0.8853     H
C        0.188   0.9418     0.75     C
O       0.1881   0.1011     0.25     O
S       0.1965    0.607     0.75     S
H       0.1972     0.71     0.25     H
N       0.2058   0.9138     0.25     N
C       0.2141   0.2608     0.25     C
O       0.2206   0.8845     0.75     O
C       0.2312   0.1132     0.75     C
H       0.2366   0.3234    0.014     H
H       0.2366   0.3234    0.486     H
C       0.2378   0.8483     0.25     C
H       0.2442   0.3838   0.6104     H
H       0.2442   0.3838   0.8896     H
C       0.2462    0.188     0.25     C
C       0.2462   0.3277    0.627     C
C       0.2462   0.3277    0.873     C
C       0.2468   0.4221     0.25     C
Sn      0.2594  0.33437     0.75    Sn
C       0.2608   0.0467     0.75     C
H       0.2629   0.9435   0.0897     H
H       0.2629   0.9435   0.4103     H
H       0.2639   0.9775   0.5336     H
H       0.2639   0.9775   0.9664     H
H       0.2731   0.0884   0.1147     H
H       0.2731   0.0884   0.3853     H
C       0.2788   0.3569     0.25     C
H       0.2864   0.2639   0.0336     H
H       0.2864   0.2639   0.4664     H
H         0.29   0.4872     0.25     H
N        0.292   0.2058     0.75     N
C       0.2951   0.3211   0.0087     C
C       0.2951   0.3211   0.4913     C
O       0.3048   0.4893     0.75     O
C       0.3188    0.321   0.5776     C
C       0.3188    0.321   0.9224     C
H       0.3194   0.2629   0.5897     H
H       0.3194   0.2629   0.9103     H
C        0.321   0.0022   0.0776     C
C        0.321   0.0022   0.4224     C
C       0.3211    0.026   0.5087     C
C       0.3211    0.026   0.9913     C
H       0.3234   0.0868    0.514     H
H       0.3234   0.0868    0.986     H
C       0.3277   0.0815    0.127     C
C       0.3277   0.0815    0.373     C
Sn     0.33437  0.07497     0.25    Sn
O       0.3361   0.2206     0.25     O
H       0.3413   0.8613   0.6701     H
H       0.3413   0.8613   0.8299     H
H       0.3437   0.3782     0.25     H
C       0.3443   0.8883     0.25     C
H       0.3512   0.4389   0.0781     H
H       0.3512   0.4389   0.4219     H
C       0.3569   0.0781     0.75     C
H       0.3745   0.9929   0.0884     H
H       0.3745   0.9929   0.4116     H
C        0.376    0.408   0.0464     C
C        0.376    0.408   0.4536     C
O       0.3763   0.8377     0.25     O
H       0.3782   0.0345     0.75     H
H       0.3816   0.3745   0.5884     H
H       0.3816   0.3745   0.9116     H
H       0.3838   0.1396   0.1104     H
H       0.3838   0.1396   0.3896     H
H       0.3886   0.9763   0.5781     H
H       0.3886   0.9763   0.9219     H
C       0.3895   0.2378     0.75     C
S        0.393   0.5895     0.75     S
O       0.3958   0.9821     0.25     O
C       0.4043     0.87   0.6729     C
C       0.4043     0.87   0.8271     C
C        0.408    0.032   0.5464     C
C        0.408    0.032   0.9536     C
S       0.4105   0.8035     0.75     S
H       0.4123   0.3886   0.0781     H
H       0.4123   0.3886   0.4219     H
O       0.4137   0.3958     0.75     O
H       0.4167    0.451    0.007     H
H       0.4167    0.451    0.493     H
H       0.4187   0.8491   0.6253     H
H       0.4187   0.8491   0.8747     H
C       0.4221   0.1753     0.75     C
H       0.4304   0.5813   0.6253     H
H       0.4304   0.5813   0.8747     H
H       0.4389   0.0877   0.5781     H
H       0.4389   0.0877   0.9219     H
H       0.4496   0.9362    0.681     H
H       0.4496   0.9362    0.819     H
H        0.451   0.0343    0.507     H
H        0.451   0.0343    0.993     H
C        0.456   0.3443     0.75     C
O       0.4614   0.6237     0.25     O
C       0.4657   0.5957   0.6729     C
C       0.4657   0.5957   0.8271     C
H         0.48   0.3413   0.1701     H
H         0.48   0.3413   0.3299     H
H       0.4866   0.5504    0.681     H
H       0.4866   0.5504    0.819     H
H       0.4872   0.1972     0.75     H
O       0.4893   0.1845     0.25     O
O       0.5107   0.8155     0.75     O
H       0.5128   0.8028     0.25     H
H       0.5134   0.4496    0.181     H
H       0.5134   0.4496    0.319     H
H         0.52   0.6587   0.6701     H
H         0.52   0.6587   0.8299     H
C       0.5343   0.4043   0.1729     C
C       0.5343   0.4043   0.3271     C
O       0.5386   0.3763     0.75     O
C        0.544   0.6557     0.25     C
H        0.549   0.9657    0.007     H
H        0.549   0.9657    0.493     H
H       0.5504   0.0638    0.181     H
H       0.5504   0.0638    0.319     H
H       0.5611   0.9123   0.0781     H
H       0.5611   0.9123   0.4219     H
H       0.5696   0.4187   0.1253     H
H       0.5696   0.4187   0.3747     H
C       0.5779   0.8247     0.25     C
H       0.5813   0.1509   0.1253     H
H       0.5813   0.1509   0.3747     H
H       0.5833    0.549    0.507     H
H       0.5833    0.549    0.993     H
O       0.5863   0.6042     0.25     O
H       0.5877   0.6114   0.5781     H
H       0.5877   0.6114   0.9219     H
S       0.5895   0.1965     0.25     S
C        0.592    0.968   0.0464     C
C        0.592    0.968   0.4536     C
C       0.5957     0.13   0.1729     C
C       0.5957     0.13   0.3271     C
O       0.6042   0.0179     0.75     O
S        0.607   0.4105     0.25     S
C       0.6105   0.7622     0.25     C
H       0.6114   0.0237   0.0781     H
H       0.6114   0.0237   0.4219     H
H       0.6162   0.8604   0.6104     H
H       0.6162   0.8604   0.8896     H
H       0.6184   0.6255   0.0884     H
H       0.6184   0.6255   0.4116     H
H       0.6218   0.9655     0.25     H
O       0.6237   0.1623     0.75     O
C        0.624    0.592   0.5464     C
C        0.624    0.592   0.9536     C
H       0.6255   0.0071   0.5884     H
H       0.6255   0.0071   0.9116     H
C       0.6431   0.9219     0.25     C
H       0.6488   0.5611   0.5781     H
H       0.6488   0.5611   0.9219     H
C       0.6557   0.1117     0.75     C
H       0.6563   0.6218     0.75     H
H       0.6587   0.1387   0.1701     H
H       0.6587   0.1387   0.3299     H
O       0.6639   0.7794     0.75     O
Sn     0.66563  0.92503     0.75    Sn
C       0.6723   0.9185    0.627     C
C       0.6723   0.9185    0.873     C
H       0.6766   0.9132    0.014     H
H       0.6766   0.9132    0.486     H
C       0.6789    0.974   0.0087     C
C       0.6789    0.974   0.4913     C
C        0.679   0.9978   0.5776     C
C        0.679   0.9978   0.9224     C
H       0.6806   0.7371   0.0897     H
H       0.6806   0.7371   0.4103     H
C       0.6812    0.679   0.0776     C
C       0.6812    0.679   0.4224     C
O       0.6952   0.5107     0.25     O
C       0.7049   0.6789   0.5087     C
C       0.7049   0.6789   0.9913     C
N        0.708   0.7942     0.25     N
H         0.71   0.5128     0.75     H
H       0.7136   0.7361   0.5336     H
H       0.7136   0.7361   0.9664     H
C       0.7212   0.6431     0.75     C
H       0.7269   0.9116   0.6147     H
H       0.7269   0.9116   0.8853     H
H       0.7361   0.0225   0.0336     H
H       0.7361   0.0225   0.4664     H
H       0.7371   0.0565   0.5897     H
H       0.7371   0.0565   0.9103     H
C       0.7392   0.9533     0.25     C
Sn      0.7406  0.66563     0.25    Sn
C       0.7532   0.5779     0.75     C
C       0.7538   0.6723    0.127     C
C       0.7538   0.6723    0.373     C
C       0.7538    0.812     0.75     C
H       0.7558   0.6162   0.1104     H
H       0.7558   0.6162   0.3896     H
C       0.7622   0.1517     0.75     C
H       0.7634   0.6766    0.514     H
H       0.7634   0.6766    0.986     H
C       0.7688   0.8868     0.25     C
O       0.7794   0.1155     0.25     O
C       0.7859   0.7392     0.75     C
N       0.7942   0.0862     0.75     N
H       0.8028     0.29     0.75     H
S       0.8035    0.393     0.25     S
O       0.8119   0.8989     0.75     O
C        0.812   0.0582     0.25     C
H       0.8153   0.7269   0.1147     H
H       0.8153   0.7269   0.3853     H
O       0.8155   0.3048     0.25     O
C       0.8247   0.2468     0.75     C
H       0.8338   0.9081     0.25     H
O       0.8377   0.4614     0.75     O
C       0.8483   0.6105     0.75     C
H       0.8491   0.4304   0.1253     H
H       0.8491   0.4304   0.3747     H
H       0.8604   0.2442   0.1104     H
H       0.8604   0.2442   0.3896     H
H       0.8613     0.52   0.1701     H
H       0.8613     0.52   0.3299     H
C         0.87   0.4657   0.1729     C
C         0.87   0.4657   0.3271     C
C        0.882   0.7688     0.75     C
O       0.8845   0.6639     0.25     O
C       0.8868    0.118     0.75     C
C       0.8883    0.544     0.75     C
O       0.8989    0.087     0.25     O
H       0.9081   0.0743     0.75     H
H       0.9116   0.1847   0.1147     H
H       0.9116   0.1847   0.3853     H
H       0.9123   0.3512   0.5781     H
H       0.9123   0.3512   0.9219     H
O        0.913   0.8119     0.25     O
H       0.9132   0.2366    0.514     H
H       0.9132   0.2366    0.986     H
N       0.9138    0.708     0.75     N
C       0.9185   0.2462    0.127     C
C       0.9185   0.2462    0.373     C
C       0.9219   0.2788     0.75     C
Sn     0.92503   0.2594     0.25    Sn
H       0.9257   0.8338     0.75     H
H       0.9362   0.4866    0.181     H
H       0.9362   0.4866    0.319     H
C       0.9418   0.7538     0.25     C
H       0.9435   0.6806   0.5897     H
H       0.9435   0.6806   0.9103     H
C       0.9533   0.2141     0.75     C
H       0.9655   0.3437     0.75     H
H       0.9657   0.4167    0.507     H
H       0.9657   0.4167    0.993     H
C        0.968    0.376   0.5464     C
C        0.968    0.376   0.9536     C
C        0.974   0.2951   0.5087     C
C        0.974   0.2951   0.9913     C
H       0.9763   0.5877   0.0781     H
H       0.9763   0.5877   0.4219     H
H       0.9775   0.7136   0.0336     H
H       0.9775   0.7136   0.4664     H
O       0.9821   0.5863     0.75     O
H       0.9929   0.6184   0.5884     H
H       0.9929   0.6184   0.9116     H
C       0.9978   0.3188   0.0776     C
C       0.9978   0.3188   0.4224     C
