data_I
_chemical_name_common  '/home/zhangsd/repos/MofS-CGCNN/ML/data/WS24/clean_cifs/FIYDOH'
_cell_length_a 11.35400
_cell_length_b 11.58360
_cell_length_c 16.24700
_cell_angle_alpha 105.46900
_cell_angle_beta  110.45200
_cell_angle_gamma 90.00000
_space_group_name_H-M_alt      'P 1'


loop_
_space_group_symop_operation_xyz
  'x, y, z' 

loop_
_atom_site_label
_atom_site_fract_x
_atom_site_fract_y
_atom_site_fract_z
_atom_site_type_symbol
Co         0.0      0.0      0.5    Co
C      0.00181   0.5616  0.49382     C
H       0.0062   0.1367   0.3606     H
N      0.00765   0.7994   0.4781     N
H       0.0308   0.3613   0.3112     H
C       0.0587   0.4929   0.7938     C
H       0.0605   0.3123   0.7734     H
C      0.06332   0.0818  0.35144     C
C      0.06958   0.5052  0.27216     C
N      0.08776    0.002  0.39992     N
C      0.09452   0.4194  0.32084     C
C      0.09775    0.278   0.5651     C
H       0.0986   0.1458   0.2572     H
C      0.10391   0.3951  0.55882     C
H       0.1057   0.6731   0.8412     H
C      0.10867   0.3861  0.80554     C
C      0.11103   0.7559  0.52566     C
C      0.11287     0.64  0.53494     C
C       0.1181   0.0875   0.2884     C
C      0.13609   0.5995  0.84538     C
H       0.1586   0.6458   0.2572     H
C      0.16852   0.9216  0.38364     C
H       0.1702    0.252    0.601     H
C       0.1703   0.5875   0.2884     C
O      0.17309  0.02713  0.59938     O
H       0.1794   0.4449   0.5902     H
H       0.1862   0.8065   0.5542     H
H       0.1865   0.8648   0.4162     H
H       0.1877   0.6148   0.5684     H
C      0.20258   0.0052  0.27216     C
C      0.21512   0.4216  0.38364     C
C      0.22632   0.9194  0.32084     C
H       0.2297   0.3648   0.4162     H
C      0.23166   0.3914  0.86612     C
C      0.25814   0.5961  0.90288     C
H       0.2639   0.3194   0.8734     H
H       0.2645   0.8269   0.1588     H
V      0.26488  0.06062  0.71038     V
C       0.2649   0.0071   0.2062     C
H       0.2804   0.8613   0.3112     H
H       0.2871   0.1877   0.2266     H
C      0.28812   0.5818  0.35144     C
C      0.29071   0.9005  0.15462     C
C      0.30313   0.1139  0.19446     C
V      0.30324   0.8186  0.78478     V
N      0.30647   0.4941  0.91474     N
H       0.3092   0.6684   0.9348     H
N      0.31216    0.502  0.39992     N
O      0.33603   0.9284  0.73326     O
O      0.34857   0.6765  0.73394     O
H       0.3544   0.6367   0.3606     H
C      0.35526   0.9039  0.09712     C
C      0.36554   0.1086  0.13388     C
H        0.368   0.3065   0.5542     H
H       0.3744   0.8316   0.0652     H
O      0.37818   0.8629  0.89816     O
H       0.3807   0.1148   0.5684     H
O      0.38537   0.1765  0.73394     O
H       0.3905   0.1806   0.1266     H
N      0.39173   0.0059  0.08526     N
O      0.39723   0.4284  0.73326     O
H       0.4108   0.9449   0.5902     H
C      0.41463   0.2559  0.52566     C
C      0.42207     0.14  0.53494     C
O      0.42629  0.52713  0.59938     O
H       0.4308    0.752    0.601     H
V       0.4455  0.56062  0.71038     V
C      0.45491   0.8951  0.55882     C
C      0.46735    0.778   0.5651     C
N      0.47045   0.2994   0.4781     N
O      0.48002   0.6371  0.10184     O
V      0.48154   0.3186  0.78478     V
C      0.49201   0.0616  0.49382     C
Co         0.5      0.0      0.0    Co
Co         0.5      0.5      0.0    Co
Co         0.5      0.5      0.5    Co
C      0.50799   0.9384  0.50618     C
V      0.51846   0.6814  0.21522     V
O      0.51998   0.3629  0.89816     O
N      0.52955   0.7006   0.5219     N
C      0.53265    0.222   0.4349     C
C      0.54509   0.1049  0.44118     C
V       0.5545  0.43938  0.28962     V
H       0.5692    0.248    0.399     H
O      0.57371  0.47287  0.40062     O
C      0.57793     0.86  0.46506     C
C      0.58537   0.7441  0.47434     C
H       0.5892   0.0551   0.4098     H
O      0.60277   0.5716  0.26674     O
N      0.60827   0.9941  0.91474     N
H       0.6095   0.8194   0.8734     H
O      0.61463   0.8235  0.26606     O
H       0.6193   0.8852   0.4316     H
O      0.62182   0.1371  0.10184     O
H       0.6256   0.1684   0.9348     H
H        0.632   0.6935   0.4458     H
C      0.63446   0.8914  0.86612     C
C      0.64474   0.0961  0.90288     C
H       0.6456   0.3633   0.6394     H
O      0.65143   0.3235  0.26606     O
O      0.66397   0.0716  0.26674     O
N      0.68784    0.498  0.60008     N
H       0.6908   0.3316   0.0652     H
N      0.69353   0.5059  0.08526     N
V      0.69676   0.1814  0.21522     V
C      0.69687   0.8861  0.80554     C
C      0.70929   0.0995  0.84538     C
C      0.71188   0.4182  0.64856     C
H       0.7129   0.8123   0.7734     H
H       0.7196   0.1387   0.6888     H
C       0.7351   0.9929   0.7938     C
V      0.73512  0.93938  0.28962     V
H       0.7355   0.1731   0.8412     H
H       0.7361   0.6806   0.1266     H
C      0.74186   0.4039  0.09712     C
C      0.76834   0.6086  0.13388     C
H       0.7703   0.6352   0.5838     H
C      0.77368   0.0806  0.67916     C
C      0.78488   0.5784  0.61636     C
C      0.79742   0.9948  0.72784     C
H       0.8123   0.3852   0.4316     H
H       0.8135   0.1352   0.5838     H
H       0.8138   0.1935   0.4458     H
H       0.8206   0.5551   0.4098     H
O      0.82691  0.97287  0.40062     O
C       0.8297   0.4125   0.7116     C
H       0.8298    0.748    0.399     H
C      0.83148   0.0784  0.61636     C
H       0.8414   0.3542   0.7428     H
C      0.86391   0.4005  0.15462     C
C       0.8819   0.9125   0.7116     C
C      0.88713     0.36  0.46506     C
C      0.88897   0.2441  0.47434     C
C      0.89133   0.6139  0.19446     C
H       0.8943   0.3269   0.1588     H
C      0.89609   0.6049  0.44118     C
H       0.9014   0.8542   0.7428     H
C      0.90225    0.722   0.4349     C
C      0.90548   0.5806  0.67916     C
N      0.91224    0.998  0.60008     N
C      0.93042   0.4948  0.72784     C
C      0.93668   0.9182  0.64856     C
H       0.9395   0.6877   0.2266     H
C       0.9413   0.5071   0.2062     C
H       0.9692   0.6387   0.6888     H
N      0.99235   0.2006   0.5219     N
H       0.9938   0.8633   0.6394     H
C      0.99819   0.4384  0.50618     C
