data_I
_chemical_name_common  '/home/zhangsd/repos/MofS-CGCNN/ML/data/WS24/clean_cifs/FMOF-1'
_cell_length_a 13.36647
_cell_length_b 13.36647
_cell_length_c 39.31640
_cell_angle_alpha 90.00000
_cell_angle_beta  90.00000
_cell_angle_gamma 90.00000
_space_group_name_H-M_alt      'P 1'


loop_
_space_group_symop_operation_xyz
  'x, y, z' 

loop_
_atom_site_label
_atom_site_fract_x
_atom_site_fract_y
_atom_site_fract_z
_atom_site_type_symbol
N          0.0      0.0  0.09592     N
Ag         0.0      0.0 0.152272    Ag
Ag         0.0      0.0 0.847732    Ag
N          0.0      0.0  0.90412     N
Ag         0.0      0.5 0.097732    Ag
N          0.0      0.5  0.15412     N
N          0.0      0.5  0.34592     N
Ag         0.0      0.5 0.402272    Ag
N      0.00657  0.63305 0.0619817     N
N      0.00657  0.86705 0.1880217     N
N      0.01827  0.54847  0.29232     N
N      0.01827  0.95167  0.95772     N
F      0.02057  0.71075 0.3597616     F
F      0.02057  0.78935 0.8902416     F
C      0.02787  0.57077  0.32432     C
C      0.02787  0.92937  0.92572     C
F      0.02997  0.66317  0.47374     F
F      0.02997  0.83697  0.77634     F
N      0.03717  0.24347  0.22732     N
N      0.03717  0.25667  0.02272     N
N      0.04847  0.01827  0.04232     N
N      0.04847  0.48187  0.20772     N
N      0.05977  0.73857  0.21932     N
N      0.05977  0.76157  0.03072     N
C      0.06397  0.16837  0.20884     C
C      0.06397  0.33177  0.04124     C
C      0.07077  0.02787  0.07432     C
C      0.07077  0.47227  0.17572     C
C      0.07299  0.66988  0.33554     C
C      0.07299  0.83028  0.91454     C
C      0.08238  0.69527  0.05364     C
C      0.08238  0.80487  0.19644     C
F      0.08498  0.73165 0.3107318     F
F      0.08498  0.76845 0.9392718     F
F      0.10769  0.70347  0.43072     F
F      0.10769  0.79667  0.81932     F
Ag    0.117196 0.139526 0.99460819    Ag
Ag    0.117196 0.360486 0.25539219    Ag
C      0.12309  0.66709  0.46044     C
C      0.12309  0.83309  0.78964     C
F      0.12447  0.19515  0.84182     F
F      0.12447  0.30495  0.40822     F
N      0.13305  0.00657 0.8119817     N
N      0.13305  0.49357 0.4380217     N
Ag    0.139526 0.617196 0.24460819    Ag
Ag    0.139526 0.882816 0.00539219    Ag
F      0.15747  0.16397  0.09804     F
F      0.15747  0.33617  0.15204     F
F      0.16317  0.02997  0.22374     F
F      0.16317  0.47017  0.02634     F
F      0.16397  0.65747  0.34804     F
F      0.16397  0.84267  0.90204     F
C      0.16709  0.12309  0.21044     C
C      0.16709  0.37709  0.03964     C
C      0.16837  0.56397  0.45884     C
C      0.16837  0.93617  0.79124     C
C      0.16988  0.07299  0.08554     C
C      0.16988  0.42719  0.16454     C
F      0.17049  0.24587  0.45422     F
F      0.17049  0.25427  0.79582     F
F      0.17407  0.72945  0.47862     F
F      0.17407  0.77065  0.77142     F
C      0.18419  0.69149  0.06924     C
C      0.18419  0.80869  0.18084     C
C      0.19149  0.18419  0.81924     C
C      0.19149  0.31599  0.43084     C
F      0.19515  0.62447  0.09182     F
F      0.19515  0.87567  0.15822     F
C      0.19527  0.08238  0.80364     C
C      0.19527  0.41778  0.44644     C
F      0.20347  0.10769  0.18072     F
F      0.20347  0.39249  0.06932     F
F      0.21075  0.02057 0.1097616     F
F      0.21075  0.47957 0.1402416     F
F      0.21257  0.71905  0.16974     F
F      0.21257  0.78105  0.08034     F
F      0.21905  0.21257  0.91974     F
F      0.21905  0.28757  0.33034     F
F      0.22945  0.17407  0.22862     F
F      0.22945  0.32607  0.02142     F
F      0.23165  0.08498 0.0607318     F
F      0.23165  0.41518 0.1892718     F
N      0.23857  0.05977  0.96932     N
N      0.23857  0.44037  0.28072     N
N      0.24347  0.53717  0.47732     N
N      0.24347  0.96297  0.77272     N
F      0.24587  0.67049  0.70422     F
F      0.24587  0.82969  0.54582     F
F      0.25427  0.67049  0.04582     F
F      0.25427  0.82969  0.20422     F
N      0.25667  0.53717  0.27272     N
N      0.25667  0.96297  0.97732     N
N      0.26157  0.05977  0.78072     N
N      0.26157  0.44037  0.46932     N
F      0.26845  0.08498 0.6892718     F
F      0.26845  0.41518 0.5607318     F
F      0.27065  0.17407  0.52142     F
F      0.27065  0.32607  0.72862     F
F      0.28105  0.21257  0.83034     F
F      0.28105  0.28757  0.41974     F
F      0.28757  0.71905  0.58034     F
F      0.28757  0.78105  0.66974     F
F      0.28935  0.02057 0.6402416     F
F      0.28935  0.47957 0.6097616     F
F      0.29667  0.10769  0.56932     F
F      0.29667  0.39249  0.68072     F
C      0.30487  0.08238  0.94644     C
C      0.30487  0.41778  0.30364     C
F      0.30495  0.62447  0.65822     F
F      0.30495  0.87567  0.59182     F
C      0.30869  0.18419  0.93084     C
C      0.30869  0.31599  0.31924     C
C      0.31599  0.69149  0.68084     C
C      0.31599  0.80869  0.56924     C
F      0.32607  0.72945  0.27142     F
F      0.32607  0.77065  0.97862     F
F      0.32969  0.24587  0.29582     F
F      0.32969  0.25427  0.95422     F
C      0.33028  0.07299  0.66454     C
C      0.33028  0.42719  0.58554     C
C      0.33177  0.56397  0.29124     C
C      0.33177  0.93617  0.95884     C
C      0.33309  0.12309  0.53964     C
C      0.33309  0.37709  0.71044     C
F      0.33617  0.65747  0.40204     F
F      0.33617  0.84267  0.84804     F
F      0.33697  0.02997  0.52634     F
F      0.33697  0.47017  0.72374     F
F      0.34267  0.16397  0.65204     F
F      0.34267  0.33617  0.59804     F
Ag    0.360486 0.617196 0.50539219    Ag
Ag    0.360486 0.882816 0.74460819    Ag
N      0.36705  0.00657 0.9380217     N
N      0.36705  0.49357 0.3119817     N
F      0.37567  0.19515  0.90822     F
F      0.37567  0.30495  0.34182     F
C      0.37709  0.66709  0.28964     C
C      0.37709  0.83309  0.96044     C
Ag    0.382816 0.139526 0.75539219    Ag
Ag    0.382816 0.360486 0.49460819    Ag
F      0.39249  0.70347  0.31932     F
F      0.39249  0.79667  0.93072     F
F      0.41518  0.73165 0.4392718     F
F      0.41518  0.76845 0.8107318     F
C      0.41778  0.69527  0.69644     C
C      0.41778  0.80487  0.55364     C
C      0.42719  0.66988  0.41454     C
C      0.42719  0.83028  0.83554     C
C      0.42937  0.02787  0.67572     C
C      0.42937  0.47227  0.57432     C
C      0.43617  0.16837  0.54124     C
C      0.43617  0.33177  0.70884     C
N      0.44037  0.73857  0.53072     N
N      0.44037  0.76157  0.71932     N
N      0.45167  0.01827  0.70772     N
N      0.45167  0.48187  0.54232     N
N      0.46297  0.24347  0.52272     N
N      0.46297  0.25667  0.72732     N
F      0.47017  0.66317  0.27634     F
F      0.47017  0.83697  0.97374     F
C      0.47227  0.57077  0.42572     C
C      0.47227  0.92937  0.82432     C
F      0.47957  0.71075 0.3902416     F
F      0.47957  0.78935 0.8597616     F
N      0.48187  0.54847  0.45772     N
N      0.48187  0.95167  0.79232     N
N      0.49357  0.63305 0.6880217     N
N      0.49357  0.86705 0.5619817     N
Ag         0.5      0.0 0.597732    Ag
N          0.5      0.0  0.65412     N
N          0.5      0.0  0.84592     N
Ag         0.5      0.0 0.902272    Ag
Ag         0.5      0.5 0.347732    Ag
N          0.5      0.5  0.40412     N
N          0.5      0.5  0.59592     N
Ag         0.5      0.5 0.652272    Ag
N      0.50657  0.13305 0.5619817     N
N      0.50657  0.36705 0.6880217     N
N      0.51827  0.04847  0.79232     N
N      0.51827  0.45167  0.45772     N
F      0.52057  0.21075 0.8597616     F
F      0.52057  0.28935 0.3902416     F
C      0.52787  0.07077  0.82432     C
C      0.52787  0.42937  0.42572     C
F      0.52997  0.16317  0.97374     F
F      0.52997  0.33697  0.27634     F
N      0.53717  0.74347  0.72732     N
N      0.53717  0.75667  0.52272     N
N      0.54847  0.51827  0.54232     N
N      0.54847  0.98187  0.70772     N
N      0.55977  0.23857  0.71932     N
N      0.55977  0.26157  0.53072     N
C      0.56397  0.66837  0.70884     C
C      0.56397  0.83177  0.54124     C
C      0.57077  0.52787  0.57432     C
C      0.57077  0.97227  0.67572     C
C      0.57299  0.16988  0.83554     C
C      0.57299  0.33028  0.41454     C
C      0.58238  0.19527  0.55364     C
C      0.58238  0.30487  0.69644     C
F      0.58498  0.23165 0.8107318     F
F      0.58498  0.26845 0.4392718     F
F      0.60769  0.20347  0.93072     F
F      0.60769  0.29667  0.31932     F
Ag    0.617196 0.639526 0.49460819    Ag
Ag    0.617196 0.860486 0.75539219    Ag
C      0.62309  0.16709  0.96044     C
C      0.62309  0.33309  0.28964     C
F      0.62447  0.69515  0.34182     F
F      0.62447  0.80495  0.90822     F
N      0.63305  0.50657 0.3119817     N
N      0.63305  0.99357 0.9380217     N
Ag    0.639526 0.117196 0.74460819    Ag
Ag    0.639526 0.382816 0.50539219    Ag
F      0.65747  0.66397  0.59804     F
F      0.65747  0.83617  0.65204     F
F      0.66317  0.52997  0.72374     F
F      0.66317  0.97017  0.52634     F
F      0.66397  0.15747  0.84804     F
F      0.66397  0.34267  0.40204     F
C      0.66709  0.62309  0.71044     C
C      0.66709  0.87709  0.53964     C
C      0.66837  0.06397  0.95884     C
C      0.66837  0.43617  0.29124     C
C      0.66988  0.57299  0.58554     C
C      0.66988  0.92719  0.66454     C
F      0.67049  0.74587  0.95422     F
F      0.67049  0.75427  0.29582     F
F      0.67407  0.22945  0.97862     F
F      0.67407  0.27065  0.27142     F
C      0.68419  0.19149  0.56924     C
C      0.68419  0.30869  0.68084     C
C      0.69149  0.68419  0.31924     C
C      0.69149  0.81599  0.93084     C
F      0.69515  0.12447  0.59182     F
F      0.69515  0.37567  0.65822     F
C      0.69527  0.58238  0.30364     C
C      0.69527  0.91778  0.94644     C
F      0.70347  0.60769  0.68072     F
F      0.70347  0.89249  0.56932     F
F      0.71075  0.52057 0.6097616     F
F      0.71075  0.97957 0.6402416     F
F      0.71257  0.21905  0.66974     F
F      0.71257  0.28105  0.58034     F
F      0.71905  0.71257  0.41974     F
F      0.71905  0.78757  0.83034     F
F      0.72945  0.67407  0.72862     F
F      0.72945  0.82607  0.52142     F
F      0.73165  0.58498 0.5607318     F
F      0.73165  0.91518 0.6892718     F
N      0.73857  0.55977  0.46932     N
N      0.73857  0.94037  0.78072     N
N      0.74347  0.03717  0.97732     N
N      0.74347  0.46297  0.27272     N
F      0.74587  0.17049  0.20422     F
F      0.74587  0.32969  0.04582     F
F      0.75427  0.17049  0.54582     F
F      0.75427  0.32969  0.70422     F
N      0.75667  0.03717  0.77272     N
N      0.75667  0.46297  0.47732     N
N      0.76157  0.55977  0.28072     N
N      0.76157  0.94037  0.96932     N
F      0.76845  0.58498 0.1892718     F
F      0.76845  0.91518 0.0607318     F
F      0.77065  0.67407  0.02142     F
F      0.77065  0.82607  0.22862     F
F      0.78105  0.71257  0.33034     F
F      0.78105  0.78757  0.91974     F
F      0.78757  0.21905  0.08034     F
F      0.78757  0.28105  0.16974     F
F      0.78935  0.52057 0.1402416     F
F      0.78935  0.97957 0.1097616     F
F      0.79667  0.60769  0.06932     F
F      0.79667  0.89249  0.18072     F
C      0.80487  0.58238  0.44644     C
C      0.80487  0.91778  0.80364     C
F      0.80495  0.12447  0.15822     F
F      0.80495  0.37567  0.09182     F
C      0.80869  0.68419  0.43084     C
C      0.80869  0.81599  0.81924     C
C      0.81599  0.19149  0.18084     C
C      0.81599  0.30869  0.06924     C
F      0.82607  0.22945  0.77142     F
F      0.82607  0.27065  0.47862     F
F      0.82969  0.74587  0.79582     F
F      0.82969  0.75427  0.45422     F
C      0.83028  0.57299  0.16454     C
C      0.83028  0.92719  0.08554     C
C      0.83177  0.06397  0.79124     C
C      0.83177  0.43617  0.45884     C
C      0.83309  0.62309  0.03964     C
C      0.83309  0.87709  0.21044     C
F      0.83617  0.15747  0.90204     F
F      0.83617  0.34267  0.34804     F
F      0.83697  0.52997  0.02634     F
F      0.83697  0.97017  0.22374     F
F      0.84267  0.66397  0.15204     F
F      0.84267  0.83617  0.09804     F
Ag    0.860486 0.117196 0.00539219    Ag
Ag    0.860486 0.382816 0.24460819    Ag
N      0.86705  0.50657 0.4380217     N
N      0.86705  0.99357 0.8119817     N
F      0.87567  0.69515  0.40822     F
F      0.87567  0.80495  0.84182     F
C      0.87709  0.16709  0.78964     C
C      0.87709  0.33309  0.46044     C
Ag    0.882816 0.639526 0.25539219    Ag
Ag    0.882816 0.860486 0.99460819    Ag
F      0.89249  0.20347  0.81932     F
F      0.89249  0.29667  0.43072     F
F      0.91518  0.23165 0.9392718     F
F      0.91518  0.26845 0.3107318     F
C      0.91778  0.19527  0.19644     C
C      0.91778  0.30487  0.05364     C
C      0.92719  0.16988  0.91454     C
C      0.92719  0.33028  0.33554     C
C      0.92937  0.52787  0.17572     C
C      0.92937  0.97227  0.07432     C
C      0.93617  0.66837  0.04124     C
C      0.93617  0.83177  0.20884     C
N      0.94037  0.23857  0.03072     N
N      0.94037  0.26157  0.21932     N
N      0.95167  0.51827  0.20772     N
N      0.95167  0.98187  0.04232     N
N      0.96297  0.74347  0.02272     N
N      0.96297  0.75667  0.22732     N
F      0.97017  0.16317  0.77634     F
F      0.97017  0.33697  0.47374     F
C      0.97227  0.07077  0.92572     C
C      0.97227  0.42937  0.32432     C
F      0.97957  0.21075 0.8902416     F
F      0.97957  0.28935 0.3597616     F
N      0.98187  0.04847  0.95772     N
N      0.98187  0.45167  0.29232     N
N      0.99357  0.13305 0.1880217     N
N      0.99357  0.36705 0.0619817     N
