data_I
_chemical_name_common  '/home/zhangsd/repos/MofS-CGCNN/ML/data/WS24/clean_cifs/FORPOS'
_cell_length_a 30.75300
_cell_length_b 15.72850
_cell_length_c 22.11900
_cell_angle_alpha 90.00000
_cell_angle_beta  133.11800
_cell_angle_gamma 90.00000
_space_group_name_H-M_alt      'P 1'


loop_
_space_group_symop_operation_xyz
  'x, y, z' 

loop_
_atom_site_label
_atom_site_fract_x
_atom_site_fract_y
_atom_site_fract_z
_atom_site_type_symbol
H       0.0125   0.1376   0.9607     H
H       0.0125   0.8624   0.4607     H
O        0.019    0.282   0.6122     O
O        0.019    0.718   0.1122     O
C       0.0352   0.2898   0.9307     C
C       0.0352   0.7102   0.4307     C
C       0.0533   0.1461   0.9948     C
C       0.0533   0.8539   0.4948     C
O       0.0594   0.3537   0.9311     O
O       0.0594   0.6463   0.4311     O
C       0.0766   0.2191   0.9897     C
C       0.0766   0.7809   0.4897     C
H       0.0828    0.036   0.0608     H
H       0.0828    0.964   0.5608     H
C       0.0958   0.0861   0.0552     C
C       0.0958   0.9139   0.5552     C
Ce     0.10995  0.36308  0.67257    Ce
Ce     0.10995  0.63692  0.17257    Ce
O       0.1242   0.3846   0.7967     O
O       0.1242   0.6154   0.2967     O
N       0.1334   0.2314   0.0354     N
N       0.1334   0.7686   0.5354     N
O       0.1345   0.4728   0.6185     O
O       0.1345   0.5272   0.1185     O
C       0.1511   0.4481   0.8464     C
C       0.1511   0.5519   0.3464     C
C       0.1558      0.1   0.1058     C
C       0.1558      0.9   0.6058     C
O       0.1595   0.4532   0.9096     O
O       0.1595   0.5468   0.4096     O
C       0.1614     0.46   0.1537     C
N       0.1614   0.4964   0.2573     N
N       0.1614   0.5036   0.7573     N
C       0.1614     0.54   0.6537     C
Ce     0.16939  0.37153  0.01423    Ce
Ce     0.16939  0.62847  0.51423    Ce
O       0.1739   0.4026   0.1261     O
O       0.1739   0.5974   0.6261     O
C       0.1741   0.4865   0.3278     C
C       0.1741   0.5135   0.8278     C
C       0.1745   0.1763   0.0959     C
C       0.1745   0.8237   0.5959     C
H       0.1834   0.0603   0.1456     H
H       0.1834   0.9397   0.6456     H
C        0.185   0.4428   0.2382     C
C        0.185   0.5572   0.7382     C
C       0.2138   0.4235   0.3835     C
C       0.2138   0.5765   0.8835     C
H       0.2211   0.4153   0.4314     H
H       0.2211   0.5847   0.9314     H
O        0.223   0.3492   0.7942     O
O        0.223   0.6508   0.2942     O
C       0.2244    0.382   0.2917     C
C       0.2244    0.618   0.7917     C
H       0.2275   0.1653   0.5918     H
H       0.2275   0.8347   0.0918     H
C       0.2375   0.1985   0.1467     C
C       0.2375   0.8015   0.6467     C
H       0.2397   0.3458   0.2767     H
H       0.2397   0.6542   0.7767     H
C       0.2427   0.3727   0.3688     C
C       0.2427   0.6273   0.8688     C
O       0.2476   0.2662   0.1274     O
O       0.2476   0.7338   0.6274     O
O       0.2524   0.2338   0.8726     O
O       0.2524   0.7662   0.3726     O
C       0.2573   0.1273   0.6312     C
C       0.2573   0.8727   0.1312     C
H       0.2603   0.1542   0.7233     H
H       0.2603   0.8458   0.2233     H
C       0.2625   0.3015   0.8533     C
C       0.2625   0.6985   0.3533     C
H       0.2725   0.3347   0.4082     H
H       0.2725   0.6653   0.9082     H
C       0.2756    0.118   0.7083     C
C       0.2756    0.882   0.2083     C
O        0.277   0.1508   0.2058     O
O        0.277   0.8492   0.7058     O
H       0.2789   0.0847   0.5686     H
H       0.2789   0.9153   0.0686     H
C       0.2862   0.0765   0.6165     C
C       0.2862   0.9235   0.1165     C
C        0.315   0.0572   0.7618     C
C        0.315   0.9428   0.2618     C
H       0.3166   0.4397   0.8544     H
H       0.3166   0.5603   0.3544     H
C       0.3255   0.3237   0.9041     C
C       0.3255   0.6763   0.4041     C
C       0.3259   0.0135   0.6722     C
C       0.3259   0.9865   0.1722     C
O       0.3261   0.0974   0.8739     O
O       0.3261   0.9026   0.3739     O
Ce     0.33061  0.12847  0.98577    Ce
Ce     0.33061  0.87153  0.48577    Ce
N       0.3386   0.0036   0.7427     N
C       0.3386     0.04   0.8463     C
C       0.3386     0.96   0.3463     C
N       0.3386   0.9964   0.2427     N
O       0.3405   0.0468   0.0904     O
O       0.3405   0.9532   0.5904     O
C       0.3442      0.4   0.8942     C
C       0.3442      0.6   0.3942     C
C       0.3489   0.0519   0.1536     C
C       0.3489   0.9481   0.6536     C
O       0.3655   0.0272   0.3815     O
O       0.3655   0.9728   0.8815     O
N       0.3666   0.2686   0.9646     N
N       0.3666   0.7314   0.4646     N
O       0.3758   0.1154   0.2033     O
O       0.3758   0.8846   0.7033     O
Ce     0.39005  0.13692  0.32743    Ce
Ce     0.39005  0.86308  0.82743    Ce
C       0.4042   0.4139   0.9448     C
C       0.4042   0.5861   0.4448     C
H       0.4172    0.464   0.9392     H
H       0.4172    0.536   0.4392     H
C       0.4234   0.2809   0.0103     C
C       0.4234   0.7191   0.5103     C
O       0.4406   0.1463   0.0689     O
O       0.4406   0.8537   0.5689     O
C       0.4467   0.3539   0.0052     C
C       0.4467   0.6461   0.5052     C
C       0.4648   0.2102   0.0693     C
C       0.4648   0.7898   0.5693     C
O        0.481    0.218   0.3878     O
O        0.481    0.782   0.8878     O
H       0.4875   0.3624   0.0393     H
H       0.4875   0.6376   0.5393     H
H       0.5125   0.3624   0.4607     H
H       0.5125   0.6376   0.9607     H
O        0.519    0.218   0.1122     O
O        0.519    0.782   0.6122     O
C       0.5352   0.2102   0.4307     C
C       0.5352   0.7898   0.9307     C
C       0.5533   0.3539   0.4948     C
C       0.5533   0.6461   0.9948     C
O       0.5594   0.1463   0.4311     O
O       0.5594   0.8537   0.9311     O
C       0.5766   0.2809   0.4897     C
C       0.5766   0.7191   0.9897     C
H       0.5828    0.464   0.5608     H
H       0.5828    0.536   0.0608     H
C       0.5958   0.4139   0.5552     C
C       0.5958   0.5861   0.0552     C
Ce     0.60995  0.13692  0.17257    Ce
Ce     0.60995  0.86308  0.67257    Ce
O       0.6242   0.1154   0.2967     O
O       0.6242   0.8846   0.7967     O
N       0.6334   0.2686   0.5354     N
N       0.6334   0.7314   0.0354     N
O       0.6345   0.0272   0.1185     O
O       0.6345   0.9728   0.6185     O
C       0.6511   0.0519   0.3464     C
C       0.6511   0.9481   0.8464     C
C       0.6558      0.4   0.6058     C
C       0.6558      0.6   0.1058     C
O       0.6595   0.0468   0.4096     O
O       0.6595   0.9532   0.9096     O
N       0.6614   0.0036   0.7573     N
C       0.6614     0.04   0.6537     C
C       0.6614     0.96   0.1537     C
N       0.6614   0.9964   0.2573     N
Ce     0.66939  0.12847  0.51423    Ce
Ce     0.66939  0.87153  0.01423    Ce
O       0.6739   0.0974   0.6261     O
O       0.6739   0.9026   0.1261     O
C       0.6741   0.0135   0.8278     C
C       0.6741   0.9865   0.3278     C
C       0.6745   0.3237   0.5959     C
C       0.6745   0.6763   0.0959     C
H       0.6834   0.4397   0.6456     H
H       0.6834   0.5603   0.1456     H
C        0.685   0.0572   0.7382     C
C        0.685   0.9428   0.2382     C
C       0.7138   0.0765   0.8835     C
C       0.7138   0.9235   0.3835     C
H       0.7211   0.0847   0.9314     H
H       0.7211   0.9153   0.4314     H
O        0.723   0.1508   0.2942     O
O        0.723   0.8492   0.7942     O
C       0.7244    0.118   0.7917     C
C       0.7244    0.882   0.2917     C
H       0.7275   0.3347   0.0918     H
H       0.7275   0.6653   0.5918     H
C       0.7375   0.3015   0.6467     C
C       0.7375   0.6985   0.1467     C
H       0.7397   0.1542   0.7767     H
H       0.7397   0.8458   0.2767     H
C       0.7427   0.1273   0.8688     C
C       0.7427   0.8727   0.3688     C
O       0.7476   0.2338   0.6274     O
O       0.7476   0.7662   0.1274     O
O       0.7524   0.2662   0.3726     O
O       0.7524   0.7338   0.8726     O
C       0.7573   0.3727   0.1312     C
C       0.7573   0.6273   0.6312     C
H       0.7603   0.3458   0.2233     H
H       0.7603   0.6542   0.7233     H
C       0.7625   0.1985   0.3533     C
C       0.7625   0.8015   0.8533     C
H       0.7725   0.1653   0.9082     H
H       0.7725   0.8347   0.4082     H
C       0.7756    0.382   0.2083     C
C       0.7756    0.618   0.7083     C
O        0.777   0.3492   0.7058     O
O        0.777   0.6508   0.2058     O
H       0.7789   0.4153   0.0686     H
H       0.7789   0.5847   0.5686     H
C       0.7862   0.4235   0.1165     C
C       0.7862   0.5765   0.6165     C
C        0.815   0.4428   0.2618     C
C        0.815   0.5572   0.7618     C
H       0.8166   0.0603   0.3544     H
H       0.8166   0.9397   0.8544     H
C       0.8255   0.1763   0.4041     C
C       0.8255   0.8237   0.9041     C
C       0.8259   0.4865   0.1722     C
C       0.8259   0.5135   0.6722     C
O       0.8261   0.4026   0.3739     O
O       0.8261   0.5974   0.8739     O
Ce     0.83061  0.37153  0.48577    Ce
Ce     0.83061  0.62847  0.98577    Ce
C       0.8386     0.46   0.3463     C
N       0.8386   0.4964   0.2427     N
N       0.8386   0.5036   0.7427     N
C       0.8386     0.54   0.8463     C
O       0.8405   0.4532   0.5904     O
O       0.8405   0.5468   0.0904     O
C       0.8442      0.1   0.3942     C
C       0.8442      0.9   0.8942     C
C       0.8489   0.4481   0.6536     C
C       0.8489   0.5519   0.1536     C
O       0.8655   0.4728   0.8815     O
O       0.8655   0.5272   0.3815     O
N       0.8666   0.2314   0.4646     N
N       0.8666   0.7686   0.9646     N
O       0.8758   0.3846   0.7033     O
O       0.8758   0.6154   0.2033     O
Ce     0.89005  0.36308  0.82743    Ce
Ce     0.89005  0.63692  0.32743    Ce
C       0.9042   0.0861   0.4448     C
C       0.9042   0.9139   0.9448     C
H       0.9172    0.036   0.4392     H
H       0.9172    0.964   0.9392     H
C       0.9234   0.2191   0.5103     C
C       0.9234   0.7809   0.0103     C
O       0.9406   0.3537   0.5689     O
O       0.9406   0.6463   0.0689     O
C       0.9467   0.1461   0.5052     C
C       0.9467   0.8539   0.0052     C
C       0.9648   0.2898   0.5693     C
C       0.9648   0.7102   0.0693     C
O        0.981    0.282   0.8878     O
O        0.981    0.718   0.3878     O
H       0.9875   0.1376   0.5393     H
H       0.9875   0.8624   0.0393     H
