data_I
_chemical_name_common  '/home/zhangsd/repos/MofS-CGCNN/ML/data/WS24/clean_cifs/FORWAL'
_cell_length_a 15.60190
_cell_length_b 15.60190
_cell_length_c 15.60190
_cell_angle_alpha 90.00000
_cell_angle_beta  90.00000
_cell_angle_gamma 90.00000
_space_group_name_H-M_alt      'P 1'


loop_
_space_group_symop_operation_xyz
  'x, y, z' 

loop_
_atom_site_label
_atom_site_fract_x
_atom_site_fract_y
_atom_site_fract_z
_atom_site_type_symbol
C       0.0037   0.4885   0.7313     C
H       0.0058      0.7   0.7707     H
O       0.0078   0.3527   0.5376     O
C       0.0093   0.1489   0.7626     C
H       0.0093   0.8209   0.2447     H
C       0.0115   0.2687   0.5037     C
H       0.0115   0.5662   0.8396     H
C       0.0192   0.2703   0.4073     C
O       0.0231    0.659   0.6512     O
H       0.0264   0.2121   0.3865     H
O       0.0268    0.396   0.8535     O
C       0.0307   0.5699   0.7806     C
H       0.0343   0.6118   0.6311     H
O       0.0376   0.4922   0.6473     O
H         0.04   0.5423   0.6315     H
C       0.0406   0.4078   0.7765     C
H       0.0423   0.8685     0.96     H
O       0.0561    0.804   0.2277     O
C       0.0595   0.8104    0.136     C
H       0.0636   0.8709   0.1196     H
H       0.0662   0.6604   0.9885     H
H       0.0698   0.3026   0.3914     H
C       0.0699   0.7194   0.9693     C
H        0.075   0.7194   0.9073     H
O        0.084   0.3581   0.7284     O
C       0.0922   0.2235   0.5406     C
H       0.0927    0.575   0.7806     H
C       0.0927   0.9808   0.7703     C
Fe     0.10242  0.39758  0.60242    Fe
O        0.104   0.1465   0.5268     O
C       0.1071   0.1399   0.7639     C
H       0.1086   0.9302   0.8026     H
H       0.1118   0.8689   0.9657     H
H       0.1135   0.9736   0.7121     H
H       0.1196   0.0636   0.8709     H
H       0.1278   0.1374   0.7047     H
H       0.1291   0.2565   0.7844     H
H       0.1291   0.6196   0.4364     H
H       0.1311   0.4657   0.3882     H
H       0.1315     0.46   0.4577     H
C        0.136   0.0595   0.8104     C
H       0.1374   0.7047   0.1278     H
C       0.1399   0.7639   0.1071     C
O       0.1419   0.2716    0.584     O
O       0.1465   0.5268    0.104     O
O       0.1466   0.2119   0.8059     O
O       0.1473   0.4624   0.5078     O
C       0.1489   0.7626   0.0093     C
O       0.1512   0.4769    0.341     O
O        0.159   0.8488   0.9769     O
H       0.1604   0.5115   0.9338     H
H       0.1791   0.7447   0.4907     H
C       0.1896    0.636   0.4405     C
O       0.1941   0.6466   0.2881     O
O        0.196   0.7277   0.4439     O
H       0.1974   0.6086   0.5698     H
Na     0.19783  0.80217  0.30217    Na
H          0.2   0.7293   0.9942     H
H       0.2047   0.3722   0.8626     H
O       0.2119   0.8059   0.1466     O
H       0.2121   0.3865   0.0264     H
H       0.2156   0.6291   0.2435     H
C       0.2194   0.5307   0.9301     C
H       0.2194   0.5927    0.925     H
C       0.2235   0.5406   0.0922     C
O       0.2277   0.0561    0.804     O
O       0.2284    0.416   0.6419     O
H       0.2293   0.5058      0.8     H
C       0.2297   0.5927   0.5192     C
C       0.2313   0.4963   0.5115     C
C       0.2361   0.6071   0.3601     C
C       0.2374   0.5093   0.3511     C
H       0.2435   0.2156   0.6291     H
H       0.2447   0.0093   0.8209     H
H       0.2553   0.9907   0.3209     H
H       0.2565   0.7844   0.1291     H
C       0.2626   0.4907   0.8511     C
C       0.2639   0.3929   0.8601     C
C       0.2687   0.5037   0.0115     C
C       0.2703   0.4073   0.0192     C
H       0.2707   0.4942      0.3     H
O       0.2716    0.584   0.1419     O
O       0.2723   0.9439    0.304     O
C       0.2765   0.4594   0.5922     C
H       0.2806   0.4073    0.425     H
C       0.2806   0.4693   0.4301     C
H       0.2844   0.3709   0.7435     H
H       0.2879   0.6135   0.5264     H
O       0.2881   0.1941   0.6466     O
H       0.2953   0.6278   0.3626     H
H          0.3   0.2707   0.4942     H
Na     0.30217  0.19783  0.80217    Na
H       0.3026   0.3914   0.0698     H
O        0.304   0.2723   0.9439     O
O       0.3059   0.3534   0.7881     O
C       0.3104    0.364   0.9405     C
H       0.3209   0.2553   0.9907     H
H       0.3396   0.4885   0.4338     H
O        0.341   0.1512   0.4769     O
O       0.3488   0.5231    0.841     O
C       0.3511   0.2374   0.5093     C
O       0.3527   0.5376   0.0078     O
O       0.3534   0.7881   0.3059     O
O       0.3535   0.4732    0.604     O
O       0.3581   0.7284    0.084     O
C       0.3601   0.2361   0.6071     C
H       0.3626   0.2953   0.6278     H
C        0.364   0.9405   0.3104     C
H       0.3685     0.54   0.9577     H
H       0.3689   0.5343   0.8882     H
H       0.3709   0.3804   0.9364     H
H       0.3709   0.7435   0.2844     H
H       0.3722   0.8626   0.2047     H
H       0.3804   0.9364   0.3709     H
H       0.3865   0.0264   0.2121     H
H       0.3882   0.1311   0.4657     H
H       0.3914   0.0698   0.3026     H
C       0.3929   0.8601   0.2639     C
O        0.396   0.8535   0.0268     O
Fe     0.39758  0.60242  0.10242    Fe
C       0.4073   0.0192   0.2703     C
H       0.4073    0.425   0.2806     H
C       0.4078   0.7765   0.0406     C
O        0.416   0.6419   0.2284     O
H        0.425   0.2806   0.4073     H
C       0.4301   0.2806   0.4693     C
H       0.4302   0.6974   0.8914     H
H       0.4338   0.3396   0.4885     H
H       0.4364   0.1291   0.6196     H
C       0.4405   0.1896    0.636     C
O       0.4439    0.196   0.7277     O
H       0.4577   0.1315     0.46     H
C       0.4594   0.5922   0.2765     C
H         0.46   0.4577   0.1315     H
O       0.4624   0.5078   0.1473     O
H       0.4657   0.3882   0.1311     H
C       0.4693   0.4301   0.2806     C
O       0.4732    0.604   0.3535     O
H       0.4736   0.7879   0.8865     H
O       0.4769    0.341   0.1512     O
C       0.4808   0.7297   0.9073     C
H       0.4885   0.4338   0.3396     H
C       0.4885   0.7313   0.0037     C
H       0.4907   0.1791   0.7447     H
C       0.4907   0.8511   0.2626     C
O       0.4922   0.6473   0.0376     O
H       0.4942      0.3   0.2707     H
C       0.4963   0.5115   0.2313     C
C       0.5037   0.0115   0.2687     C
H       0.5058      0.8   0.2293     H
O       0.5078   0.1473   0.4624     O
C       0.5093   0.3511   0.2374     C
H       0.5093   0.6791   0.7553     H
C       0.5115   0.2313   0.4963     C
H       0.5115   0.9338   0.1604     H
C       0.5192   0.2297   0.5927     C
O       0.5231    0.841   0.3488     O
H       0.5264   0.2879   0.6135     H
O       0.5268    0.104   0.1465     O
C       0.5307   0.9301   0.2194     C
H       0.5343   0.8882   0.3689     H
O       0.5376   0.0078   0.3527     O
H         0.54   0.9577   0.3685     H
C       0.5406   0.0922   0.2235     C
H       0.5423   0.6315     0.04     H
O       0.5561    0.696   0.7723     O
C       0.5595   0.6896    0.864     C
H       0.5636   0.6291   0.8804     H
H       0.5662   0.8396   0.0115     H
H       0.5698   0.1974   0.6086     H
C       0.5699   0.7806   0.0307     C
H        0.575   0.7806   0.0927     H
O        0.584   0.1419   0.2716     O
C       0.5922   0.2765   0.4594     C
C       0.5927   0.5192   0.2297     C
H       0.5927    0.925   0.2194     H
Fe     0.60242  0.10242  0.39758    Fe
O        0.604   0.3535   0.4732     O
C       0.6071   0.3601   0.2361     C
H       0.6086   0.5698   0.1974     H
H       0.6118   0.6311   0.0343     H
H       0.6135   0.5264   0.2879     H
H       0.6196   0.4364   0.1291     H
H       0.6278   0.3626   0.2953     H
H       0.6291   0.2435   0.2156     H
H       0.6291   0.8804   0.5636     H
H       0.6311   0.0343   0.6118     H
H       0.6315     0.04   0.5423     H
C        0.636   0.4405   0.1896     C
H       0.6374   0.7953   0.8722     H
C       0.6399   0.7361   0.8929     C
O       0.6419   0.2284    0.416     O
O       0.6465   0.9732    0.896     O
O       0.6466   0.2881   0.1941     O
O       0.6473   0.0376   0.4922     O
C       0.6489   0.7374   0.9907     C
O       0.6512   0.0231    0.659     O
O        0.659   0.6512   0.0231     O
H       0.6604   0.9885   0.0662     H
H       0.6791   0.7553   0.5093     H
C       0.6896    0.864   0.5595     C
O       0.6941   0.8534   0.7119     O
O        0.696   0.7723   0.5561     O
H       0.6974   0.8914   0.4302     H
Na     0.69783  0.69783  0.69783    Na
H          0.7   0.7707   0.0058     H
H       0.7047   0.1278   0.1374     H
O       0.7119   0.6941   0.8534     O
H       0.7121   0.1135   0.9736     H
H       0.7156   0.8709   0.7565     H
H       0.7194   0.9073    0.075     H
C       0.7194   0.9693   0.0699     C
C       0.7235   0.9594   0.9078     C
O       0.7277   0.4439    0.196     O
O       0.7284    0.084   0.3581     O
H       0.7293   0.9942      0.2     H
C       0.7297   0.9073   0.4808     C
C       0.7313   0.0037   0.4885     C
C       0.7361   0.8929   0.6399     C
C       0.7374   0.9907   0.6489     C
H       0.7435   0.2844   0.3709     H
H       0.7447   0.4907   0.1791     H
H       0.7553   0.5093   0.6791     H
H       0.7565   0.7156   0.8709     H
C       0.7626   0.0093   0.1489     C
C       0.7639   0.1071   0.1399     C
C       0.7687   0.9963   0.9885     C
C       0.7703   0.0927   0.9808     C
H       0.7707   0.0058      0.7     H
O       0.7716    0.916   0.8581     O
O       0.7723   0.5561    0.696     O
C       0.7765   0.0406   0.4078     C
C       0.7806   0.0307   0.5699     C
H       0.7806   0.0927    0.575     H
H       0.7844   0.1291   0.2565     H
H       0.7879   0.8865   0.4736     H
O       0.7881   0.3059   0.3534     O
H       0.7953   0.8722   0.6374     H
H          0.8   0.2293   0.5058     H
Na     0.80217  0.30217  0.19783    Na
H       0.8026   0.1086   0.9302     H
O        0.804   0.2277   0.0561     O
O       0.8059   0.1466   0.2119     O
C       0.8104    0.136   0.0595     C
H       0.8209   0.2447   0.0093     H
H       0.8396   0.0115   0.5662     H
O        0.841   0.3488   0.5231     O
O       0.8488   0.9769    0.159     O
C       0.8511   0.2626   0.4907     C
O       0.8527   0.9624   0.9922     O
O       0.8534   0.7119   0.6941     O
O       0.8535   0.0268    0.396     O
O       0.8581   0.7716    0.916     O
C       0.8601   0.2639   0.3929     C
H       0.8626   0.2047   0.3722     H
C        0.864   0.5595   0.6896     C
H       0.8685     0.96   0.0423     H
H       0.8689   0.9657   0.1118     H
H       0.8709   0.1196   0.0636     H
H       0.8709   0.7565   0.7156     H
H       0.8722   0.6374   0.7953     H
H       0.8804   0.5636   0.6291     H
H       0.8865   0.4736   0.7879     H
H       0.8882   0.3689   0.5343     H
H       0.8914   0.4302   0.6974     H
C       0.8929   0.6399   0.7361     C
O        0.896   0.6465   0.9732     O
Fe     0.89758  0.89758  0.89758    Fe
H       0.9073    0.075   0.7194     H
C       0.9073   0.4808   0.7297     C
C       0.9078   0.7235   0.9594     C
O        0.916   0.8581   0.7716     O
H        0.925   0.2194   0.5927     H
C       0.9301   0.2194   0.5307     C
H       0.9302   0.8026   0.1086     H
H       0.9338   0.1604   0.5115     H
H       0.9364   0.3709   0.3804     H
C       0.9405   0.3104    0.364     C
O       0.9439    0.304   0.2723     O
H       0.9577   0.3685     0.54     H
C       0.9594   0.9078   0.7235     C
H         0.96   0.0423   0.8685     H
O       0.9624   0.9922   0.8527     O
H       0.9657   0.1118   0.8689     H
C       0.9693   0.0699   0.7194     C
O       0.9732    0.896   0.6465     O
H       0.9736   0.7121   0.1135     H
O       0.9769    0.159   0.8488     O
C       0.9808   0.7703   0.0927     C
H       0.9885   0.0662   0.6604     H
C       0.9885   0.7687   0.9963     C
H       0.9907   0.3209   0.2553     H
C       0.9907   0.6489   0.7374     C
O       0.9922   0.8527   0.9624     O
H       0.9942      0.2   0.7293     H
C       0.9963   0.9885   0.7687     C
