data_I
_chemical_name_common  '/home/zhangsd/repos/MofS-CGCNN/ML/data/WS24/clean_cifs/FUWXUR'
_cell_length_a 18.19952
_cell_length_b 18.19952
_cell_length_c 18.19952
_cell_angle_alpha 109.47122
_cell_angle_beta  109.47122
_cell_angle_gamma 109.47122
_space_group_name_H-M_alt      'P 1'


loop_
_space_group_symop_operation_xyz
  'x, y, z' 

loop_
_atom_site_label
_atom_site_fract_x
_atom_site_fract_y
_atom_site_fract_z
_atom_site_type_symbol
S          0.0  0.10338      0.5     S
O          0.0  0.18318      0.5     O
H          0.0  0.38238      0.5     H
O          0.0  0.42744      0.5     O
S          0.0  0.60338      0.5     S
O          0.0  0.68318      0.5     O
H          0.0  0.88238      0.5     H
O          0.0  0.92744      0.5     O
O      0.00144  0.54906  0.42022     O
N       0.0038    0.733   0.8838     N
H       0.0061   0.2763   0.8748     H
N      0.00803  0.16527  0.97452     N
N       0.0095    0.691   0.2165     N
Mn     0.01543   0.9321  0.38601    Mn
N       0.0188   0.2688     0.25     N
N       0.0197  0.96044  0.27284     N
C       0.0198   0.2361   0.9613     C
N       0.0225  0.45758  0.15894     N
N      0.02548  0.03351  0.69075     N
N       0.0255    0.809   0.3185     N
H       0.0288   0.7064   0.8618     H
N      0.03098  0.42893  0.21539     N
O       0.0317   0.3393   0.6218     O
N      0.03351  0.02548  0.19075     N
C       0.0387   0.0585   0.7748     C
N      0.03956  0.55926   0.8124     N
N      0.04242  0.20136  0.06492     N
Mn     0.04609  0.11399  0.12942    Mn
N       0.0463   0.8589   0.6692     N
O      0.04762  0.99856  0.91878     O
O      0.04906  0.92022  0.00144     O
C       0.0572   0.7013   0.2965     C
C       0.0585   0.0387   0.2748     C
N      0.05926   0.3124  0.03956     N
N      0.06492  0.54242  0.70136     N
Mn      0.0679  0.58333  0.95391    Mn
N      0.07107  0.28646  0.10205     N
O      0.07256  0.57256  0.07256     O
C       0.0728   0.7758    0.361     C
O      0.07978  0.62884  0.58122     O
O      0.08122  0.12884  0.57978     O
Mn     0.08333  0.45391   0.0679    Mn
O       0.0901   0.3076   0.4683     O
H       0.0985   0.2237   0.7298     H
N      0.10205  0.57107  0.78646     N
S      0.10338      1.0      0.0     S
Mn     0.11399  0.04609  0.62942    Mn
N       0.1162     0.12   0.3492     N
H      0.11762  0.61762  0.11762     H
N         0.12   0.1162   0.8492     N
O       0.1218   0.8393   0.5317     O
N       0.1229   0.8126   0.4537     N
Mn       0.125    0.375     0.25    Mn
H       0.1252   0.1313   0.9015     H
O      0.12884  0.08122  0.07978     O
Mn     0.12942  0.54609  0.61399    Mn
H       0.1313   0.1252   0.4015     H
N      0.13644   0.4775  0.43508     N
H       0.1382    0.167   0.3446     H
C        0.139   0.9148   0.7118     C
N       0.1411   0.6874   0.3103     N
N       0.1508   0.2708    0.767     N
H       0.1554   0.3224   0.7936     H
N      0.15724  0.46649  0.99197     N
N      0.15894   0.5225  0.95758     N
O       0.1607   0.7825   0.1924     O
N      0.16527  0.00803  0.47452     N
H        0.167   0.1382   0.8446     H
N       0.1692   0.3589   0.5463     N
H       0.1776   0.9712    0.333     H
N       0.1815   0.9905    0.707     N
O      0.18318      1.0      1.0     O
N      0.18441  0.46902  0.39795     N
N       0.1874   0.8103   0.1411     N
N       0.1876  0.22716  0.24686     N
N       0.1897   0.8771   0.8308     N
N      0.19075  0.53351  0.52548     N
N        0.191   0.7165   0.0095     N
O       0.1924   0.6607   0.2825     O
C       0.2013   0.7965   0.0572     C
N      0.20136  0.04242  0.56492     N
C        0.203   0.9272   0.7882     C
H       0.2064   0.3618   0.0288     H
N        0.207   0.4905   0.6815     N
C       0.2118   0.4148    0.639     C
N      0.21354  0.31559  0.28461     N
N      0.21539  0.53098  0.92893     N
C       0.2163   0.4415   0.9802     C
N       0.2165   0.5095    0.191     N
O       0.2175   0.8782   0.9099     O
H       0.2237   0.0985   0.2298     H
C       0.2252   0.2639   0.7837     C
N      0.22716   0.1876  0.74686     N
N       0.2292   0.9962     0.38     N
H       0.2298   0.7237   0.5985     H
N       0.2312   0.4812     0.25     N
N        0.233   0.3838   0.0038     N
C       0.2361   0.0198   0.4613     C
N      0.24686   0.6876  0.72716     N
N         0.25   0.5188   0.7688     N
Mn        0.25    0.625    0.875    Mn
N         0.25   0.7312   0.9812     N
N      0.25314   0.4803  0.94074     N
C       0.2607   0.4048   0.7035     C
C       0.2639   0.2252   0.2837     C
N        0.267   0.7708   0.6508     N
N       0.2688   0.0188     0.75     N
H       0.2702   0.3687   0.9939     H
N       0.2708   0.1508    0.267     N
N      0.27284   0.5197  0.46044     N
C       0.2748   0.5585   0.5387     C
C       0.2758    0.861   0.0728     C
H       0.2763   0.0061   0.3748     H
O       0.2825   0.6924   0.1607     O
N       0.2835   0.9745    0.793     N
C       0.2837   0.7639   0.7252     C
N      0.28461  0.71354  0.81559     N
N      0.28646  0.07107  0.60205     N
N        0.293   0.4745   0.7835     N
H       0.2936   0.8224   0.6554     H
C       0.2965   0.5572   0.2013     C
N      0.29864  0.36356  0.34106     N
O       0.3076   0.0901   0.9683     O
N        0.309   0.8185   0.0255     N
N      0.30925  0.33473  0.84276     N
N       0.3103   0.6411   0.1874     N
N       0.3124  0.05926  0.53956     N
N       0.3126   0.9537   0.1229     N
N      0.31559  0.21354  0.78461     N
O      0.31682  0.81682  0.31682     O
N       0.3185   0.5255    0.309     N
H       0.3224   0.1554   0.2936     H
N       0.3308   0.3771   0.6897     N
H        0.333   0.6776   0.4712     H
N      0.33473  0.30925  0.34276     N
O       0.3393   0.0317   0.1218     O
N      0.34106  0.79864  0.86356     N
N      0.34276  0.83473  0.80925     N
H       0.3446   0.6382    0.667     H
N       0.3492   0.6162     0.62     N
C       0.3559   0.5952   0.2987     C
N       0.3589   0.1692   0.0463     N
H       0.3618   0.2064   0.5288     H
N      0.36356  0.29864  0.84106     N
H       0.3687   0.2702   0.4939     H
Mn     0.37058  0.48457  0.91667    Mn
O      0.37116  0.95094  0.45238     O
H       0.3748   0.7763   0.5061     H
Mn       0.375    0.125     0.75    Mn
N       0.3771   0.3308   0.1897     N
O       0.3782   0.4099   0.2175     O
N         0.38   0.7292   0.4962     N
H      0.38238      1.0      1.0     H
N       0.3838    0.233   0.5038     N
Mn     0.38601  0.51543   0.4321    Mn
S      0.39662  0.89662  0.39662     S
N      0.39795  0.68441  0.96902     N
H       0.4015   0.6313   0.6252     H
C       0.4048   0.2607   0.2035     C
O       0.4099   0.3782   0.7175     O
C       0.4148   0.2118    0.139     C
Mn     0.41667  0.98457  0.87058    Mn
O      0.41878  0.49856  0.54762     O
O      0.42022  0.50144  0.04906     O
O      0.42744      1.0      1.0     O
N      0.42893  0.03098  0.71539     N
Mn      0.4321  0.88601  0.01543    Mn
N      0.43508  0.63644   0.9775     N
N      0.44074   0.9803  0.75314     N
C       0.4415   0.2163   0.4802     C
O      0.45094  0.95238  0.37116     O
O      0.45238  0.87116  0.45094     O
N       0.4537   0.6229   0.3126     N
Mn     0.45391  0.08333   0.5679    Mn
N      0.45758   0.0225  0.65894     N
N      0.46044  0.77284   0.0197     N
C       0.4613   0.7361   0.5198     C
N      0.46649  0.15724  0.49197     N
O       0.4683   0.5901   0.8076     O
N      0.46902  0.18441  0.89795     N
H       0.4712    0.833   0.1776     H
N       0.4745    0.293   0.2835     N
N      0.47452  0.66527  0.50803     N
N       0.4775  0.13644  0.93508     N
C       0.4802   0.9415   0.7163     C
N       0.4803  0.25314  0.44074     N
N       0.4812   0.2312     0.75     N
Mn     0.48457  0.37058  0.41667    Mn
N       0.4905    0.207   0.1815     N
N      0.49197  0.96649  0.65724     N
H       0.4939   0.8687   0.7702     H
N       0.4962     0.88   0.2292     N
O      0.49856  0.41878  0.04762     O
S          0.5      0.5  0.10338     S
O          0.5      0.5  0.18318     O
H          0.5      0.5  0.38238     H
O          0.5      0.5  0.42744     O
S          0.5      0.5  0.60338     S
O          0.5      0.5  0.68318     O
H          0.5      0.5  0.88238     H
O          0.5      0.5  0.92744     O
O      0.50144  0.42022  0.54906     O
N       0.5038   0.8838    0.733     N
H       0.5061   0.8748   0.2763     H
N      0.50803  0.97452  0.16527     N
N       0.5095   0.2165    0.691     N
Mn     0.51543  0.38601   0.9321    Mn
N       0.5188     0.25   0.2688     N
N       0.5197  0.27284  0.96044     N
C       0.5198   0.9613   0.2361     C
N       0.5225  0.15894  0.45758     N
N      0.52548  0.69075  0.03351     N
N       0.5255   0.3185    0.809     N
H       0.5288   0.8618   0.7064     H
N      0.53098  0.21539  0.42893     N
O       0.5317   0.6218   0.3393     O
N      0.53351  0.19075  0.02548     N
C       0.5387   0.7748   0.0585     C
N      0.53956   0.8124  0.55926     N
N      0.54242  0.06492  0.20136     N
Mn     0.54609  0.12942  0.11399    Mn
N       0.5463   0.6692   0.8589     N
O      0.54762  0.91878  0.99856     O
O      0.54906  0.00144  0.92022     O
C       0.5572   0.2965   0.7013     C
C       0.5585   0.2748   0.0387     C
N      0.55926  0.03956   0.3124     N
N      0.56492  0.70136  0.54242     N
Mn      0.5679  0.95391  0.58333    Mn
N      0.57107  0.10205  0.28646     N
O      0.57256  0.07256  0.57256     O
C       0.5728    0.361   0.7758     C
O      0.57978  0.58122  0.62884     O
O      0.58122  0.57978  0.12884     O
Mn     0.58333   0.0679  0.45391    Mn
O       0.5901   0.4683   0.3076     O
H       0.5985   0.7298   0.2237     H
N      0.60205  0.78646  0.57107     N
S      0.60338      1.0      1.0     S
Mn     0.61399  0.62942  0.04609    Mn
N       0.6162   0.3492     0.12     N
H      0.61762  0.11762  0.61762     H
N         0.62   0.8492   0.1162     N
O       0.6218   0.5317   0.8393     O
N       0.6229   0.4537   0.8126     N
Mn       0.625     0.25    0.375    Mn
H       0.6252   0.9015   0.1313     H
O      0.62884  0.07978  0.08122     O
Mn     0.62942  0.61399  0.54609    Mn
H       0.6313   0.4015   0.1252     H
N      0.63644  0.43508   0.4775     N
H       0.6382   0.3446    0.167     H
C        0.639   0.7118   0.9148     C
N       0.6411   0.3103   0.6874     N
N       0.6508    0.767   0.2708     N
H       0.6554   0.7936   0.3224     H
N      0.65724  0.99197  0.46649     N
N      0.65894  0.95758   0.5225     N
O       0.6607   0.1924   0.7825     O
N      0.66527  0.47452  0.00803     N
H        0.667   0.8446   0.1382     H
N       0.6692   0.5463   0.3589     N
H       0.6776    0.333   0.9712     H
N       0.6815    0.707   0.9905     N
O      0.68318      0.0      0.0     O
N      0.68441  0.39795  0.46902     N
N       0.6874   0.1411   0.8103     N
N       0.6876  0.24686  0.22716     N
N       0.6897   0.8308   0.8771     N
N      0.69075  0.52548  0.53351     N
N        0.691   0.0095   0.7165     N
O       0.6924   0.2825   0.6607     O
C       0.7013   0.0572   0.7965     C
N      0.70136  0.56492  0.04242     N
C        0.703   0.7882   0.9272     C
H       0.7064   0.0288   0.3618     H
N        0.707   0.6815   0.4905     N
C       0.7118    0.639   0.4148     C
N      0.71354  0.28461  0.31559     N
N      0.71539  0.92893  0.53098     N
C       0.7163   0.9802   0.4415     C
N       0.7165    0.191   0.5095     N
O       0.7175   0.9099   0.8782     O
H       0.7237   0.2298   0.0985     H
C       0.7252   0.7837   0.2639     C
N      0.72716  0.74686   0.1876     N
N       0.7292     0.38   0.9962     N
H       0.7298   0.5985   0.7237     H
N       0.7312     0.25   0.4812     N
N        0.733   0.0038   0.3838     N
C       0.7361   0.4613   0.0198     C
N      0.74686  0.72716   0.6876     N
N         0.75   0.7688   0.5188     N
Mn        0.75    0.875    0.625    Mn
N         0.75   0.9812   0.7312     N
N      0.75314  0.94074   0.4803     N
C       0.7607   0.7035   0.4048     C
C       0.7639   0.2837   0.2252     C
N        0.767   0.6508   0.7708     N
N       0.7688     0.75   0.0188     N
H       0.7702   0.9939   0.3687     H
N       0.7708    0.267   0.1508     N
N      0.77284  0.46044   0.5197     N
C       0.7748   0.5387   0.5585     C
C       0.7758   0.0728    0.861     C
H       0.7763   0.3748   0.0061     H
O       0.7825   0.1607   0.6924     O
N       0.7835    0.793   0.9745     N
C       0.7837   0.7252   0.7639     C
N      0.78461  0.81559  0.71354     N
N      0.78646  0.60205  0.07107     N
N        0.793   0.7835   0.4745     N
H       0.7936   0.6554   0.8224     H
C       0.7965   0.2013   0.5572     C
N      0.79864  0.34106  0.36356     N
O       0.8076   0.9683   0.0901     O
N        0.809   0.0255   0.8185     N
N      0.80925  0.84276  0.33473     N
N       0.8103   0.1874   0.6411     N
N       0.8124  0.53956  0.05926     N
N       0.8126   0.1229   0.9537     N
N      0.81559  0.78461  0.21354     N
O      0.81682  0.31682  0.81682     O
N       0.8185    0.309   0.5255     N
H       0.8224   0.2936   0.1554     H
N       0.8308   0.6897   0.3771     N
H        0.833   0.4712   0.6776     H
N      0.83473  0.34276  0.30925     N
O       0.8393   0.1218   0.0317     O
N      0.84106  0.86356  0.79864     N
N      0.84276  0.80925  0.83473     N
H       0.8446    0.667   0.6382     H
N       0.8492     0.62   0.6162     N
C       0.8559   0.2987   0.5952     C
N       0.8589   0.0463   0.1692     N
H       0.8618   0.5288   0.2064     H
N      0.86356  0.84106  0.29864     N
H       0.8687   0.4939   0.2702     H
Mn     0.87058  0.91667  0.48457    Mn
O      0.87116  0.45238  0.95094     O
H       0.8748   0.5061   0.7763     H
Mn       0.875     0.75    0.125    Mn
N       0.8771   0.1897   0.3308     N
O       0.8782   0.2175   0.4099     O
N         0.88   0.4962   0.7292     N
H      0.88238      1.0      1.0     H
N       0.8838   0.5038    0.233     N
Mn     0.88601   0.4321  0.51543    Mn
S      0.89662  0.39662  0.89662     S
N      0.89795  0.96902  0.68441     N
H       0.9015   0.6252   0.6313     H
C       0.9048   0.2035   0.2607     C
O       0.9099   0.7175   0.3782     O
C       0.9148    0.139   0.2118     C
Mn     0.91667  0.87058  0.98457    Mn
O      0.91878  0.54762  0.49856     O
O      0.92022  0.04906  0.50144     O
O      0.92744      1.0      1.0     O
N      0.92893  0.71539  0.03098     N
Mn      0.9321  0.01543  0.88601    Mn
N      0.93508   0.9775  0.63644     N
N      0.94074  0.75314   0.9803     N
C       0.9415   0.4802   0.2163     C
O      0.95094  0.37116  0.95238     O
O      0.95238  0.45094  0.87116     O
N       0.9537   0.3126   0.6229     N
Mn     0.95391   0.5679  0.08333    Mn
N      0.95758  0.65894   0.0225     N
N      0.96044   0.0197  0.77284     N
C       0.9613   0.5198   0.7361     C
N      0.96649  0.49197  0.15724     N
O       0.9683   0.8076   0.5901     O
N      0.96902  0.89795  0.18441     N
H       0.9712   0.1776    0.833     H
N       0.9745   0.2835    0.293     N
N      0.97452  0.50803  0.66527     N
N       0.9775  0.93508  0.13644     N
C       0.9802   0.7163   0.9415     C
N       0.9803  0.44074  0.25314     N
N       0.9812     0.75   0.2312     N
Mn     0.98457  0.41667  0.37058    Mn
N       0.9905   0.1815    0.207     N
N      0.99197  0.65724  0.96649     N
H       0.9939   0.7702   0.8687     H
N       0.9962   0.2292     0.88     N
O      0.99856  0.04762  0.41878     O
