data_I
_chemical_name_common  '/home/zhangsd/repos/MofS-CGCNN/ML/data/WS24/clean_cifs/GAYFUJ'
_cell_length_a 10.09030
_cell_length_b 10.09030
_cell_length_c 21.25680
_cell_angle_alpha 90.00000
_cell_angle_beta  90.00000
_cell_angle_gamma 120.00000
_space_group_name_H-M_alt      'P 1'


loop_
_space_group_symop_operation_xyz
  'x, y, z' 

loop_
_atom_site_label
_atom_site_fract_x
_atom_site_fract_y
_atom_site_fract_z
_atom_site_type_symbol
H      0.06907   0.5108  0.52341     H
H      0.06907  0.55827  0.30993     H
Cd     0.08818  0.17637  0.58333    Cd
Cd     0.08818  0.91181     0.25    Cd
C      0.09471  0.45879  0.49276     C
C      0.09471  0.63592  0.34058     C
N      0.10153  0.32907  0.50234     N
N      0.10153  0.77246    0.331     N
C      0.13107    0.501  0.43161     C
C      0.13107  0.63007  0.40173     C
N      0.14209   0.2911  0.44711     N
N      0.14209  0.85099  0.38623     N
N      0.14901   0.2911  0.71956     N
N      0.14901  0.85791  0.11377     N
C      0.16034  0.39735  0.40339     C
C      0.16034  0.76299  0.42995     C
Cd     0.17637  0.08818  0.41667    Cd
H      0.18859  0.39891  0.36065     H
H      0.18859  0.78968  0.47269     H
H      0.21032  0.39891  0.80602     H
H      0.21032  0.81141  0.02731     H
N      0.22754  0.32907  0.66433     N
N      0.22754  0.89847    0.169     N
C      0.23701  0.39735  0.76328     C
C      0.23701  0.83966  0.07005     C
N       0.2911  0.14209  0.55289     N
N       0.2911  0.14901  0.28044     N
N      0.32907  0.10153  0.49766     N
N      0.32907  0.22754  0.33567     N
C      0.36408  0.45879  0.67391     C
C      0.36408  0.90529  0.15942     C
C      0.36993    0.501  0.73506     C
C      0.36993  0.86893  0.09827     C
C      0.39735  0.16034  0.59661     C
C      0.39735  0.23701  0.23672     C
H      0.39891  0.18859  0.63935     H
H      0.39891  0.21032  0.19398     H
H      0.44173   0.5108  0.64326     H
H      0.44173  0.93093  0.19007     H
C      0.45879  0.09471  0.50724     C
C      0.45879  0.36408  0.32609     C
H       0.4892  0.55827  0.85674     H
H       0.4892  0.93093  0.97659     H
C        0.499  0.63007  0.76494     C
C        0.499  0.86893  0.06839     C
C        0.501  0.13107  0.56839     C
C        0.501  0.36993  0.26494     C
H       0.5108  0.06907  0.47659     H
H       0.5108  0.44173  0.35674     H
C      0.54121  0.63592  0.82609     C
C      0.54121  0.90529  0.00724     C
H      0.55827  0.06907  0.69007     H
H      0.55827   0.4892  0.14326     H
H      0.60109  0.78968  0.69398     H
H      0.60109  0.81141  0.13935     H
C      0.60265  0.76299  0.73672     C
C      0.60265  0.83966  0.09661     C
C      0.63007  0.13107  0.59827     C
C      0.63007    0.499  0.23506     C
C      0.63592  0.09471  0.65942     C
C      0.63592  0.54121  0.17391     C
N      0.67093  0.77246  0.83567     N
N      0.67093  0.89847  0.99766     N
N       0.7089  0.85099  0.78044     N
N       0.7089  0.85791  0.05289     N
C      0.76299  0.16034  0.57005     C
C      0.76299  0.60265  0.26328     C
N      0.77246  0.10153    0.669     N
N      0.77246  0.67093  0.16433     N
H      0.78968  0.18859  0.52731     H
H      0.78968  0.60109  0.30602     H
H      0.81141  0.21032  0.97269     H
H      0.81141  0.60109  0.86065     H
Cd     0.82363  0.91182  0.91667    Cd
C      0.83966  0.23701  0.92995     C
C      0.83966  0.60265  0.90339     C
N      0.85099  0.14209  0.61377     N
N      0.85099   0.7089  0.21956     N
N      0.85791  0.14901  0.88623     N
N      0.85791   0.7089  0.94711     N
C      0.86893  0.36993  0.90173     C
C      0.86893    0.499  0.93161     C
N      0.89847  0.22754    0.831     N
N      0.89847  0.67093  0.00234     N
C      0.90529  0.36408  0.84058     C
C      0.90529  0.54121  0.99276     C
Cd     0.91181  0.08818     0.75    Cd
Cd     0.91181  0.82362  0.08333    Cd
H      0.93093  0.44173  0.80993     H
H      0.93093   0.4892  0.02341     H
