data_I
_chemical_name_common  '/home/zhangsd/repos/MofS-CGCNN/ML/data/WS24/clean_cifs/GAYGEU'
_cell_length_a  6.94944
_cell_length_b  9.53528
_cell_length_c  9.53528
_cell_angle_alpha 63.42024
_cell_angle_beta  68.62892
_cell_angle_gamma 68.62892
_space_group_name_H-M_alt      'P 1'


loop_
_space_group_symop_operation_xyz
  'x, y, z' 

loop_
_atom_site_label
_atom_site_fract_x
_atom_site_fract_y
_atom_site_fract_z
_atom_site_type_symbol
Ni         0.0      0.0      0.0    Ni
C     0.0495941 0.9965134 0.4042984     C
N     0.06030744 0.02352868 0.16015724     N
C     0.06726258 0.9931676 0.6889552     C
H     0.13583202 0.6547088 0.9969572     H
H     0.21250198 0.9969572 0.6547088     H
N     0.24399336 0.83984276 0.97647132     N
C     0.24938538 0.0068324 0.3110448     C
C     0.25061462 0.6889552 0.9931676     C
N     0.25600664 0.02352868 0.16015724     N
H     0.28749802 0.3452912 0.0030428     H
H     0.36416798 0.0030428 0.3452912     H
C     0.43273742 0.3110448 0.0068324     C
N     0.43969256 0.83984276 0.97647132     N
C     0.4504059 0.5957016 0.0034866     C
Ni         0.5      1.0      0.0    Ni
C     0.5495941 0.4042984 0.9965134     C
N     0.56030744 0.16015724 0.02352868     N
C     0.56726258 0.6889552 0.9931676     C
H     0.63583202 0.9969572 0.6547088     H
H     0.71250198 0.6547088 0.9969572     H
N     0.74399336 0.97647132 0.83984276     N
C     0.74938538 0.3110448 0.0068324     C
C     0.75061462 0.9931676 0.6889552     C
N     0.75600664 0.16015724 0.02352868     N
H     0.78749802 0.0030428 0.3452912     H
H     0.86416798 0.3452912 0.0030428     H
C     0.93273742 0.0068324 0.3110448     C
N     0.93969256 0.97647132 0.83984276     N
C     0.9504059 0.0034866 0.5957016     C
