data_I
_chemical_name_common  '/home/zhangsd/repos/MofS-CGCNN/ML/data/WS24/clean_cifs/GAZKUP'
_cell_length_a  5.80040
_cell_length_b 13.21980
_cell_length_c 15.34700
_cell_angle_alpha 108.43000
_cell_angle_beta  90.00000
_cell_angle_gamma 90.00000
_space_group_name_H-M_alt      'P 1'


loop_
_space_group_symop_operation_xyz
  'x, y, z' 

loop_
_atom_site_label
_atom_site_fract_x
_atom_site_fract_y
_atom_site_fract_z
_atom_site_type_symbol
H       0.0055    0.317   0.8535     H
O         0.04  0.46328  0.84609     O
C       0.0475  0.69871  0.10714     C
H        0.065     0.19     0.46     H
H       0.0733   0.3486    0.096     H
C         0.08  0.81936  0.37182     C
O       0.0875  0.98748  0.60372     O
C       0.0988  0.31936  0.22095     C
C       0.1064  0.18405  0.06299     C
H       0.1152   0.5457   0.1094     H
O       0.1186   0.9157  0.41688     O
H        0.122    0.962   0.5477     H
H       0.1499   0.4485   0.8107     H
H       0.1514   0.0331   0.0714     H
C       0.1618  0.29989   0.1198     C
O       0.1626  0.42617  0.27398     O
O       0.1629  0.78457  0.08778     O
C       0.1676  0.77611  0.27257     C
H       0.1725   0.1718   0.0018     H
H       0.1819   0.2574   0.3234     H
O       0.1836  0.15087   0.4548     O
C       0.1874    0.125  0.20722     C
H        0.195    0.546    0.969     H
H          0.2    0.981    0.634     H
C       0.2048  0.60236  0.09683     C
H       0.2115   0.7642   0.0349     H
C       0.2165  0.10272   0.1028     C
C       0.2281  0.24367  0.25994     C
H       0.2444   0.6276   0.2818     H
H       0.2548   0.4242   0.3139     H
Co     0.26029   0.0132 0.347602    Co
H        0.262    0.171    0.503     H
O       0.2729  0.88308  0.79892     O
H        0.283     0.85    0.203     H
O       0.2988  0.86027  0.25475     O
O       0.2997  0.56258   0.0067     O
H       0.3127    0.783   0.9694     H
C        0.326    0.681  0.26256     C
O       0.3548  0.06319  0.23751     O
O       0.3633  0.82817  0.94812     O
H       0.3693   0.1929   0.7879     H
H       0.3701   0.3076   0.7782     H
H       0.3801   0.0991    0.089     H
H       0.3918   0.2585   0.2595     H
O       0.4017  0.31671   0.1105     O
C       0.4079  0.63135  0.16302     C
H       0.4144   0.3235   0.9338     H
H       0.4325   0.6902   0.7736     H
O       0.4491  0.95917  0.70682     O
C       0.4506  0.90918  0.76525     C
H       0.4588    0.704   0.3023     H
H        0.463   0.3338   0.1612     H
C       0.4641  0.25518  0.79384     C
O       0.4743  0.24357  0.59583     O
H        0.481    0.083    0.217     H
H       0.5055    0.683   0.1465     H
O         0.54  0.53672  0.15391     O
C       0.5475  0.30129  0.89286     C
H        0.565     0.81     0.54     H
H       0.5733   0.6514    0.904     H
C         0.58  0.18064  0.62818     C
O       0.5875  0.01252  0.39628     O
C       0.5988  0.68064  0.77905     C
C       0.6064  0.81595  0.93701     C
H       0.6152   0.4543   0.8906     H
O       0.6186   0.0843  0.58312     O
H        0.622    0.038   0.4523     H
H       0.6499   0.5515   0.1893     H
H       0.6514   0.9669   0.9286     H
C       0.6618  0.70011   0.8802     C
O       0.6626  0.57383  0.72602     O
O       0.6629  0.21543  0.91222     O
C       0.6676  0.22389  0.72743     C
H       0.6725   0.8282   0.9982     H
H       0.6819   0.7426   0.6766     H
O       0.6836  0.84913   0.5452     O
C       0.6874    0.875  0.79278     C
H        0.695    0.454    0.031     H
H          0.7    0.019    0.366     H
C       0.7048  0.39764  0.90317     C
H       0.7115   0.2358   0.9651     H
C       0.7165  0.89728   0.8972     C
C       0.7281  0.75633  0.74006     C
H       0.7444   0.3724   0.7182     H
H       0.7548   0.5758   0.6861     H
Co     0.76029   0.9868 0.652398    Co
H        0.762    0.829    0.497     H
O       0.7729  0.11692  0.20108     O
H        0.783     0.15    0.797     H
O       0.7988  0.13973  0.74525     O
O       0.7997  0.43742   0.9933     O
H       0.8127    0.217   0.0306     H
C        0.826    0.319  0.73744     C
O       0.8548  0.93681  0.76249     O
O       0.8633  0.17183  0.05188     O
H       0.8693   0.8071   0.2121     H
H       0.8701   0.6924   0.2218     H
H       0.8801   0.9009    0.911     H
H       0.8918   0.7415   0.7405     H
O       0.9017  0.68329   0.8895     O
C       0.9079  0.36865  0.83698     C
H       0.9144   0.6765   0.0662     H
H       0.9325   0.3098   0.2264     H
O       0.9491  0.04083  0.29318     O
C       0.9506  0.09082  0.23475     C
H       0.9588    0.296   0.6977     H
H        0.963   0.6662   0.8388     H
C       0.9641  0.74482  0.20616     C
O       0.9743  0.75643  0.40417     O
H        0.981    0.917    0.783     H
