data_I
_chemical_name_common  '/home/zhangsd/repos/MofS-CGCNN/ML/data/WS24/clean_cifs/GIKMOD11'
_cell_length_a  7.33330
_cell_length_b 10.17290
_cell_length_c 18.15300
_cell_angle_alpha 90.00000
_cell_angle_beta  90.00000
_cell_angle_gamma 94.37900
_space_group_name_H-M_alt      'P 1'


loop_
_space_group_symop_operation_xyz
  'x, y, z' 

loop_
_atom_site_label
_atom_site_fract_x
_atom_site_fract_y
_atom_site_fract_z
_atom_site_type_symbol
Cu      0.0451   0.9326   0.9318    Cu
O        0.048   0.0855   0.1664     O
O         0.05   0.6425   0.5955     O
H       0.0615   0.2001   0.2915     H
C        0.092    0.999   0.2049     C
C        0.102    0.132   0.3197     C
O        0.114   0.8779   0.1853     O
S       0.1169   0.3091    0.434     S
O        0.124   0.2995   0.5124     O
Cu      0.1328   0.7814   0.0943    Cu
C        0.133     0.01    0.288     C
C        0.134    0.147   0.3958     C
O        0.134   0.9455   0.0345     O
O        0.162   0.6616   0.0111     O
O        0.187   0.7897   0.9112     O
C        0.195    0.044   0.4367     C
C        0.198    0.683   0.9443     C
C        0.201    0.914     0.33     C
H       0.2131   0.0528   0.4872     H
O        0.224   0.1098   0.9049     O
C        0.227     0.93   0.4024     C
H       0.2292   0.8362   0.3078     H
H       0.2708   0.6638   0.8078     H
C        0.273     0.57   0.9024     C
O        0.276   0.3902   0.4049     O
H       0.2869   0.4472   0.9872     H
C        0.299    0.586     0.83     C
C        0.302    0.817   0.4443     C
C        0.305    0.456   0.9367     C
O        0.313   0.7103   0.4112     O
O        0.338   0.8384   0.5111     O
C        0.366    0.353   0.8958     C
O        0.366   0.5545   0.5345     O
C        0.367     0.49    0.788     C
Cu      0.3672   0.7186   0.5943    Cu
O        0.376   0.2005   0.0124     O
S       0.3831   0.1909    0.934     S
O        0.386   0.6221   0.6853     O
C        0.398    0.368   0.8197     C
C        0.408    0.501   0.7049     C
H       0.4385   0.2999   0.7915     H
O         0.45   0.8575   0.0955     O
O        0.452   0.4145   0.6664     O
Cu      0.4549   0.5674   0.4318    Cu
Cu      0.5451   0.4326   0.5682    Cu
O        0.548   0.5855   0.3336     O
O         0.55   0.1425   0.9045     O
H       0.5615   0.7001   0.2085     H
C        0.592    0.499   0.2951     C
C        0.602    0.632   0.1803     C
O        0.614   0.3779   0.3147     O
S       0.6169   0.8091    0.066     S
O        0.624   0.7995   0.9876     O
Cu      0.6328   0.2814   0.4057    Cu
C        0.633     0.51    0.212     C
O        0.634   0.4455   0.4655     O
C        0.634    0.647   0.1042     C
O        0.662   0.1616   0.4889     O
O        0.687   0.2897   0.5888     O
C        0.695    0.544   0.0633     C
C        0.698    0.183   0.5557     C
C        0.701    0.414     0.17     C
H       0.7131   0.5528   0.0128     H
O        0.724   0.6098   0.5951     O
C        0.727     0.43   0.0976     C
H       0.7292   0.3362   0.1922     H
H       0.7708   0.1638   0.6922     H
C        0.773     0.07   0.5976     C
O        0.776   0.8902   0.0951     O
H       0.7869   0.9472   0.5128     H
C        0.799    0.086     0.67     C
C        0.802    0.317   0.0557     C
C        0.805    0.956   0.5633     C
O        0.813   0.2103   0.0888     O
O        0.838   0.3384   0.9889     O
O        0.866   0.0545   0.9655     O
C        0.866    0.853   0.6042     C
C        0.867     0.99    0.712     C
Cu      0.8672   0.2186   0.9057    Cu
O        0.876   0.7005   0.4876     O
S       0.8831   0.6909    0.566     S
O        0.886   0.1221   0.8147     O
C        0.898    0.868   0.6803     C
C        0.908    0.001   0.7951     C
H       0.9385   0.7999   0.7085     H
O         0.95   0.3575   0.4045     O
O        0.952   0.9145   0.8336     O
Cu      0.9549   0.0674   0.0682    Cu
