data_I
_chemical_name_common  '/home/zhangsd/repos/MofS-CGCNN/ML/data/WS24/clean_cifs/GIYTIS'
_cell_length_a  8.95080
_cell_length_b  9.08920
_cell_length_c 19.80200
_cell_angle_alpha 95.64000
_cell_angle_beta  97.68000
_cell_angle_gamma 118.25000
_space_group_name_H-M_alt      'P 1'


loop_
_space_group_symop_operation_xyz
  'x, y, z' 

loop_
_atom_site_label
_atom_site_fract_x
_atom_site_fract_y
_atom_site_fract_z
_atom_site_type_symbol
C       0.0007   0.9896   0.0012     C
C        0.013    0.152   0.5766     C
H       0.0164    0.127   0.3098     H
C        0.023    0.188   0.4527     C
H       0.0343   0.2235   0.0339     H
H       0.0377   0.7794   0.9854     H
C        0.059    0.238   0.6443     C
C       0.0638   0.3466   0.8615     C
C        0.082    0.245   0.5266     C
O       0.0917   0.3296   0.8005     O
H       0.0966   0.2532   0.4256     H
C        0.099   0.1644   0.0437     C
C       0.0995   0.8905   0.0152     C
H       0.1062   0.8744    0.063     H
H       0.1068   0.1561   0.0924     H
O       0.1768   0.4489   0.9125     O
N       0.2183   0.3629   0.6663     N
C        0.237    0.382   0.5494     C
H      0.26283  0.27634  0.97381     H
H      0.26846  0.99686  0.94403     H
C       0.2749   0.2653   0.0309     C
C       0.2802   0.9886   0.0014     C
H       0.3009   0.4419   0.5182     H
C        0.303    0.434   0.6195     C
Zn     0.31388  0.44292  0.77086    Zn
O       0.3489    0.478   0.1292     O
C       0.3763   0.8937   0.0166     C
C        0.377   0.4428   0.0736     C
C       0.3772   0.1754   0.0449     C
O       0.3841    0.807   0.9649     O
H       0.3844   0.9954   0.8368     H
H       0.3956   0.1713   0.0939     H
H       0.4145   0.5263   0.6345     H
O       0.4303   0.6652   0.8329     O
Zn        0.44   0.6149  0.93621    Zn
O        0.446   0.9091   0.0759     O
O       0.4479   0.5633   0.0395     O
O       0.4503   0.3377   0.7931     O
O        0.455   0.7627   0.7383     O
H       0.4868   0.6682   0.2383     H
H       0.4898   0.2388   0.0331     H
H       0.4908   0.0675   0.7793     H
O       0.4922   0.4198   0.9069     O
C       0.5002   0.0587    0.828     C
C       0.5024   0.3368   0.8596     C
C        0.511   0.7864   0.8042     C
Zn     0.56632  0.78625  0.10176    Zn
C        0.586    0.774   0.2527     C
H        0.596   0.7704   0.3538     H
C       0.5966   0.2358   0.8733     C
C        0.606   0.9662   0.8464     C
H      0.60835  0.22277  0.93017     H
H      0.62265  0.96199  0.90414     H
C        0.651    0.835    0.322     C
N       0.6593    0.863   0.2038     N
O       0.7051   0.7746   0.9612     O
H       0.7738   0.3486   0.8094     H
H        0.775   0.0733   0.7782     H
C       0.7829    0.337   0.8578     C
O       0.7862   0.9058   0.0721     O
C       0.7884   0.0646   0.8268     C
C          0.8    0.993   0.3457     C
C        0.806    0.023   0.2258     C
C        0.812    0.879   0.0116     C
H       0.8259   0.0039   0.4521     H
H       0.8436     0.45    0.886     H
H       0.8442    0.102   0.1965     H
H       0.8531   0.0052   0.8352     H
C       0.8855    0.245   0.8733     C
C        0.891    0.068   0.4223     C
H      0.89349   0.2306  0.93001     H
C        0.897     0.06   0.2973     C
H       0.9376   0.0354   0.5652     H
H       0.9794   0.2086   0.6731     H
H       0.9926  0.00271  0.94435     H
