data_I
_chemical_name_common  '/home/zhangsd/repos/MofS-CGCNN/ML/data/WS24/clean_cifs/GIYTEO'
_cell_length_a 16.01600
_cell_length_b  8.90280
_cell_length_c 17.64200
_cell_angle_alpha 90.00000
_cell_angle_beta  102.93000
_cell_angle_gamma 90.00000
_space_group_name_H-M_alt      'P 1'


loop_
_space_group_symop_operation_xyz
  'x, y, z' 

loop_
_atom_site_label
_atom_site_fract_x
_atom_site_fract_y
_atom_site_fract_z
_atom_site_type_symbol
Zn         0.0      0.5      0.0    Zn
C       0.0006      0.5   0.4578     C
Zn     0.00224      0.5  0.81451    Zn
N       0.0056      0.5   0.3013     N
C        0.059    0.429   0.6744     C
C        0.059    0.571   0.6744     C
H       0.0592      0.0   0.9456     H
C       0.0622    0.428   0.5967     C
C       0.0622    0.572   0.5967     C
H       0.0674      0.0   0.8586     H
C        0.073      0.5   0.4339     C
O       0.0743   0.3248   0.8445     O
O       0.0743   0.6752   0.8445     O
C       0.0744      0.5   0.3565     C
O       0.0759   0.3314   0.9709     O
O       0.0759   0.6686   0.9709     O
O       0.0778      0.5    0.117     O
C       0.0983    0.277    0.914     C
C       0.0983    0.723    0.914     C
C       0.0997      0.0   0.9121     C
H       0.1247      0.5   0.4707     H
H       0.1272      0.5   0.3429     H
C       0.1543      0.5    0.152     C
C       0.1552   0.1421   0.9273     C
C       0.1552   0.8579   0.9273     C
O       0.1731      0.5   0.2227     O
H       0.1857   0.1415   0.9821     H
H       0.1857   0.8585   0.9821     H
H       0.1926   0.1415   0.8228     H
H       0.1926   0.8585   0.8228     H
H       0.1945      0.5   0.0506     H
C       0.2215   0.1398   0.8773     C
C       0.2215   0.8602   0.8773     C
C       0.2226      0.5    0.106     C
H       0.2428   0.2713    0.112     H
H       0.2428   0.7287    0.112     H
H       0.2572   0.2287    0.888     H
H       0.2572   0.7713    0.888     H
C       0.2774      0.0    0.894     C
C       0.2785   0.3602   0.1227     C
C       0.2785   0.6398   0.1227     C
H       0.3055      0.0   0.9494     H
H       0.3074   0.3585   0.1772     H
H       0.3074   0.6415   0.1772     H
H       0.3143   0.3585   0.0179     H
H       0.3143   0.6415   0.0179     H
O       0.3269      0.0   0.7773     O
C       0.3448   0.3579   0.0727     C
C       0.3448   0.6421   0.0727     C
C       0.3457      0.0    0.848     C
H       0.3728      0.0   0.6571     H
H       0.3753      0.0   0.5293     H
C       0.4003      0.5   0.0879     C
C       0.4017    0.223    0.086     C
C       0.4017    0.777    0.086     C
O       0.4222      0.0    0.883     O
O       0.4241   0.1686   0.0291     O
O       0.4241   0.8314   0.0291     O
C       0.4256      0.0   0.6435     C
O       0.4257   0.1752   0.1555     O
O       0.4257   0.8248   0.1555     O
C        0.427      0.0   0.5661     C
H       0.4326      0.5   0.1414     H
C       0.4378    0.072   0.4033     C
C       0.4378    0.928   0.4033     C
H       0.4408      0.5   0.0544     H
C        0.441    0.071   0.3256     C
C        0.441    0.929   0.3256     C
N       0.4944      0.0   0.6987     N
Zn     0.49776      0.0  0.18549    Zn
C       0.4994      0.0   0.5422     C
Zn         0.5      0.0      0.0    Zn
C       0.5006      0.0   0.4578     C
Zn     0.50224      0.0  0.81451    Zn
N       0.5056      0.0   0.3013     N
C        0.559    0.071   0.6744     C
C        0.559    0.929   0.6744     C
H       0.5592      0.5   0.9456     H
C       0.5622    0.072   0.5967     C
C       0.5622    0.928   0.5967     C
H       0.5674      0.5   0.8586     H
C        0.573      0.0   0.4339     C
O       0.5743   0.1752   0.8445     O
O       0.5743   0.8248   0.8445     O
C       0.5744      0.0   0.3565     C
O       0.5759   0.1686   0.9709     O
O       0.5759   0.8314   0.9709     O
O       0.5778      0.0    0.117     O
C       0.5983    0.223    0.914     C
C       0.5983    0.777    0.914     C
C       0.5997      0.5   0.9121     C
H       0.6247      0.0   0.4707     H
H       0.6272      0.0   0.3429     H
C       0.6543      0.0    0.152     C
C       0.6552   0.3579   0.9273     C
C       0.6552   0.6421   0.9273     C
O       0.6731      0.0   0.2227     O
H       0.6857   0.3585   0.9821     H
H       0.6857   0.6415   0.9821     H
H       0.6926   0.3585   0.8228     H
H       0.6926   0.6415   0.8228     H
H       0.6945      0.0   0.0506     H
C       0.7215   0.3602   0.8773     C
C       0.7215   0.6398   0.8773     C
C       0.7226      0.0    0.106     C
H       0.7428   0.2287    0.112     H
H       0.7428   0.7713    0.112     H
H       0.7572   0.2713    0.888     H
H       0.7572   0.7287    0.888     H
C       0.7774      0.5    0.894     C
C       0.7785   0.1398   0.1227     C
C       0.7785   0.8602   0.1227     C
H       0.8055      0.5   0.9494     H
H       0.8074   0.1415   0.1772     H
H       0.8074   0.8585   0.1772     H
H       0.8143   0.1415   0.0179     H
H       0.8143   0.8585   0.0179     H
O       0.8269      0.5   0.7773     O
C       0.8448   0.1421   0.0727     C
C       0.8448   0.8579   0.0727     C
C       0.8457      0.5    0.848     C
H       0.8728      0.5   0.6571     H
H       0.8753      0.5   0.5293     H
C       0.9003      0.0   0.0879     C
C       0.9017    0.277    0.086     C
C       0.9017    0.723    0.086     C
O       0.9222      0.5    0.883     O
O       0.9241   0.3314   0.0291     O
O       0.9241   0.6686   0.0291     O
C       0.9256      0.5   0.6435     C
O       0.9257   0.3248   0.1555     O
O       0.9257   0.6752   0.1555     O
C        0.927      0.5   0.5661     C
H       0.9326      0.0   0.1414     H
C       0.9378    0.428   0.4033     C
C       0.9378    0.572   0.4033     C
H       0.9408      0.0   0.0544     H
C        0.941    0.429   0.3256     C
C        0.941    0.571   0.3256     C
N       0.9944      0.5   0.6987     N
Zn     0.99776      0.5  0.18549    Zn
C       0.9994      0.5   0.5422     C
