data_I
_chemical_name_common  '/home/zhangsd/repos/MofS-CGCNN/ML/data/WS24/clean_cifs/GORLIK'
_cell_length_a 15.84900
_cell_length_b 18.51603
_cell_length_c 18.51603
_cell_angle_alpha 65.55375
_cell_angle_beta  74.65355
_cell_angle_gamma 74.65355
_space_group_name_H-M_alt      'P 1'


loop_
_space_group_symop_operation_xyz
  'x, y, z' 

loop_
_atom_site_label
_atom_site_fract_x
_atom_site_fract_y
_atom_site_fract_z
_atom_site_type_symbol
Cd         0.0      0.0      0.5    Cd
H       0.0027   0.5917   0.3303     H
O       0.0048   0.0796   0.2606     O
C       0.0098   0.9389   0.3085     C
C       0.0152    0.797   0.3572     C
C       0.0161   0.4124    0.713     C
H       0.0171   0.5451   0.8825     H
C       0.0177   0.3442    0.182     C
C       0.0267   0.0105   0.3139     C
H       0.0267   0.4661   0.6965     H
C       0.0291   0.1947   0.6991     C
C       0.0302   0.4125   0.1313     C
H       0.0335   0.7459   0.3937     H
C       0.0336   0.8639   0.3611     C
C        0.034   0.0539   0.7511     C
H       0.0414   0.6606   0.7956     H
H       0.0416   0.2488   0.8072     H
Cd     0.04346  0.15798   0.3094    Cd
O       0.0465    0.264   0.6962     O
H       0.0508   0.0032    0.789     H
C       0.0527   0.1203   0.7545     C
O       0.0534   0.6073   0.2149     O
H       0.0634   0.8571   0.4011     H
H       0.0647   0.8192   0.8678     H
O       0.0655   0.0022   0.3692     O
O       0.0686   0.8762   0.5768     O
N       0.0758    0.279   0.2078     N
H       0.0805   0.3387   0.8523     H
H       0.0815   0.1146   0.7948     H
C       0.0836   0.2628   0.7578     C
C       0.0989   0.3506   0.7336     C
O       0.1051   0.7609   0.6681     O
O       0.1074   0.0491   0.5045     O
H       0.1089   0.4647   0.3223     H
O       0.1184   0.1578   0.3946     O
H       0.1221   0.7507   0.9831     H
C       0.1229    0.814   0.6008     C
C       0.1239   0.4233   0.0941     C
C       0.1249   0.3547   0.8049     C
C       0.1261   0.8053   0.8649     C
C       0.1268   0.5548   0.2124     C
O       0.1308   0.4364   0.7826     O
C       0.1367   0.1139   0.4589     C
H       0.1379   0.2245   0.7651     H
H       0.1391   0.4729   0.0589     H
C       0.1496   0.4805   0.2747     C
H       0.1569   0.8576   0.7448     H
C       0.1584   0.2855   0.1723     C
C       0.1596   0.7632   0.9332     C
H       0.1628   0.3581   0.6189     H
H       0.1675   0.5715   0.7339     H
C       0.1718   0.3723   0.6603     C
H       0.1732   0.4289   0.6389     H
H        0.176   0.6211   0.0967     H
C       0.1793    0.828   0.7924     C
H       0.1796   0.0617   0.6033     H
H       0.1807   0.3199   0.8157     H
C       0.1849   0.3558   0.1152     C
C       0.1884   0.4566   0.8114     C
C        0.189   0.5733   0.1395     C
N       0.1935   0.1421   0.2399     N
H       0.1963   0.9183   0.4623     H
C       0.1977   0.5362   0.7756     C
C       0.2018   0.1379   0.4869     C
C       0.2101   0.8075   0.5467     C
C       0.2121   0.1016   0.5674     C
H       0.2184   0.3539   0.9033     H
C       0.2269   0.2067   0.1965     C
H       0.2278   0.0249   0.2935     H
C       0.2297   0.4062   0.8754     C
C       0.2313   0.4305   0.2667     C
C       0.2347   0.8689   0.4759     C
H       0.2413   0.2214   0.3824     H
H       0.2444   0.3564   0.0914     H
H       0.2467   0.3832   0.3092     H
C       0.2471   0.1976   0.4364     C
C       0.2495   0.7389   0.9281     C
O         0.25   0.3165   0.6835     O
C       0.2505   0.0719   0.2611     C
C       0.2529   0.5636   0.8024     C
H       0.2533   0.6908   0.6168     H
H       0.2556   0.9086   0.6436     H
H       0.2587   0.6176   0.7786     H
C       0.2653   0.5241   0.1311     C
C       0.2687   0.7333   0.5695     C
C       0.2703   0.1246   0.5938     C
H       0.2722   0.7065   0.9751     H
C       0.2731   0.8035   0.7933     C
H       0.2816   0.0967   0.6461     H
C       0.2879   0.4326   0.8984     C
C       0.2899   0.4533   0.1925     C
C       0.2982   0.5131   0.8621     C
C       0.3023   0.2244   0.4638     C
H       0.3037   0.5377   0.0817     H
N       0.3065   0.7601   0.8579     N
C        0.311   0.8605   0.4267     C
C       0.3116   0.1886   0.5434     C
C       0.3151   0.8848   0.6442     C
H       0.3193   0.1843   0.6801     H
H       0.3204   0.3967   0.9383     H
C       0.3207   0.2076    0.172     C
H        0.324   0.9033   0.3789     H
H       0.3268   0.3611   0.5711     H
C       0.3282   0.3397   0.6277     C
H       0.3325   0.2661   0.4285     H
H       0.3372   0.3811   0.6419     H
C       0.3404   0.0668   0.2368     C
C       0.3416   0.8277   0.7145     C
H       0.3431   0.2552   0.1424     H
C       0.3504   0.7253   0.5195     C
H       0.3609   0.9411   0.5271     H
H       0.3621   0.2349   0.7755     H
C       0.3633   0.5411   0.8861     C
O       0.3692   0.2174   0.5636     O
C       0.3732   0.7876   0.4452     C
C       0.3739   0.1351   0.1947     C
C       0.3751   0.1951   0.6453     C
C       0.3761   0.9059   0.5767     C
C       0.3771   0.3992    0.186     C
H       0.3779   0.0169   0.2493     H
O       0.3816   0.6054   0.8422     O
H       0.3911   0.6777   0.5353     H
O       0.3926   0.4955   0.9509     O
O       0.3949   0.3319   0.2391     O
C       0.4011   0.2664   0.6494     C
C       0.4164   0.2422   0.7372     C
H       0.4185   0.2052   0.8854     H
H       0.4195   0.1477   0.6613     H
N       0.4242   0.7922    0.721     N
O       0.4314   0.4232   0.1238     O
O       0.4345   0.6308   0.9978     O
H       0.4353   0.1322   0.1808     H
H       0.4366   0.5989   0.1429     H
O       0.4466   0.7851   0.3927     O
C       0.4473   0.2455   0.8797     C
H       0.4492    0.211   0.9968     H
O       0.4535   0.3038    0.736     O
Cd     0.45654   0.6906  0.84202    Cd
H       0.4584   0.1928   0.7512     H
H       0.4586   0.2044   0.3394     H
C        0.466   0.2489   0.9461     C
C       0.4664   0.6389   0.1361     C
H       0.4665   0.6063   0.2541     H
C       0.4698   0.8687   0.5875     C
C       0.4709   0.3009   0.8053     C
H       0.4733   0.3035   0.5339     H
C       0.4733   0.6861   0.9895     C
C       0.4823    0.818   0.6558     C
H       0.4829   0.1175   0.4549     H
C       0.4839    0.287   0.5876     C
C       0.4848   0.6428    0.203     C
C       0.4902   0.6915   0.0611     C
O       0.4952   0.7394   0.9204     O
H       0.4973   0.6697   0.4083     H
Cd         0.5      0.5      0.0    Cd
H       0.5027   0.3303   0.5917     H
O       0.5048   0.2606   0.0796     O
C       0.5098   0.3085   0.9389     C
C       0.5152   0.3572    0.797     C
C       0.5161    0.713   0.4124     C
H       0.5171   0.8825   0.5451     H
C       0.5177    0.182   0.3442     C
C       0.5267   0.3139   0.0105     C
H       0.5267   0.6965   0.4661     H
C       0.5291   0.6991   0.1947     C
C       0.5302   0.1313   0.4125     C
H       0.5335   0.3937   0.7459     H
C       0.5336   0.3611   0.8639     C
C        0.534   0.7511   0.0539     C
H       0.5414   0.7956   0.6606     H
H       0.5416   0.8072   0.2488     H
Cd     0.54346   0.3094  0.15798    Cd
O       0.5465   0.6962    0.264     O
H       0.5508    0.789   0.0032     H
C       0.5527   0.7545   0.1203     C
O       0.5534   0.2149   0.6073     O
H       0.5634   0.4011   0.8571     H
H       0.5647   0.8678   0.8192     H
O       0.5655   0.3692   0.0022     O
O       0.5686   0.5768   0.8762     O
N       0.5758   0.2078    0.279     N
H       0.5805   0.8523   0.3387     H
H       0.5815   0.7948   0.1146     H
C       0.5836   0.7578   0.2628     C
C       0.5989   0.7336   0.3506     C
O       0.6051   0.6681   0.7609     O
O       0.6074   0.5045   0.0491     O
H       0.6089   0.3223   0.4647     H
O       0.6184   0.3946   0.1578     O
H       0.6221   0.9831   0.7507     H
C       0.6229   0.6008    0.814     C
C       0.6239   0.0941   0.4233     C
C       0.6249   0.8049   0.3547     C
C       0.6261   0.8649   0.8053     C
C       0.6268   0.2124   0.5548     C
O       0.6308   0.7826   0.4364     O
C       0.6367   0.4589   0.1139     C
H       0.6379   0.7651   0.2245     H
H       0.6391   0.0589   0.4729     H
C       0.6496   0.2747   0.4805     C
H       0.6569   0.7448   0.8576     H
C       0.6584   0.1723   0.2855     C
C       0.6596   0.9332   0.7632     C
H       0.6628   0.6189   0.3581     H
H       0.6675   0.7339   0.5715     H
C       0.6718   0.6603   0.3723     C
H       0.6732   0.6389   0.4289     H
H        0.676   0.0967   0.6211     H
C       0.6793   0.7924    0.828     C
H       0.6796   0.6033   0.0617     H
H       0.6807   0.8157   0.3199     H
C       0.6849   0.1152   0.3558     C
C       0.6884   0.8114   0.4566     C
C        0.689   0.1395   0.5733     C
N       0.6935   0.2399   0.1421     N
H       0.6963   0.4623   0.9183     H
C       0.6977   0.7756   0.5362     C
C       0.7018   0.4869   0.1379     C
C       0.7101   0.5467   0.8075     C
C       0.7121   0.5674   0.1016     C
H       0.7184   0.9033   0.3539     H
C       0.7269   0.1965   0.2067     C
H       0.7278   0.2935   0.0249     H
C       0.7297   0.8754   0.4062     C
C       0.7313   0.2667   0.4305     C
C       0.7347   0.4759   0.8689     C
H       0.7413   0.3824   0.2214     H
H       0.7444   0.0914   0.3564     H
H       0.7467   0.3092   0.3832     H
C       0.7471   0.4364   0.1976     C
C       0.7495   0.9281   0.7389     C
O         0.75   0.6835   0.3165     O
C       0.7505   0.2611   0.0719     C
C       0.7529   0.8024   0.5636     C
H       0.7533   0.6168   0.6908     H
H       0.7556   0.6436   0.9086     H
H       0.7587   0.7786   0.6176     H
C       0.7653   0.1311   0.5241     C
C       0.7687   0.5695   0.7333     C
C       0.7703   0.5938   0.1246     C
H       0.7722   0.9751   0.7065     H
C       0.7731   0.7933   0.8035     C
H       0.7816   0.6461   0.0967     H
C       0.7879   0.8984   0.4326     C
C       0.7899   0.1925   0.4533     C
C       0.7982   0.8621   0.5131     C
C       0.8023   0.4638   0.2244     C
H       0.8037   0.0817   0.5377     H
N       0.8065   0.8579   0.7601     N
C        0.811   0.4267   0.8605     C
C       0.8116   0.5434   0.1886     C
C       0.8151   0.6442   0.8848     C
H       0.8193   0.6801   0.1843     H
H       0.8204   0.9383   0.3967     H
C       0.8207    0.172   0.2076     C
H        0.824   0.3789   0.9033     H
H       0.8268   0.5711   0.3611     H
C       0.8282   0.6277   0.3397     C
H       0.8325   0.4285   0.2661     H
H       0.8372   0.6419   0.3811     H
C       0.8404   0.2368   0.0668     C
C       0.8416   0.7145   0.8277     C
H       0.8431   0.1424   0.2552     H
C       0.8504   0.5195   0.7253     C
H       0.8609   0.5271   0.9411     H
H       0.8621   0.7755   0.2349     H
C       0.8633   0.8861   0.5411     C
O       0.8692   0.5636   0.2174     O
C       0.8732   0.4452   0.7876     C
C       0.8739   0.1947   0.1351     C
C       0.8751   0.6453   0.1951     C
C       0.8761   0.5767   0.9059     C
C       0.8771    0.186   0.3992     C
H       0.8779   0.2493   0.0169     H
O       0.8816   0.8422   0.6054     O
H       0.8911   0.5353   0.6777     H
O       0.8926   0.9509   0.4955     O
O       0.8949   0.2391   0.3319     O
C       0.9011   0.6494   0.2664     C
C       0.9164   0.7372   0.2422     C
H       0.9185   0.8854   0.2052     H
H       0.9195   0.6613   0.1477     H
N       0.9242    0.721   0.7922     N
O       0.9314   0.1238   0.4232     O
O       0.9345   0.9978   0.6308     O
H       0.9353   0.1808   0.1322     H
H       0.9366   0.1429   0.5989     H
O       0.9466   0.3927   0.7851     O
C       0.9473   0.8797   0.2455     C
H       0.9492   0.9968    0.211     H
O       0.9535    0.736   0.3038     O
Cd     0.95654  0.84202   0.6906    Cd
H       0.9584   0.7512   0.1928     H
H       0.9586   0.3394   0.2044     H
C        0.966   0.9461   0.2489     C
C       0.9664   0.1361   0.6389     C
H       0.9665   0.2541   0.6063     H
C       0.9698   0.5875   0.8687     C
C       0.9709   0.8053   0.3009     C
H       0.9733   0.5339   0.3035     H
C       0.9733   0.9895   0.6861     C
C       0.9823   0.6558    0.818     C
H       0.9829   0.4549   0.1175     H
C       0.9839   0.5876    0.287     C
C       0.9848    0.203   0.6428     C
C       0.9902   0.0611   0.6915     C
O       0.9952   0.9204   0.7394     O
H       0.9973   0.4083   0.6697     H
