data_I
_chemical_name_common  '/home/zhangsd/repos/MofS-CGCNN/ML/data/WS24/clean_cifs/HACDUN'
_cell_length_a 17.42733
_cell_length_b 17.42733
_cell_length_c 17.42733
_cell_angle_alpha 65.03977
_cell_angle_beta  65.03977
_cell_angle_gamma 65.03977
_space_group_name_H-M_alt      'P 1'


loop_
_space_group_symop_operation_xyz
  'x, y, z' 

loop_
_atom_site_label
_atom_site_fract_x
_atom_site_fract_y
_atom_site_fract_z
_atom_site_type_symbol
O      0.01683  0.60903  0.86863     O
O      0.01683  0.86863  0.60903     O
H       0.0354  0.74105  0.74105     H
H       0.0368   0.2155   0.5645     H
H       0.0368   0.5645   0.2155     H
H       0.0427   0.3242   0.5786     H
H       0.0427   0.5786   0.3242     H
H       0.0474   0.2737   0.4714     H
H       0.0474   0.4714   0.2737     H
O      0.04744  0.42714  0.89854     O
O      0.04744  0.89854  0.42714     O
Zn     0.05584  0.05584  0.47615    Zn
Zn     0.05584  0.47615  0.05584    Zn
O       0.0657   0.2989   0.7228     O
O       0.0657   0.7228   0.2989     O
C      0.07428  0.61958  0.88598     C
C      0.07428  0.88598  0.61958     C
C       0.0778   0.2659   0.5757     C
C       0.0778   0.5757   0.2659     C
C      0.07944  0.75119  0.75119     C
C       0.0806   0.2359    0.512     C
C       0.0806    0.512   0.2359     C
H       0.0873    0.211   0.6718     H
H       0.0873   0.6718    0.211     H
C        0.095   0.1805   0.5674     C
C        0.095   0.5674   0.1805     C
O      0.10146  0.57286  0.95256     O
O      0.10146  0.95256  0.57286     O
H       0.1087   0.3298    0.807     H
H       0.1087    0.807   0.3298     H
C       0.1112   0.6938   0.8232     C
C       0.1112   0.8232   0.6938     C
C      0.11402  0.38042  0.92572     C
C      0.11402  0.92572  0.38042     C
C        0.125   0.1777   0.6311     C
C        0.125   0.6311   0.1777     C
O       0.1277   0.3347   0.6547     O
O       0.1277   0.6547   0.3347     O
O      0.13034  0.13034  0.44629     O
O      0.13034  0.44629  0.13034     O
O      0.13137  0.39097  0.98317     O
O      0.13137  0.98317  0.39097     O
N      0.13185  0.15055  0.50785     N
N      0.13185  0.50785  0.15055     N
C       0.1382    0.254   0.6865     C
C       0.1382   0.6865    0.254     C
C      0.15923  0.29193  0.82683     C
C      0.15923  0.82683  0.29193     C
H       0.1594   0.2436   0.7066     H
H       0.1594   0.7066   0.2436     H
C      0.17317  0.70807  0.84077     C
C      0.17317  0.84077  0.70807     C
C       0.1768   0.3062   0.8888     C
C       0.1768   0.8888   0.3062     C
C       0.1777    0.125   0.6311     C
C       0.1777   0.6311    0.125     C
C       0.1805    0.095   0.5674     C
C       0.1805   0.5674    0.095     C
H        0.193   0.6702   0.8913     H
H        0.193   0.8913   0.6702     H
N      0.20487  0.20487  0.72542     N
N      0.20487  0.72542  0.20487     N
C       0.2077  0.78135  0.78135     C
H        0.211   0.0873   0.6718     H
H        0.211   0.6718   0.0873     H
H       0.2155   0.0368   0.5645     H
H       0.2155   0.5645   0.0368     H
C      0.21865  0.21865   0.7923     C
C      0.21865   0.7923  0.21865     C
C       0.2359   0.0806    0.512     C
C       0.2359    0.512   0.0806     C
H       0.2436   0.1594   0.7066     H
H       0.2436   0.7066   0.1594     H
C      0.24881  0.24881  0.92056     C
C      0.24881  0.92056  0.24881     C
C        0.254   0.1382   0.6865     C
C        0.254   0.6865   0.1382     C
H      0.25895  0.25895   0.9646     H
H      0.25895   0.9646  0.25895     H
C       0.2659   0.0778   0.5757     C
C       0.2659   0.5757   0.0778     C
H       0.2737   0.0474   0.4714     H
H       0.2737   0.4714   0.0474     H
N      0.27458  0.79513  0.79513     N
O       0.2772   0.7011   0.9343     O
O       0.2772   0.9343   0.7011     O
C      0.29193  0.15923  0.82683     C
C      0.29193  0.82683  0.15923     C
H       0.2934   0.7564   0.8406     H
H       0.2934   0.8406   0.7564     H
O       0.2989   0.0657   0.7228     O
O       0.2989   0.7228   0.0657     O
C       0.3062   0.1768   0.8888     C
C       0.3062   0.8888   0.1768     C
C       0.3135    0.746   0.8618     C
C       0.3135   0.8618    0.746     C
H       0.3242   0.0427   0.5786     H
H       0.3242   0.5786   0.0427     H
H       0.3282    0.789   0.9127     H
H       0.3282   0.9127    0.789     H
H       0.3298   0.1087    0.807     H
H       0.3298    0.807   0.1087     H
O       0.3347   0.1277   0.6547     O
O       0.3347   0.6547   0.1277     O
O       0.3453   0.6653   0.8723     O
O       0.3453   0.8723   0.6653     O
C       0.3647   0.7896   0.8735     C
C       0.3647   0.8735   0.7896     C
C      0.38042  0.11402  0.92572     C
C      0.38042  0.92572  0.11402     C
O      0.39097  0.13137  0.98317     O
O      0.39097  0.98317  0.13137     O
H       0.4214   0.6758   0.9573     H
H       0.4214   0.9573   0.6758     H
C       0.4243   0.7341   0.9222     C
C       0.4243   0.9222   0.7341     C
O      0.42714  0.04744  0.89854     O
O      0.42714  0.89854  0.04744     O
C       0.4326   0.8195    0.905     C
C       0.4326    0.905   0.8195     C
H       0.4355   0.7845   0.9632     H
H       0.4355   0.9632   0.7845     H
O      0.44629  0.13034  0.13034     O
H       0.4714   0.0474   0.2737     H
H       0.4714   0.2737   0.0474     H
Zn     0.47615  0.05584  0.05584    Zn
C        0.488   0.7641   0.9194     C
C        0.488   0.9194   0.7641     C
N      0.49215  0.84945  0.86815     N
N      0.50785  0.13185  0.15055     N
C        0.512   0.0806   0.2359     C
C        0.512   0.2359   0.0806     C
Zn     0.52385  0.94416  0.94416    Zn
H       0.5286   0.7263   0.9526     H
H       0.5286   0.9526   0.7263     H
O      0.55371  0.86966  0.86966     O
H       0.5645   0.0368   0.2155     H
H       0.5645   0.2155   0.0368     H
C       0.5674    0.095   0.1805     C
C       0.5674   0.1805    0.095     C
O      0.57286  0.10146  0.95256     O
O      0.57286  0.95256  0.10146     O
C       0.5757   0.0778   0.2659     C
C       0.5757   0.2659   0.0778     C
H       0.5786   0.0427   0.3242     H
H       0.5786   0.3242   0.0427     H
O      0.60903  0.01683  0.86863     O
O      0.60903  0.86863  0.01683     O
C      0.61958  0.07428  0.88598     C
C      0.61958  0.88598  0.07428     C
C       0.6311    0.125   0.1777     C
C       0.6311   0.1777    0.125     C
O       0.6547   0.1277   0.3347     O
O       0.6547   0.3347   0.1277     O
O       0.6653   0.3453   0.8723     O
O       0.6653   0.8723   0.3453     O
H       0.6702    0.193   0.8913     H
H       0.6702   0.8913    0.193     H
H       0.6718   0.0873    0.211     H
H       0.6718    0.211   0.0873     H
H       0.6758   0.4214   0.9573     H
H       0.6758   0.9573   0.4214     H
C       0.6865   0.1382    0.254     C
C       0.6865    0.254   0.1382     C
C       0.6938   0.1112   0.8232     C
C       0.6938   0.8232   0.1112     C
O       0.7011   0.2772   0.9343     O
O       0.7011   0.9343   0.2772     O
H       0.7066   0.1594   0.2436     H
H       0.7066   0.2436   0.1594     H
C      0.70807  0.17317  0.84077     C
C      0.70807  0.84077  0.17317     C
O       0.7228   0.0657   0.2989     O
O       0.7228   0.2989   0.0657     O
N      0.72542  0.20487  0.20487     N
H       0.7263   0.5286   0.9526     H
H       0.7263   0.9526   0.5286     H
C       0.7341   0.4243   0.9222     C
C       0.7341   0.9222   0.4243     C
H      0.74105   0.0354  0.74105     H
H      0.74105  0.74105   0.0354     H
C        0.746   0.3135   0.8618     C
C        0.746   0.8618   0.3135     C
C      0.75119  0.07944  0.75119     C
C      0.75119  0.75119  0.07944     C
H       0.7564   0.2934   0.8406     H
H       0.7564   0.8406   0.2934     H
C       0.7641    0.488   0.9194     C
C       0.7641   0.9194    0.488     C
C      0.78135   0.2077  0.78135     C
C      0.78135  0.78135   0.2077     C
H       0.7845   0.4355   0.9632     H
H       0.7845   0.9632   0.4355     H
H        0.789   0.3282   0.9127     H
H        0.789   0.9127   0.3282     H
C       0.7896   0.3647   0.8735     C
C       0.7896   0.8735   0.3647     C
C       0.7923  0.21865  0.21865     C
N      0.79513  0.27458  0.79513     N
N      0.79513  0.79513  0.27458     N
H        0.807   0.1087   0.3298     H
H        0.807   0.3298   0.1087     H
C       0.8195   0.4326    0.905     C
C       0.8195    0.905   0.4326     C
C       0.8232   0.1112   0.6938     C
C       0.8232   0.6938   0.1112     C
C      0.82683  0.15923  0.29193     C
C      0.82683  0.29193  0.15923     C
H       0.8406   0.2934   0.7564     H
H       0.8406   0.7564   0.2934     H
C      0.84077  0.17317  0.70807     C
C      0.84077  0.70807  0.17317     C
N      0.84945  0.49215  0.86815     N
N      0.84945  0.86815  0.49215     N
C       0.8618   0.3135    0.746     C
C       0.8618    0.746   0.3135     C
O      0.86863  0.01683  0.60903     O
O      0.86863  0.60903  0.01683     O
O      0.86966  0.55371  0.86966     O
O      0.86966  0.86966  0.55371     O
O       0.8723   0.3453   0.6653     O
O       0.8723   0.6653   0.3453     O
C       0.8735   0.3647   0.7896     C
C       0.8735   0.7896   0.3647     C
C      0.88598  0.07428  0.61958     C
C      0.88598  0.61958  0.07428     C
C       0.8888   0.1768   0.3062     C
C       0.8888   0.3062   0.1768     C
H       0.8913    0.193   0.6702     H
H       0.8913   0.6702    0.193     H
O      0.89854  0.04744  0.42714     O
O      0.89854  0.42714  0.04744     O
C        0.905   0.4326   0.8195     C
C        0.905   0.8195   0.4326     C
H       0.9127   0.3282    0.789     H
H       0.9127    0.789   0.3282     H
C       0.9194    0.488   0.7641     C
C       0.9194   0.7641    0.488     C
C      0.92056  0.24881  0.24881     C
C       0.9222   0.4243   0.7341     C
C       0.9222   0.7341   0.4243     C
C      0.92572  0.11402  0.38042     C
C      0.92572  0.38042  0.11402     C
O       0.9343   0.2772   0.7011     O
O       0.9343   0.7011   0.2772     O
Zn     0.94416  0.52385  0.94416    Zn
Zn     0.94416  0.94416  0.52385    Zn
O      0.95256  0.10146  0.57286     O
O      0.95256  0.57286  0.10146     O
H       0.9526   0.5286   0.7263     H
H       0.9526   0.7263   0.5286     H
H       0.9573   0.4214   0.6758     H
H       0.9573   0.6758   0.4214     H
H       0.9632   0.4355   0.7845     H
H       0.9632   0.7845   0.4355     H
H       0.9646  0.25895  0.25895     H
O      0.98317  0.13137  0.39097     O
O      0.98317  0.39097  0.13137     O
