data_I
_chemical_name_common  '/home/zhangsd/repos/MofS-CGCNN/ML/data/WS24/clean_cifs/HACREL'
_cell_length_a 19.34110
_cell_length_b 19.34110
_cell_length_c 37.85170
_cell_angle_alpha 90.00000
_cell_angle_beta  90.00000
_cell_angle_gamma 120.00000
_space_group_name_H-M_alt      'P 1'


loop_
_space_group_symop_operation_xyz
  'x, y, z' 

loop_
_atom_site_label
_atom_site_fract_x
_atom_site_fract_y
_atom_site_fract_z
_atom_site_type_symbol
N      0.00103  0.50051  0.71599     N
H      0.00463  0.26066  0.68707     H
H      0.00463  0.74396  0.68707     H
H      0.00697  0.46314  0.29283     H
H      0.00697  0.54384  0.29283     H
H      0.01413  0.24276  0.74707     H
H      0.01413  0.77136  0.74707     H
H      0.01857  0.43414  0.34073     H
H      0.01857  0.58444  0.34073     H
O      0.02093  0.28456  0.62557     O
O      0.02093  0.73636  0.62557     O
C      0.02327  0.46234  0.30283     C
C      0.02327  0.56094  0.30283     C
C       0.0237   0.2342  0.85185     C
C       0.0237   0.7895  0.85185     C
C      0.03297  0.47794  0.35537     C
C      0.03297  0.55504  0.35537     C
O      0.03551  0.21751  0.82129     O
O      0.03551    0.818  0.82129     O
H      0.03647  0.42474  0.40073     H
H      0.03647  0.61174  0.40073     H
H       0.0398   0.2875   0.0886     H
H       0.0398   0.7523   0.0886     H
C      0.04023  0.52011  0.74995     C
O      0.04163  0.44766  0.53697     O
O      0.04163  0.59396  0.53697     O
C      0.04367  0.47224  0.39134     C
C      0.04367  0.57144  0.39134     C
H      0.04583  0.41896  0.75527     H
H      0.04583  0.62686  0.75527     H
Zn     0.04636  0.52318  0.46638    Zn
O      0.04877  0.40304  0.29223     O
O      0.04877  0.64574  0.29223     O
C      0.05223  0.26796  0.69647     C
C      0.05223  0.78426  0.69647     C
H      0.05493  0.29686  0.73407     H
H      0.05493  0.75806  0.73407     H
C       0.0565   0.2365  0.13163     C
C       0.0565     0.82  0.13163     C
C      0.05783  0.25716  0.73244     C
C      0.05783  0.80066  0.73244     C
C      0.05883  0.46706  0.76609     C
C      0.05883  0.59176  0.76609     C
N      0.06527  0.52754  0.41321     N
C      0.06537  0.45094  0.36313     C
C      0.06537  0.61444  0.36313     C
O       0.0697   0.3821   0.0411     O
O       0.0697   0.6876   0.0411     O
H      0.07267  0.41064  0.35373     H
H      0.07267  0.66204  0.35373     H
O       0.0727   0.2917   0.8703     O
O       0.0727    0.781   0.8703     O
C       0.0749   0.2745  0.09942     C
C       0.0749   0.8004  0.09942     C
H       0.0773    0.406   0.9796     H
H       0.0773   0.6713   0.9796     H
H      0.08223  0.31476  0.67407     H
H      0.08223  0.76746  0.67407     H
H      0.08563  0.37916  0.57807     H
H      0.08563  0.70646  0.57807     H
H       0.0914   0.3698   0.9326     H
H       0.0914   0.7216   0.9326     H
H       0.0967   0.1934   0.1703     H
H       0.0967   0.9033   0.1703     H
C      0.09683  0.48666   0.7983     C
C      0.09683  0.61016   0.7983     C
C      0.09913  0.45616  0.51852     C
C      0.09913  0.64296  0.51852     C
H       0.1008   0.3519   0.9926     H
H       0.1008   0.7489   0.9926     H
H       0.1047   0.4239   0.9196     H
H       0.1047   0.6808   0.9196     H
C      0.10573  0.31006  0.63617     C
C      0.10573  0.79566  0.63617     C
C        0.109    0.218   0.1483     C
C        0.109    0.891   0.1483     C
C      0.11163  0.30036  0.68871     C
C      0.11163  0.81126  0.68871     C
O      0.11433  0.37496  0.79637     O
O      0.11433  0.73936  0.79637     O
C      0.11533  0.55766  0.81497     C
O      0.11582  0.48466  0.48796     O
O      0.11582  0.63115  0.48796     O
C       0.1176   0.3987   0.9702     C
C       0.1176   0.7189   0.9702     C
H      0.12283  0.32636  0.62617     H
C      0.12283  0.43246  0.81482     C
C      0.12283  0.69036  0.81482     C
H      0.12283  0.79646  0.62617     H
N      0.12893  0.26806  0.74655     N
N      0.12893  0.86086  0.74655     N
C        0.129   0.3566   0.0305     C
C        0.129   0.7724   0.0305     C
H       0.1298   0.3403   0.0405     H
H       0.1298   0.7895   0.0405     H
C      0.13373  0.39216  0.56725     C
C      0.13373  0.74156  0.56725     C
C        0.134   0.4095  0.93423     C
C        0.134   0.7245  0.93423     C
H      0.13993  0.56996  0.83697     H
Zn     0.14349  0.28698  0.79972    Zn
Zn     0.14349  0.85651  0.79972    Zn
C       0.1446   0.3663  0.97796     C
C       0.1446   0.7783  0.97796     C
C      0.14655   0.2931  0.08328     C
C      0.14655  0.85345  0.08328     C
O      0.15133  0.44915  0.84538     O
O      0.15133  0.70217  0.84538     O
C      0.15333  0.43016  0.53504     C
C      0.15333  0.72316  0.53504     C
N      0.16615   0.3323  0.04932     N
N      0.16615  0.83385  0.04932     N
N      0.16718  0.33436  0.61735     N
N      0.16718  0.83281  0.61735     N
C      0.17183  0.28946   0.6746     C
C      0.17183  0.88236   0.6746     C
C         0.18   0.2365  0.13163     C
C         0.18   0.9435  0.13163     C
O        0.182  0.21751  0.82129     O
O        0.182  0.96449  0.82129     O
C      0.18678  0.37356  0.58339     C
C      0.18678  0.81321  0.58339     C
Zn     0.18985   0.3797  0.86695    Zn
Zn     0.18985  0.81016  0.86695    Zn
H       0.1934   0.0967   0.8297     H
N       0.1942   0.3986  0.92012     N
N       0.1942   0.7956  0.92012     N
C      0.19443  0.28966  0.72468     C
C      0.19443  0.90476  0.72468     C
C       0.1996   0.2745  0.09942     C
C       0.1996   0.9251  0.09942     C
H      0.20353  0.32636  0.62617     H
H      0.20353  0.87716  0.62617     H
C      0.20433  0.31006  0.63617     C
C      0.20433  0.89426  0.63617     C
C       0.2105   0.2342  0.85185     C
H       0.2105   0.3403   0.0405     H
H       0.2105   0.8702   0.0405     H
C       0.2105   0.9763  0.85185     C
C       0.2157   0.3772  0.99207     C
C       0.2157   0.8385  0.99207     C
C      0.21573  0.26796  0.69647     C
C      0.21573  0.94776  0.69647     C
O      0.21751  0.03551  0.17871     O
O      0.21751    0.182  0.17871     O
C        0.218    0.109   0.8517     C
O        0.219   0.2917   0.8703     O
O        0.219   0.9273   0.8703     O
C      0.22433  0.44866  0.51837     C
C      0.22433  0.77566  0.51837     C
C       0.2276   0.3566   0.0305     C
C       0.2276    0.871   0.0305     C
H      0.23253  0.31476  0.67407     H
H      0.23253  0.91776  0.67407     H
C       0.2342   0.0237  0.14815     C
C       0.2342   0.2105  0.14815     C
C       0.2365   0.0565  0.86837     C
C       0.2365     0.18  0.86837     C
H      0.23663  0.47326  0.49637     H
H      0.23663  0.76336  0.49637     H
C       0.2381    0.377  0.94199     C
C       0.2381   0.8611  0.94199     C
H      0.24193  0.29686  0.73407     H
H      0.24193  0.94506  0.73407     H
H      0.24277  0.01414  0.25293     H
H      0.24277  0.22864  0.25293     H
H       0.2477   0.2875   0.0886     H
H       0.2477   0.9602   0.0886     H
H       0.2511   0.3519   0.9926     H
H       0.2511   0.8992   0.9926     H
H      0.25603  0.26066  0.68707     H
H      0.25603  0.99536  0.68707     H
C      0.25717  0.05784  0.26756     C
C      0.25717  0.19934  0.26756     C
C      0.25843  0.39216  0.56725     C
C      0.25843  0.86626  0.56725     C
O      0.26063  0.37496  0.79637     O
O      0.26063  0.88566  0.79637     O
H      0.26067  0.00464  0.31293     H
H      0.26067  0.25604  0.31293     H
O      0.26363  0.28456  0.62557     O
O      0.26363  0.97906  0.62557     O
C      0.26797  0.05224  0.30353     C
C      0.26797  0.21574  0.30353     C
N      0.26807  0.12894  0.25345     N
C       0.2745   0.0749  0.90058     C
C       0.2745   0.1996  0.90058     C
C      0.27683  0.43016  0.53504     C
C      0.27683  0.84666  0.53504     C
H       0.2784   0.3698   0.9326     H
H       0.2784   0.9086   0.9326     H
C       0.2811   0.3987   0.9702     C
C       0.2811   0.8824   0.9702     C
O      0.28457  0.02094  0.37443     O
O      0.28457  0.26364  0.37443     O
Zn     0.28698  0.14349  0.20028    Zn
H       0.2875   0.0398   0.9114     H
H       0.2875   0.2477   0.9114     H
C      0.28947  0.11764   0.3254     C
C      0.28947  0.17184   0.3254     C
O       0.2917   0.0727   0.1297     O
O       0.2917    0.219   0.1297     O
C       0.2931  0.14655  0.91672     C
H      0.29353  0.37916  0.57807     H
H      0.29353  0.91436  0.57807     H
H      0.29687  0.05494  0.26593     H
H      0.29687  0.24194  0.26593     H
O      0.29782  0.44915  0.84538     O
O      0.29782  0.84866  0.84538     O
C      0.30963  0.43246  0.81482     C
C      0.30963  0.87716  0.81482     C
C      0.31007  0.10574  0.36383     C
C      0.31007  0.20434  0.36383     C
O       0.3124   0.3821   0.0411     O
O       0.3124   0.9303   0.0411     O
H      0.31477  0.08224  0.32593     H
H      0.31477  0.23254  0.32593     H
H      0.32637  0.12284  0.37383     H
H      0.32637  0.20354  0.37383     H
H       0.3287    0.406   0.9796     H
H       0.3287   0.9227   0.9796     H
N       0.3323  0.16615  0.95068     N
N      0.33437  0.16719  0.38265     N
H      0.33797  0.41064  0.35373     H
H      0.33797  0.92734  0.35373     H
H       0.3403   0.1298   0.9595     H
H       0.3403   0.2105   0.9595     H
H      0.34747  0.43804  0.41373     H
H      0.34747  0.90944  0.41373     H
H       0.3519   0.1008   0.0074     H
H       0.3519   0.2511   0.0074     H
O      0.35427  0.40304  0.29223     O
O      0.35427  0.95124  0.29223     O
C       0.3566    0.129   0.9695     C
C       0.3566   0.2276   0.9695     C
C      0.35703  0.45616  0.51852     C
C      0.35703  0.90086  0.51852     C
C       0.3663   0.1446  0.02204     C
C       0.3663   0.2217  0.02204     C
O      0.36884  0.48466  0.48796     O
O      0.36884  0.88417  0.48796     O
H       0.3698   0.0914   0.0674     H
H       0.3698   0.2784   0.0674     H
H      0.37313  0.41896  0.75527     H
H      0.37313  0.95416  0.75527     H
C      0.37357  0.18679  0.41661     C
O      0.37497  0.11434  0.20363     O
O      0.37497  0.26064  0.20363     O
C        0.377   0.1389  0.05801     C
C        0.377   0.2381  0.05801     C
H      0.37917  0.08564  0.42193     H
H      0.37917  0.29354  0.42193     H
Zn     0.37969  0.18984  0.13305    Zn
O       0.3821   0.0697   0.9589     O
O       0.3821   0.3124   0.9589     O
C      0.38557  0.45094  0.36313     C
C      0.38557  0.93464  0.36313     C
H      0.38827  0.42474  0.40073     H
H      0.38827  0.96354  0.40073     H
C      0.38983  0.48666   0.7983     C
C      0.38983  0.90316   0.7983     C
C      0.39117  0.46734   0.3991     C
C      0.39117  0.92384   0.3991     C
C      0.39217  0.13374  0.43275     C
C      0.39217  0.25844  0.43275     C
N       0.3986   0.1942  0.07988     N
C       0.3987   0.1176   0.0298     C
C       0.3987   0.2811   0.0298     C
O      0.40303  0.04876  0.70777     O
O      0.40303  0.35426  0.70777     O
H        0.406   0.0773   0.0204     H
H        0.406   0.3287   0.0204     H
O      0.40603  0.44766  0.53697     O
O      0.40603  0.95836  0.53697     O
C      0.40823  0.46706  0.76609     C
C      0.40823  0.94116  0.76609     C
H      0.41063  0.07266  0.64627     H
H      0.41063  0.33796  0.64627     H
H      0.41557  0.43414  0.34073     H
H      0.41557  0.98144  0.34073     H
H      0.41897  0.04584  0.24473     H
H      0.41897  0.37314  0.24473     H
H      0.42473  0.03646  0.59927     H
H      0.42473  0.38826  0.59927     H
H      0.43003  0.56996  0.83697     H
H      0.43003  0.86006  0.83697     H
C      0.43017  0.15334  0.46496     C
C      0.43017  0.27684  0.46496     C
C      0.43247  0.12284  0.18518     C
C      0.43247  0.30964  0.18518     C
H      0.43413  0.01856  0.65927     H
H      0.43413  0.41556  0.65927     H
H      0.43803  0.09056  0.58627     H
H      0.43803  0.34746  0.58627     H
C      0.43907  0.46234  0.30283     C
C      0.43907  0.97674  0.30283     C
C      0.44233  0.55766  0.81497     C
C      0.44233  0.88466  0.81497     C
C      0.44497  0.47794  0.35537     C
C      0.44497  0.96704  0.35537     C
O      0.44767  0.04164  0.46303     O
O      0.44767  0.40604  0.46303     O
C      0.44867  0.22434  0.48163     C
O      0.44916  0.15134  0.15462     O
O      0.44916  0.29783  0.15462     O
C      0.45093  0.06536  0.63687     C
C      0.45093  0.38556  0.63687     C
C      0.45617  0.09914  0.48148     C
C      0.45617  0.35704  0.48148     C
H      0.45617  0.46314  0.29283     H
H      0.45617  0.99304  0.29283     H
N      0.46227  0.52754  0.41321     N
N      0.46227  0.93474  0.41321     N
C      0.46233  0.02326  0.69717     C
C      0.46233  0.43906  0.69717     C
H      0.46313  0.00696  0.70717     H
H      0.46313  0.45616  0.70717     H
C      0.46707  0.05884  0.23391     C
C      0.46707  0.40824  0.23391     C
C      0.46733  0.07616   0.6009     C
C      0.46733  0.39116   0.6009     C
H      0.47327  0.23664  0.50363     H
Zn     0.47682  0.52318  0.46638    Zn
Zn     0.47682  0.95364  0.46638    Zn
C      0.47793  0.03296  0.64463     C
C      0.47793  0.44496  0.64463     C
C      0.47988  0.52011  0.74995     C
C      0.47988  0.95976  0.74995     C
O      0.48467  0.11583  0.51204     O
O      0.48467  0.36885  0.51204     O
C      0.48667  0.09684   0.2017     C
C      0.48667  0.38984   0.2017     C
N      0.49948  0.50051  0.71599     N
N      0.49948  0.99896  0.71599     N
N      0.50052  0.00104  0.28401     N
N      0.50052  0.49949  0.28401     N
C      0.50517  0.54904  0.34126     C
C      0.50517  0.95614  0.34126     C
C      0.51333  0.61016   0.7983     C
C      0.51333  0.90316   0.7983     C
O      0.51533  0.63115  0.48796     O
O      0.51533  0.88417  0.48796     O
C      0.52012  0.04024  0.25005     C
C      0.52012  0.47989  0.25005     C
Zn     0.52318  0.04636  0.53362    Zn
Zn     0.52318  0.47682  0.53362    Zn
H      0.52673  0.76336  0.49637     H
N      0.52753  0.06526  0.58679     N
N      0.52753  0.46226  0.58679     N
C      0.52777  0.57144  0.39134     C
C      0.52777  0.95634  0.39134     C
C      0.53293  0.59176  0.76609     C
C      0.53293  0.94116  0.76609     C
H      0.53687  0.54384  0.29283     H
H      0.53687  0.99304  0.29283     H
C      0.53767  0.56094  0.30283     C
C      0.53767  0.97674  0.30283     C
H      0.54383  0.00696  0.70717     H
H      0.54383  0.53686  0.70717     H
C      0.54383  0.64296  0.51852     C
C      0.54383  0.90086  0.51852     C
C      0.54903  0.04386  0.65874     C
C      0.54903  0.50516  0.65874     C
C      0.54907  0.61444  0.36313     C
C      0.54907  0.93464  0.36313     C
O      0.55084  0.70217  0.84538     O
O      0.55084  0.84866  0.84538     O
C      0.55133  0.77566  0.51837     C
O      0.55233  0.59396  0.53697     O
O      0.55233  0.95836  0.53697     O
C      0.55767  0.11534  0.18503     C
C      0.55767  0.44234  0.18503     C
C      0.56093  0.02326  0.69717     C
C      0.56093  0.53766  0.69717     C
H      0.56587  0.58444  0.34073     H
H      0.56587  0.98144  0.34073     H
C      0.56753  0.69036  0.81482     C
C      0.56753  0.87716  0.81482     C
C      0.56983  0.72316  0.53504     C
C      0.56983  0.84666  0.53504     C
H      0.56997  0.13994  0.16303     H
H      0.56997  0.43004  0.16303     H
C      0.57143  0.04366  0.60866     C
C      0.57143  0.52776  0.60866     C
H      0.57527  0.61174  0.40073     H
H      0.57527  0.96354  0.40073     H
H       0.5761   0.6808   0.9196     H
H       0.5761   0.8953   0.9196     H
H      0.58103  0.62686  0.75527     H
H      0.58103  0.95416  0.75527     H
H      0.58443  0.01856  0.65927     H
H      0.58443  0.56586  0.65927     H
H      0.58937  0.66204  0.35373     H
H      0.58937  0.92734  0.35373     H
C       0.5905   0.7245  0.93423     C
C       0.5905    0.866  0.93423     C
C      0.59177  0.05884  0.23391     C
C      0.59177  0.53294  0.23391     C
O      0.59397  0.04164  0.46303     O
O      0.59397  0.55234  0.46303     O
H        0.594   0.6713   0.9796     H
H        0.594   0.9227   0.9796     H
O      0.59697  0.64574  0.29223     O
O      0.59697  0.95124  0.29223     O
C       0.6013   0.7189   0.9702     C
C       0.6013   0.8824   0.9702     C
N       0.6014   0.7956  0.92012     N
C      0.60783  0.74156  0.56725     C
C      0.60783  0.86626  0.56725     C
C      0.61017  0.09684   0.2017     C
C      0.61017  0.51334   0.2017     C
H      0.61173  0.03646  0.59927     H
H      0.61173  0.57526  0.59927     H
C      0.61443  0.06536  0.63687     C
C      0.61443  0.54906  0.63687     C
O       0.6179   0.6876   0.0411     O
O       0.6179   0.9303   0.0411     O
Zn     0.62031  0.81016  0.86695    Zn
H      0.62083  0.70646  0.57807     H
H      0.62083  0.91436  0.57807     H
C       0.6228   0.7843  0.99207     C
C       0.6228   0.8385  0.99207     C
O      0.62503  0.73936  0.79637     O
O      0.62503  0.88566  0.79637     O
C      0.62643  0.81321  0.58339     C
H      0.62687  0.04584  0.24473     H
H      0.62687  0.58104  0.24473     H
H       0.6302   0.7216   0.9326     H
H       0.6302   0.9086   0.9326     H
O      0.63116  0.11583  0.51204     O
O      0.63116  0.51534  0.51204     O
C      0.64297  0.09914  0.48148     C
C      0.64297  0.54384  0.48148     C
C       0.6434   0.7724   0.0305     C
C       0.6434    0.871   0.0305     C
O      0.64573  0.04876  0.70777     O
O      0.64573  0.59696  0.70777     O
H       0.6481   0.7489   0.9926     H
H       0.6481   0.8992   0.9926     H
H       0.6597   0.7895   0.0405     H
H       0.6597   0.8702   0.0405     H
H      0.66203  0.07266  0.64627     H
H      0.66203  0.58936  0.64627     H
N      0.66563  0.83281  0.61735     N
N       0.6677  0.83385  0.04932     N
H       0.6713   0.0773   0.0204     H
H       0.6713    0.594   0.0204     H
H      0.67363  0.79646  0.62617     H
H      0.67363  0.87716  0.62617     H
H       0.6808   0.1047   0.0804     H
H       0.6808   0.5761   0.0804     H
H      0.68523  0.76746  0.67407     H
H      0.68523  0.91776  0.67407     H
O       0.6876   0.0697   0.9589     O
O       0.6876   0.6179   0.9589     O
C      0.68993  0.79566  0.63617     C
C      0.68993  0.89426  0.63617     C
C      0.69037  0.12284  0.18518     C
C      0.69037  0.56754  0.18518     C
C      0.69963  0.81126  0.68871     C
C      0.69963  0.88836  0.68871     C
O      0.70218  0.15134  0.15462     O
O      0.70218  0.55085  0.15462     O
H      0.70313  0.75806  0.73407     H
H      0.70313  0.94506  0.73407     H
H      0.70647  0.08564  0.42193     H
H      0.70647  0.62084  0.42193     H
C       0.7069  0.85345  0.08328     C
O       0.7083    0.781   0.8703     O
O       0.7083   0.9273   0.8703     O
C      0.71033  0.80556  0.72468     C
C      0.71033  0.90476  0.72468     C
H       0.7125   0.7523   0.0886     H
H       0.7125   0.9602   0.0886     H
Zn     0.71302  0.85651  0.79972    Zn
O      0.71543  0.73636  0.62557     O
O      0.71543  0.97906  0.62557     O
C       0.7189   0.1176   0.0298     C
C       0.7189   0.6013   0.0298     C
H       0.7216   0.0914   0.0674     H
H       0.7216   0.6302   0.0674     H
C      0.72317  0.15334  0.46496     C
C      0.72317  0.56984  0.46496     C
C       0.7245    0.134  0.06577     C
C       0.7245   0.5905  0.06577     C
C       0.7255   0.8004  0.09942     C
C       0.7255   0.9251  0.09942     C
N      0.73193  0.86086  0.74655     N
C      0.73203  0.78426  0.69647     C
C      0.73203  0.94776  0.69647     C
O      0.73637  0.02094  0.37443     O
O      0.73637  0.71544  0.37443     O
H      0.73933  0.74396  0.68707     H
H      0.73933  0.99536  0.68707     H
O      0.73937  0.11434  0.20363     O
O      0.73937  0.62504  0.20363     O
C      0.74157  0.13374  0.43275     C
C      0.74157  0.60784  0.43275     C
H      0.74397  0.00464  0.31293     H
H      0.74397  0.73934  0.31293     H
H       0.7489   0.1008   0.0074     H
H       0.7489   0.6481   0.0074     H
H       0.7523   0.0398   0.9114     H
H       0.7523   0.7125   0.9114     H
H      0.75807  0.05494  0.26593     H
H      0.75807  0.70314  0.26593     H
H      0.76337  0.23664  0.50363     H
H      0.76337  0.52674  0.50363     H
C       0.7635     0.82  0.13163     C
C       0.7635   0.9435  0.13163     C
C       0.7658   0.7895  0.85185     C
C       0.7658   0.9763  0.85185     C
H      0.76747  0.08224  0.32593     H
H      0.76747  0.68524  0.32593     H
H      0.77137  0.01414  0.25293     H
H      0.77137  0.75724  0.25293     H
C       0.7724    0.129   0.9695     C
C       0.7724   0.6434   0.9695     C
C      0.77567  0.22434  0.48163     C
C      0.77567  0.55134  0.48163     C
C       0.7783   0.1446  0.02204     C
C       0.7783   0.6337  0.02204     C
O        0.781   0.0727   0.1297     O
O        0.781   0.7083   0.1297     O
C        0.782    0.891   0.1483     C
O      0.78249    0.818  0.82129     O
O      0.78249  0.96449  0.82129     O
C      0.78427  0.05224  0.30353     C
C      0.78427  0.73204  0.30353     C
C       0.7895   0.0237  0.14815     C
H       0.7895   0.1298   0.9595     H
H       0.7895   0.6597   0.9595     H
C       0.7895   0.7658  0.14815     C
N       0.7956   0.1942  0.07988     N
N       0.7956   0.6014  0.07988     N
C      0.79567  0.10574  0.36383     C
C      0.79567  0.68994  0.36383     C
H      0.79647  0.12284  0.37383     H
H      0.79647  0.67364  0.37383     H
C       0.8004   0.0749  0.90058     C
C       0.8004   0.7255  0.90058     C
C      0.80067  0.05784  0.26756     C
C      0.80067  0.74284  0.26756     C
H       0.8066   0.9033   0.1703     H
Zn     0.81015  0.18984  0.13305    Zn
Zn     0.81015   0.6203  0.13305    Zn
C      0.81127  0.11164  0.31129     C
C      0.81127  0.69964  0.31129     C
C      0.81322  0.18679  0.41661     C
C      0.81322  0.62644  0.41661     C
O        0.818  0.03551  0.17871     O
O        0.818  0.78249  0.17871     O
C         0.82   0.0565  0.86837     C
C         0.82   0.7635  0.86837     C
N      0.83282  0.16719  0.38265     N
N      0.83282  0.66564  0.38265     N
N      0.83385  0.16615  0.95068     N
N      0.83385   0.6677  0.95068     N
C       0.8385   0.2157  0.00793     C
C       0.8385   0.6228  0.00793     C
C      0.84667  0.27684  0.46496     C
C      0.84667  0.56984  0.46496     C
O      0.84867  0.29783  0.15462     O
O      0.84867  0.55085  0.15462     O
C      0.85345  0.14655  0.91672     C
C      0.85345   0.7069  0.91672     C
Zn     0.85651  0.14349  0.20028    Zn
Zn     0.85651  0.71302  0.20028    Zn
H      0.86007  0.43004  0.16303     H
N      0.86087  0.12894  0.25345     N
N      0.86087  0.73194  0.25345     N
C       0.8611   0.2381  0.05801     C
C       0.8611    0.623  0.05801     C
C      0.86627  0.25844  0.43275     C
C      0.86627  0.60784  0.43275     C
H       0.8702   0.2105   0.9595     H
H       0.8702   0.6597   0.9595     H
C        0.871   0.2276   0.9695     C
C        0.871   0.6434   0.9695     C
H      0.87717  0.20354  0.37383     H
C      0.87717  0.30964  0.18518     C
C      0.87717  0.56754  0.18518     C
H      0.87717  0.67364  0.37383     H
C      0.88237  0.17184   0.3254     C
C      0.88237  0.71054   0.3254     C
C       0.8824   0.2811   0.0298     C
C       0.8824   0.6013   0.0298     C
O      0.88418  0.36885  0.51204     O
O      0.88418  0.51534  0.51204     O
C      0.88467  0.44234  0.18503     C
O      0.88567  0.26064  0.20363     O
O      0.88567  0.62504  0.20363     O
C        0.891    0.109   0.8517     C
C        0.891    0.782   0.8517     C
C      0.89427  0.20434  0.36383     C
C      0.89427  0.68994  0.36383     C
H       0.8992   0.2511   0.0074     H
H       0.8992   0.6481   0.0074     H
C      0.90087  0.35704  0.48148     C
C      0.90087  0.54384  0.48148     C
C      0.90317  0.38984   0.2017     C
C      0.90317  0.51334   0.2017     C
H       0.9033   0.0967   0.8297     H
H       0.9033   0.8066   0.8297     H
C      0.90477  0.19444  0.27532     C
C      0.90477  0.71034  0.27532     C
H       0.9086   0.2784   0.0674     H
H       0.9086   0.6302   0.0674     H
H      0.90943  0.34746  0.58627     H
H      0.90943  0.56196  0.58627     H
H      0.91437  0.29354  0.42193     H
H      0.91437  0.62084  0.42193     H
H      0.91777  0.23254  0.32593     H
H      0.91777  0.68524  0.32593     H
H       0.9227   0.3287   0.0204     H
H       0.9227    0.594   0.0204     H
C      0.92383  0.39116   0.6009     C
C      0.92383  0.53266   0.6009     C
C       0.9251   0.1996  0.90058     C
C       0.9251   0.7255  0.90058     C
O       0.9273    0.219   0.1297     O
O       0.9273   0.7083   0.1297     O
H      0.92733  0.33796  0.64627     H
H      0.92733  0.58936  0.64627     H
O       0.9303   0.3124   0.9589     O
O       0.9303   0.6179   0.9589     O
C      0.93463  0.38556  0.63687     C
C      0.93463  0.54906  0.63687     C
N      0.93473  0.46226  0.58679     N
C      0.94117  0.40824  0.23391     C
C      0.94117  0.53294  0.23391     C
C       0.9435     0.18  0.86837     C
C       0.9435   0.7635  0.86837     C
H      0.94507  0.24194  0.26593     H
H      0.94507  0.70314  0.26593     H
C      0.94777  0.21574  0.30353     C
C      0.94777  0.73204  0.30353     C
O      0.95123  0.35426  0.70777     O
O      0.95123  0.59696  0.70777     O
Zn     0.95364  0.47682  0.53362    Zn
H      0.95417  0.37314  0.24473     H
H      0.95417  0.58104  0.24473     H
C      0.95613  0.45096  0.65874     C
C      0.95613  0.50516  0.65874     C
O      0.95837  0.40604  0.46303     O
O      0.95837  0.55234  0.46303     O
C      0.95977  0.47989  0.25005     C
H       0.9602   0.2477   0.9114     H
H       0.9602   0.7125   0.9114     H
H      0.96353  0.38826  0.59927     H
H      0.96353  0.57526  0.59927     H
O      0.96449    0.182  0.17871     O
O      0.96449  0.78249  0.17871     O
C       0.9763   0.2105  0.14815     C
C       0.9763   0.7658  0.14815     C
C      0.97673  0.43906  0.69717     C
C      0.97673  0.53766  0.69717     C
O      0.97907  0.26364  0.37443     O
O      0.97907  0.71544  0.37443     O
H      0.98143  0.41556  0.65927     H
H      0.98143  0.56586  0.65927     H
H      0.99303  0.45616  0.70717     H
H      0.99303  0.53686  0.70717     H
H      0.99537  0.25604  0.31293     H
H      0.99537  0.73934  0.31293     H
N      0.99897  0.49949  0.28401     N
