data_I
_chemical_name_common  '/home/zhangsd/repos/MofS-CGCNN/ML/data/WS24/clean_cifs/HAJQUH'
_cell_length_a 13.74000
_cell_length_b 21.01000
_cell_length_c 31.38200
_cell_angle_alpha 90.00000
_cell_angle_beta  90.00000
_cell_angle_gamma 99.68100
_space_group_name_H-M_alt      'P 1'


loop_
_space_group_symop_operation_xyz
  'x, y, z' 

loop_
_atom_site_label
_atom_site_fract_x
_atom_site_fract_y
_atom_site_fract_z
_atom_site_type_symbol
C       0.0001   0.9173   0.5269     C
H       0.0005   0.7531    0.817     H
C       0.0026   0.1492   0.7904     C
H       0.0032   0.9222   0.9677     H
H       0.0047   0.8741   0.0659     H
C       0.0055    0.558   0.5468     C
C       0.0063   0.9345   0.6027     C
H       0.0081   0.7113   0.5381     H
H       0.0082   0.5781   0.1309     H
C       0.0094   0.3634   0.3205     C
H       0.0099   0.7458   0.7361     H
H       0.0121   0.4922   0.3674     H
C       0.0128   0.3809   0.8775     C
C       0.0132   0.2678   0.3597     C
C       0.0139   0.7039   0.6035     C
C       0.0146     0.09    0.724     C
C       0.0148   0.8632   0.1295     C
C        0.016   0.0114   0.6635     C
H       0.0173   0.7192   0.8614     H
C       0.0182   0.6819   0.0637     C
H       0.0185   0.3865   0.2944     H
C       0.0199    0.606   0.6439     C
C       0.0212   0.7414   0.5621     C
H       0.0233   0.2242   0.3609     H
H       0.0248   0.7295   0.0653     H
H       0.0253   0.5061    0.788     H
C       0.0254   0.8304   0.9533     C
C       0.0262   0.2991   0.3217     C
H       0.0274   0.2294   0.4379     H
C       0.0297   0.1455   0.9099     C
H       0.0299   0.9253   0.4997     H
C       0.0319   0.6395   0.6058     C
H       0.0335   0.3593   0.8518     H
C       0.0335   0.5277   0.5102     C
H       0.0336   0.7298   0.3118     H
C       0.0365   0.5202   0.2177     C
C       0.0384   0.5753   0.2404     C
H       0.0388   0.5248    0.678     H
C       0.0393   0.5371   0.6479     C
C        0.041   0.1642   0.8349     C
H       0.0436   0.9769   0.3467     H
C       0.0437   0.1049   0.7666     C
H       0.0451   0.3891   0.7136     H
C        0.048   0.7499   0.8399     C
C       0.0498   0.8938     0.97     C
C       0.0504    0.266   0.2808     C
H       0.0511   0.4226   0.1679     H
C       0.0522   0.9447    0.563     C
H       0.0545   0.6713   0.0381     H
C       0.0562   0.4059   0.7426     C
C       0.0568   0.9646   0.6421     C
H       0.0574   0.7677   0.3558     H
H       0.0579    0.457   0.4414     H
C       0.0599   0.8806   0.2931     C
C       0.0612    0.042   0.7003     C
O        0.063   0.6599   0.1001     O
C       0.0646   0.6078   0.5664     C
H       0.0654   0.6603   0.7817     H
H       0.0679   0.7924    0.853     H
H       0.0695   0.1777   0.0968     H
C       0.0723   0.1906   0.0667     C
C       0.0723   0.8228   0.2286     C
H       0.0761   0.3726    0.761     H
H       0.0772   0.2269   0.2879     H
H       0.0797   0.8898   0.3218     H
C       0.0801   0.7377   0.3356     C
C       0.0808    0.344   0.9412     C
H       0.0821   0.7506   0.9439     H
H       0.0839   0.6969   0.3501     H
H       0.0877   0.7666   0.5592     H
C       0.0894   0.1036   0.3938     C
H       0.0902   0.2377   0.0647     H
H       0.0927    0.084   0.7793     H
C        0.093   0.1208   0.4708     C
C       0.0938   0.3918   0.9103     C
H       0.0945   0.3624   0.9701     H
H       0.0947   0.4344   0.9239     H
H       0.0954   0.9973   0.0123     H
C        0.096    0.793   0.9555     C
H       0.0962   0.1211   0.3295     H
H       0.0992   0.2954   0.2644     H
H       0.1039   0.5341   0.6355     H
C       0.1063   0.8384   0.2698     C
H       0.1084   0.4439   0.7423     H
H       0.1088   0.1286   0.5355     H
H       0.1094   0.9388   0.1556     H
C        0.114   0.9048   0.1347     C
N       0.1148   0.7789   0.2035     N
C       0.1192   0.4378    0.177     C
C       0.1207   0.1809   0.9155     C
H       0.1221   0.1704   0.0519     H
H       0.1234   0.3113   0.9358     H
C       0.1242   0.5006   0.2021     C
C       0.1251   0.5509   0.4936     C
C       0.1274   0.6139   0.2478     C
H       0.1284   0.2119   0.9788     H
H       0.1288   0.6529   0.2632     H
C       0.1294   0.6796    0.791     C
C        0.133   0.1998   0.8396     C
H       0.1333   0.5804   0.7425     H
C       0.1355   0.1301   0.4303     C
H       0.1355   0.9246   0.1072     H
H       0.1379   0.1962   0.5113     H
C       0.1384   0.7267   0.8215     C
C       0.1397   0.9156   0.9898     C
H       0.1413   0.8823   0.7538     H
H       0.1414    0.405   0.1951     H
C        0.142   0.1501   0.5105     C
C       0.1425   0.1129   0.3518     C
C       0.1426   0.9476   0.6582     C
C       0.1446   0.7473   0.1786     C
H       0.1448   0.5314   0.4685     H
H       0.1493   0.2587   0.7868     H
C        0.151   0.0254    0.713     C
C       0.1518   0.9848   0.5576     C
H       0.1576   0.0032   0.5289     H
H       0.1583   0.3925   0.8961     H
C       0.1584   0.9821   0.0082     C
C       0.1587   0.6274   0.5488     C
H       0.1607   0.0197   0.5787     H
H       0.1619   0.8784   0.1445     H
H        0.162   0.4454   0.1519     H
H       0.1644   0.8361   0.7159     H
C       0.1692     0.19     0.96     C
H       0.1694   0.0738   0.3447     H
H       0.1737   0.7089   0.4822     H
C       0.1742   0.2079   0.8799     C
H       0.1749   0.1477    0.972     H
C       0.1812   0.7668    0.319     C
N       0.1834   0.8978  0.63959     N
H        0.185    0.048   0.7363     H
C       0.1886   0.8132    0.974     C
C       0.1888   0.2305   0.8013     C
C       0.1898   0.8575   0.7423     C
C        0.191   0.6018   0.5118     C
H        0.192   0.9814   0.0357     H
C       0.1921   0.9782   0.6936     C
C       0.1928   0.8133   0.2876     C
Cu     0.19359  0.71068  0.12818    Cu
H       0.1965   0.1497   0.3538     H
C       0.1986   0.6072   0.7393     C
H       0.1991   0.1558   0.4278     H
H       0.2001   0.0113   0.9887     H
H       0.2017   0.1967   0.7816     H
H       0.2017   0.8249   0.7632     H
H       0.2026   0.9577   0.5617     H
H       0.2037   0.6273    0.711     H
C       0.2109   0.8746   0.9919     C
H       0.2115   0.1448   0.5105     H
C       0.2123   0.6593   0.7732     C
C       0.2132   0.5419   0.2098     C
C       0.2155   0.5978   0.2334     C
N       0.2217   0.6783   0.5694     N
C       0.2288   0.8562   0.6328     C
C       0.2304   0.7525   0.8357     C
H       0.2334   0.7482   0.4441     H
H        0.235   0.2162   0.9575     H
H       0.2365   0.7844   0.8574     H
C       0.2378   0.7788    0.089     C
C       0.2384   0.7319   0.4731     C
H       0.2388   0.2319   0.8835     H
H         0.24   0.7319   0.9925     H
H       0.2484    0.244   0.3106     H
H       0.2498   0.5802   0.7424     H
H       0.2502   0.9198   0.2424     H
H       0.2516    0.256   0.8106     H
H         0.26   0.7681   0.4925     H
H       0.2612   0.2681   0.3835     H
C       0.2616   0.7681   0.9731     C
C       0.2622   0.7212    0.589     C
H       0.2635   0.7156   0.3574     H
H        0.265   0.2838   0.4575     H
H       0.2666   0.7518   0.9441     H
C       0.2696   0.7475   0.3357     C
C       0.2712   0.6438   0.1328     C
N       0.2783   0.8217   0.0694     N
C       0.2845   0.9022   0.7334     C
C       0.2868   0.9581   0.7098     C
C       0.2877   0.8407   0.2732     C
H       0.2885   0.3552   0.0105     H
C       0.2891   0.6254   0.4919     C
H       0.2963   0.8727    0.211     H
H       0.2974   0.5423   0.0617     H
H       0.2983   0.3033   0.2816     H
H       0.2983   0.6751   0.2632     H
H       0.2999   0.4887   0.4887     H
H       0.3009   0.3442   0.9278     H
C       0.3014   0.8928   0.2393     C
H       0.3035   0.3503   0.8538     H
Cu     0.30641  0.78932  0.62818    Cu
C       0.3072   0.6867   0.7876     C
C       0.3079   0.5218   0.1936     C
H        0.308   0.5186   0.5357     H
C        0.309   0.8982   0.0118     C
C       0.3102   0.6425   0.2423     C
C       0.3112   0.2695   0.3013     C
C       0.3114   0.6868    0.474     C
H        0.315    0.452   0.2363     H
N       0.3166   0.6022  0.13959     N
C       0.3188   0.7332    0.819     C
H       0.3251   0.3523    0.472     H
C       0.3258   0.2921   0.3799     C
H       0.3263   0.7911   0.9822     H
H       0.3306   0.4262   0.8447     H
C       0.3308     0.31     0.46     C
H       0.3356   0.6639   0.2159     H
H        0.338   0.0546   0.6519     H
H       0.3381   0.6216   0.6445     H
H       0.3393   0.4803   0.0787     H
C       0.3413   0.8726   0.0488     C
C       0.3416   0.5179   0.5082     C
H       0.3417   0.1075   0.3961     H
H       0.3424   0.4968   0.0289     H
C       0.3482   0.5152   0.0576     C
C        0.349   0.4746    0.213     C
H       0.3507   0.2413   0.2868     H
H       0.3552   0.9686   0.9685     H
C       0.3554   0.7527   0.6786     C
C       0.3574   0.5524   0.1582     C
C       0.3575   0.3871   0.8518     C
C        0.358   0.3499   0.0105     C
H       0.3586    0.095   0.6951     H
H       0.3587   0.6177   0.2538     H
C       0.3603   0.5844   0.4898     C
C       0.3616   0.7733   0.3215     C
H       0.3621   0.3038   0.0113     H
C       0.3645   0.3699   0.9303     C
H       0.3645   0.5754   0.6072     H
H       0.3667   0.9196   0.2425     H
C        0.367   0.3002   0.3396     C
C       0.3706   0.8204    0.291     C
H       0.3712   0.8471   0.7632     H
H       0.3716   0.2881   0.4788     H
C       0.3726   0.8861   0.7478     C
C       0.3749   0.9491   0.9936     C
C       0.3758   0.9994   0.7021     C
H       0.3766   0.1887   0.4358     H
H       0.3779   0.3296   0.5519     H
C       0.3793   0.3191   0.4155     C
C       0.3808   0.0622    0.677     C
N       0.3852   0.7211   0.7035     N
C        0.386   0.5952   0.6347     C
H       0.3906   0.5612   0.6556     H
H       0.3912   0.3714   0.0355     H
H       0.3916   0.0561   0.2423     H
C       0.3937   0.6616   0.7698     C
H       0.3961   0.9659   0.1355     H
H       0.4008   0.2046   0.7644     H
H       0.4038   0.3789   0.8295     H
C        0.404    0.707   0.4555     C
H       0.4046   0.5027   0.5123     H
H       0.4053   0.0656   0.4239     H
H       0.4055   0.1376   0.4701     H
C       0.4062   0.1082   0.4103     C
C        0.407   0.3792   0.9708     C
H       0.4073    0.416   0.2793     H
H       0.4098   0.2623   0.5647     H
C       0.4106   0.3964   0.8938     C
H       0.4123   0.7334   0.0592     H
H       0.4161   0.8031   0.8501     H
H       0.4179   0.7494   0.4439     H
C       0.4192    0.156   0.4412     C
C       0.4199   0.7623   0.8356     C
H       0.4203   0.6102   0.8218     H
H       0.4228   0.2731   0.7879     H
H       0.4239   0.1274    0.261     H
C       0.4277   0.3094   0.5667     C
C       0.4277   0.6772   0.7286     C
H       0.4305   0.3223   0.5968     H
H       0.4321   0.7076    0.353     H
H       0.4346   0.8397   0.2817     H
C       0.4354   0.8922   0.0664     C
O        0.437   0.8401   0.6001     O
C       0.4388    0.458   0.2003     C
C       0.4401   0.6194   0.7931     C
H       0.4421    0.043   0.9414     H
H       0.4426   0.7323   0.8558     H
C       0.4432   0.5354   0.1421     C
C       0.4438   0.0941   0.2426     C
H       0.4455   0.8287   0.5381     H
C       0.4478   0.5553    0.063     C
H       0.4489   0.0774   0.6679     H
C       0.4496    0.234   0.7808     C
C       0.4502   0.6062     0.47     C
C        0.452   0.7501   0.3399     C
H       0.4549   0.1109   0.2136     H
C       0.4563   0.3951   0.2666     C
H       0.4564   0.5231   0.8467     H
C        0.459   0.3358   0.3349     C
C       0.4607   0.9629   0.1479     C
H       0.4612   0.9752    0.178     H
C       0.4616   0.9247   0.7404     C
C       0.4635   0.9798   0.7177     C
H       0.4664   0.7702   0.8118     H
H       0.4665   0.1407   0.3518     H
C       0.4665   0.9723   0.0102     C
C       0.4681   0.8605   0.1058     C
H       0.4701   0.5747   0.9997     H
C       0.4703   0.3545   0.4099     C
H       0.4726   0.2706   0.9379     H
C       0.4738   0.2009   0.8217     C
C       0.4746   0.6696   0.4533     C
H       0.4747   0.9939    0.288     H
H       0.4752   0.7705   0.5653     H
H       0.4767   0.2758   0.8609     H
C       0.4788   0.7586   0.0621     C
C       0.4801    0.894   0.1439     C
H       0.4815   0.1135   0.7944     H
C       0.4818   0.8181   0.5637     C
H       0.4827   0.7808   0.3614     H
C        0.484   0.4886   0.1635     C
C       0.4852   0.6368   0.6295     C
C       0.4854     0.41    0.224     C
C       0.4861   0.7961   0.1035     C
C       0.4868   0.2322   0.8597     C
C       0.4872   0.1191   0.3775     C
H       0.4879   0.0078   0.8674     H
H       0.4901   0.7542   0.2361     H
C       0.4906   0.1366   0.8205     C
H       0.4918   0.9219   0.6309     H
H       0.4919   0.7887   0.0381     H
C       0.4937   0.5655   0.1027     C
C       0.4945    0.942   0.0468     C
H       0.4953   0.6259   0.5659     H
H       0.4968   0.5778   0.4677     H
C       0.4974   0.3508   0.2904     C
H       0.4995   0.7469    0.317     H
C       0.4999   0.5827   0.0269     C
C       0.5001   0.4173   0.9731     C
H       0.5005   0.2531    0.683     H
C       0.5026   0.6492   0.7096     C
H       0.5032   0.4222   0.5323     H
H       0.5047   0.3741   0.4341     H
C       0.5055    0.058   0.9532     C
C       0.5063   0.4345   0.8973     C
H       0.5081   0.2113   0.9619     H
H       0.5082   0.0781   0.3691     H
C       0.5094   0.8634   0.1795     C
H       0.5099   0.2458   0.7639     H
H       0.5121   0.9922   0.1326     H
C       0.5128   0.8809   0.6225     C
C       0.5132   0.7678   0.1403     C
C       0.5139   0.2039   0.8965     C
C       0.5146     0.59    0.776     C
C       0.5148   0.3632   0.3705     C
C        0.516   0.5114   0.8365     C
H       0.5173   0.2192   0.6386     H
C       0.5182   0.1819   0.4363     C
H       0.5185   0.8865   0.2056     H
C       0.5199    0.106   0.8561     C
C       0.5212   0.2414   0.9379     C
H       0.5233   0.7242   0.1391     H
H       0.5248   0.2295   0.4347     H
H       0.5253   0.0061    0.712     H
C       0.5254   0.3304   0.5467     C
C       0.5262   0.7991   0.1783     C
H       0.5274   0.7294   0.0621     H
C       0.5297   0.6455   0.5901     C
H       0.5299   0.4253   0.0003     H
C       0.5319   0.1395   0.8942     C
C       0.5335   0.0277   0.9898     C
H       0.5335   0.8593   0.6482     H
H       0.5336   0.2298   0.1882     H
C       0.5365   0.0202   0.2823     C
C       0.5384   0.0753   0.2596     C
H       0.5388   0.0248    0.822     H
C       0.5393   0.0371   0.8521     C
C        0.541   0.6642   0.6651     C
H       0.5436   0.4769   0.1533     H
C       0.5437   0.6049   0.7334     C
H       0.5451   0.8891   0.7864     H
C        0.548   0.2499   0.6601     C
C       0.5498   0.3938     0.53     C
C       0.5504    0.766   0.2192     C
H       0.5511   0.9226   0.3321     H
C       0.5522   0.4447    0.937     C
H       0.5545   0.1713   0.4619     H
C       0.5562   0.9059   0.7574     C
C       0.5568   0.4646   0.8579     C
H       0.5574   0.2677   0.1442     H
H       0.5579    0.957   0.0586     H
C       0.5599   0.3806   0.2069     C
C       0.5612    0.542   0.7997     C
O        0.563   0.1599   0.3999     O
C       0.5646   0.1078   0.9336     C
H       0.5654   0.1603   0.7183     H
H       0.5679   0.2924    0.647     H
H       0.5695   0.6777   0.4032     H
C       0.5723   0.3228   0.2714     C
C       0.5723   0.6906   0.4333     C
H       0.5761   0.8726    0.739     H
H       0.5772   0.7269   0.2121     H
H       0.5797   0.3898   0.1782     H
C       0.5801   0.2377   0.1644     C
C       0.5808    0.844   0.5588     C
H       0.5821   0.2506   0.5561     H
H       0.5839   0.1969   0.1499     H
H       0.5877   0.2666   0.9408     H
C       0.5894   0.6036   0.1062     C
H       0.5902   0.7377   0.4353     H
H       0.5927    0.584   0.7207     H
C        0.593   0.6208   0.0292     C
C       0.5938   0.8918   0.5897     C
H       0.5945   0.8624   0.5299     H
H       0.5947   0.9344   0.5761     H
H       0.5954   0.4973   0.4877     H
C        0.596    0.293   0.5445     C
H       0.5962   0.6211   0.1705     H
H       0.5992   0.7954   0.2356     H
H       0.6039   0.0341   0.8645     H
C       0.6063   0.3384   0.2302     C
H       0.6084   0.9439   0.7577     H
H       0.6088   0.6286   0.9645     H
H       0.6094   0.4388   0.3444     H
C        0.614   0.4048   0.3653     C
N       0.6148   0.2789   0.2965     N
C       0.6192   0.9378    0.323     C
C       0.6207   0.6809   0.5845     C
H       0.6221   0.6704   0.4481     H
H       0.6234   0.8113   0.5642     H
C       0.6242   0.0006   0.2979     C
C       0.6251   0.0509   0.0064     C
C       0.6274   0.1139   0.2522     C
H       0.6284   0.7119   0.5212     H
H       0.6288   0.1529   0.2368     H
C       0.6294   0.1796    0.709     C
C        0.633   0.6998   0.6604     C
H       0.6333   0.0804   0.7575     H
H       0.6355   0.4246   0.3928     H
C       0.6355   0.6301   0.0697     C
H       0.6379   0.6962   0.9887     H
C       0.6384   0.2267   0.6785     C
C       0.6397   0.4156   0.5102     C
H       0.6413   0.3823   0.7462     H
H       0.6414    0.905   0.3049     H
C        0.642   0.6501   0.9895     C
C       0.6425   0.6129   0.1482     C
C       0.6426   0.4476   0.8418     C
C       0.6446   0.2473   0.3214     C
H       0.6448   0.0314   0.0315     H
H       0.6493   0.7587   0.7132     H
C        0.651   0.5254    0.787     C
C       0.6518   0.4848   0.9424     C
H       0.6576   0.5032   0.9711     H
H       0.6583   0.8925   0.6039     H
C       0.6584   0.4821   0.4918     C
C       0.6587   0.1274   0.9512     C
H       0.6607   0.5197   0.9213     H
H       0.6619   0.3784   0.3555     H
H        0.662   0.9454   0.3481     H
H       0.6644   0.3361   0.7841     H
C       0.6692     0.69     0.54     C
H       0.6694   0.5738   0.1553     H
H       0.6737   0.2089   0.0178     H
C       0.6742   0.7079   0.6201     C
H       0.6749   0.6477    0.528     H
C       0.6812   0.2668    0.181     C
N       0.6834   0.3978  0.86041     N
H        0.685    0.548   0.7637     H
C       0.6886   0.3132    0.526     C
C       0.6888   0.7305   0.6987     C
C       0.6898   0.3575   0.7577     C
C        0.691   0.1018   0.9882     C
H        0.692   0.4814   0.4643     H
C       0.6921   0.4782   0.8064     C
C       0.6928   0.3133   0.2124     C
Cu     0.69359  0.21068  0.37182    Cu
H       0.6965   0.6497   0.1462     H
C       0.6986   0.1072   0.7607     C
H       0.6991   0.6558   0.0722     H
H       0.7001   0.5113   0.5113     H
H       0.7017   0.3249   0.7368     H
H       0.7017   0.6967   0.7184     H
H       0.7026   0.4577   0.9383     H
H       0.7037   0.1273    0.789     H
C       0.7109   0.3746   0.5081     C
H       0.7115   0.6448   0.9895     H
C       0.7123   0.1593   0.7268     C
C       0.7132   0.0419   0.2902     C
C       0.7155   0.0978   0.2666     C
N       0.7217   0.1783   0.9306     N
C       0.7288   0.3562   0.8672     C
C       0.7304   0.2525   0.6643     C
H       0.7334   0.2482   0.0559     H
H        0.735   0.7162   0.5425     H
H       0.7365   0.2844   0.6426     H
C       0.7378   0.2788    0.411     C
C       0.7384   0.2319   0.0269     C
H       0.7388   0.7319   0.6165     H
H         0.74   0.2319   0.5075     H
H       0.7484    0.744   0.1894     H
H       0.7498   0.0802   0.7576     H
H       0.7502   0.4198   0.2576     H
H       0.7516    0.756   0.6894     H
H         0.76   0.2681   0.0075     H
H       0.7612   0.7681   0.1165     H
C       0.7616   0.2681   0.5269     C
C       0.7622   0.2212    0.911     C
H       0.7635   0.2156   0.1426     H
H        0.765   0.7838   0.0425     H
H       0.7666   0.2518   0.5559     H
C       0.7696   0.2475   0.1643     C
C       0.7712   0.1438   0.3672     C
N       0.7783   0.3217   0.4306     N
C       0.7845   0.4022   0.7666     C
C       0.7868   0.4581   0.7902     C
C       0.7877   0.3407   0.2268     C
H       0.7885   0.8552   0.4895     H
C       0.7891   0.1254   0.0081     C
H       0.7963   0.3727    0.289     H
H       0.7974   0.0423   0.4383     H
H       0.7983   0.1751   0.2368     H
H       0.7983   0.8033   0.2184     H
H       0.7999   0.9887   0.0113     H
H       0.8009   0.8442   0.5722     H
C       0.8014   0.3928   0.2607     C
H       0.8035   0.8503   0.6462     H
Cu     0.80641  0.28932  0.87182    Cu
C       0.8072   0.1867   0.7124     C
C       0.8079   0.0218   0.3064     C
H        0.808   0.0186   0.9643     H
C        0.809   0.3982   0.4882     C
C       0.8102   0.1425   0.2577     C
C       0.8112   0.7695   0.1987     C
C       0.8114   0.1868    0.026     C
H        0.815    0.952   0.2637     H
N       0.8166   0.1022  0.36041     N
C       0.8188   0.2332    0.681     C
H       0.8251   0.8523    0.028     H
C       0.8258   0.7921   0.1201     C
H       0.8263   0.2911   0.5178     H
H       0.8306   0.9262   0.6553     H
C       0.8308     0.81     0.04     C
H       0.8356   0.1639   0.2841     H
H        0.838   0.5546   0.8481     H
H       0.8381   0.1216   0.8555     H
H       0.8393   0.9803   0.4213     H
C       0.8413   0.3726   0.4512     C
C       0.8416   0.0179   0.9918     C
H       0.8417   0.6075   0.1039     H
H       0.8424   0.9968   0.4711     H
C       0.8482   0.0152   0.4424     C
C        0.849   0.9746    0.287     C
H       0.8507   0.7413   0.2132     H
H       0.8552   0.4686   0.5315     H
C       0.8554   0.2527   0.8214     C
C       0.8574   0.0524   0.3418     C
C       0.8575   0.8871   0.6482     C
C        0.858   0.8499   0.4895     C
H       0.8586    0.595   0.8049     H
H       0.8587   0.1177   0.2462     H
C       0.8603   0.0844   0.0102     C
C       0.8616   0.2733   0.1785     C
H       0.8621   0.8038   0.4887     H
H       0.8645   0.0754   0.8928     H
C       0.8645   0.8699   0.5697     C
H       0.8667   0.4196   0.2575     H
C        0.867   0.8002   0.1604     C
C       0.8706   0.3204    0.209     C
H       0.8712   0.3471   0.7368     H
H       0.8716   0.7881   0.0212     H
C       0.8726   0.3861   0.7522     C
C       0.8749   0.4491   0.5064     C
C       0.8758   0.4994   0.7979     C
H       0.8766   0.6887   0.0642     H
H       0.8779   0.8296   0.9481     H
C       0.8793   0.8191   0.0845     C
C       0.8808   0.5622    0.823     C
N       0.8852   0.2211   0.7965     N
C        0.886   0.0952   0.8653     C
H       0.8906   0.0612   0.8444     H
H       0.8912   0.8714   0.4645     H
H       0.8916   0.5561   0.2577     H
C       0.8937   0.1616   0.7302     C
H       0.8961   0.4659   0.3645     H
H       0.9008   0.7046   0.7356     H
H       0.9038   0.8789   0.6705     H
C        0.904    0.207   0.0445     C
H       0.9046   0.0027   0.9877     H
H       0.9053   0.5656   0.0761     H
H       0.9055   0.6376   0.0299     H
C       0.9062   0.6082   0.0897     C
C        0.907   0.8792   0.5292     C
H       0.9073    0.916   0.2207     H
H       0.9098   0.7623   0.9353     H
C       0.9106   0.8964   0.6062     C
H       0.9123   0.2334   0.4408     H
H       0.9161   0.3031   0.6499     H
H       0.9179   0.2494   0.0561     H
C       0.9192    0.656   0.0588     C
C       0.9199   0.2623   0.6644     C
H       0.9203   0.1102   0.6782     H
H       0.9228   0.7731   0.7121     H
H       0.9239   0.6274    0.239     H
C       0.9277   0.1772   0.7714     C
C       0.9277   0.8094   0.9333     C
H       0.9305   0.8223   0.9032     H
H       0.9321   0.2076    0.147     H
H       0.9346   0.3397   0.2183     H
C       0.9354   0.3922   0.4336     C
O        0.937   0.3401   0.8999     O
C       0.9388    0.958   0.2997     C
C       0.9401   0.1194   0.7069     C
H       0.9421    0.543   0.5586     H
H       0.9426   0.2323   0.6442     H
C       0.9432   0.0354   0.3579     C
C       0.9438   0.5941   0.2574     C
H       0.9455   0.3287   0.9619     H
C       0.9478   0.0553    0.437     C
H       0.9489   0.5774   0.8321     H
C       0.9496    0.734   0.7192     C
C       0.9502   0.1062     0.03     C
C        0.952   0.2501   0.1601     C
H       0.9549   0.6109   0.2864     H
C       0.9563   0.8951   0.2334     C
H       0.9564   0.0231   0.6533     H
C        0.959   0.8358   0.1651     C
C       0.9607   0.4629   0.3521     C
H       0.9612   0.4752    0.322     H
C       0.9616   0.4247   0.7596     C
C       0.9635   0.4798   0.7823     C
H       0.9664   0.2702   0.6882     H
C       0.9665   0.4723   0.4898     C
H       0.9665   0.6407   0.1482     H
C       0.9681   0.3605   0.3942     C
H       0.9701   0.0747   0.5003     H
C       0.9703   0.8545   0.0901     C
H       0.9726   0.7706   0.5621     H
C       0.9738   0.7009   0.6783     C
C       0.9746   0.1696   0.0467     C
H       0.9747   0.4939    0.212     H
H       0.9752   0.2705   0.9347     H
H       0.9767   0.7758   0.6391     H
C       0.9788   0.2586   0.4379     C
C       0.9801    0.394   0.3561     C
H       0.9815   0.6135   0.7056     H
C       0.9818   0.3181   0.9363     C
H       0.9827   0.2808   0.1386     H
C        0.984   0.9886   0.3365     C
C       0.9852   0.1368   0.8705     C
C       0.9854     0.91    0.276     C
C       0.9861   0.2961   0.3965     C
C       0.9868   0.7322   0.6403     C
C       0.9872   0.6191   0.1225     C
H       0.9879   0.5078   0.6326     H
H       0.9901   0.2542   0.2639     H
C       0.9906   0.6366   0.6795     C
H       0.9918   0.4219   0.8691     H
H       0.9919   0.2887   0.4619     H
C       0.9937   0.0655   0.3973     C
C       0.9945    0.442   0.4532     C
H       0.9953   0.1259   0.9341     H
H       0.9968   0.0778   0.0323     H
C       0.9974   0.8508   0.2096     C
H       0.9995   0.2469    0.183     H
C       0.9999   0.0827   0.4731     C
