data_I
_chemical_name_common  '/home/zhangsd/repos/MofS-CGCNN/ML/data/WS24/clean_cifs/HEBGUS'
_cell_length_a  7.61510
_cell_length_b 14.74530
_cell_length_c 23.85580
_cell_angle_alpha 102.43200
_cell_angle_beta  90.00000
_cell_angle_gamma 90.00000
_space_group_name_H-M_alt      'P 1'


loop_
_space_group_symop_operation_xyz
  'x, y, z' 

loop_
_atom_site_label
_atom_site_fract_x
_atom_site_fract_y
_atom_site_fract_z
_atom_site_type_symbol
O       0.0027  0.38991  0.04807     O
O       0.0027  0.61009  0.45193     O
C       0.0096   0.0568  0.46004     C
C       0.0096   0.9432  0.03996     C
H       0.0147   0.2964   0.6219     H
H       0.0147   0.7036   0.8781     H
C       0.0159   0.0947  0.01752     C
C       0.0159   0.9053  0.48248     C
C       0.0171   0.1172  0.41606     C
C       0.0171   0.8828  0.08394     C
C       0.0249   0.0389  0.05699     C
C       0.0249   0.9611  0.44301     C
H        0.025    0.252    0.436     H
H        0.025    0.748    0.064     H
H       0.0272   0.1587   0.0298     H
H       0.0272   0.8413   0.4702     H
H       0.0416   0.0659   0.0956     H
H       0.0416   0.9341   0.4044     H
O       0.0525  0.38513  0.93045     O
O       0.0525  0.61487  0.56955     O
N       0.0856   0.2089  0.43711     N
N       0.0856   0.7911  0.06289     N
H       0.0892   0.0863   0.3841     H
H       0.0892   0.9137   0.1159     H
H       0.0908   0.2063   0.1819     H
H       0.0908   0.7937   0.3181     H
H       0.0959   0.2684   0.8401     H
H       0.0959   0.7316   0.6599     H
H       0.1005   0.1226   0.9015     H
H       0.1005   0.8774   0.5985     H
C       0.1015   0.3027  0.13407     C
C       0.1015   0.6973  0.36593     C
C       0.1415   0.4195  0.07365     C
C       0.1415   0.5805  0.42635     C
Co     0.14515  0.43315  0.48805    Co
Co     0.14515  0.56685  0.01195    Co
C       0.1648   0.2486  0.16989     C
C       0.1648   0.7514  0.33011     C
F       0.1649  0.19518  0.28056     F
F       0.1649  0.80482  0.21944     F
C       0.2003   0.4139  0.91805     C
C       0.2003   0.5861  0.58195     C
F       0.2013  0.07443  0.21365     F
F       0.2013  0.92557  0.28635     F
C       0.2091   0.3663  0.11598     C
C       0.2091   0.6337  0.38402     C
C       0.2113   0.2825  0.83247     C
C       0.2113   0.7175  0.66753     C
O       0.2301  0.48766  0.06556     O
O       0.2301  0.51234  0.43444     O
H       0.2418   0.1778   0.7641     H
H       0.2418   0.8222   0.7359     H
C       0.2552   0.2254  0.45288     C
C       0.2552   0.7746  0.04712     C
O       0.2757  0.48608  0.94505     O
O       0.2757  0.51392  0.55495     O
C       0.2872    0.139  0.25163     C
C       0.2872    0.861  0.24837     C
H        0.289   0.2787   0.9977     H
H        0.289   0.7213   0.5023     H
C       0.2938   0.3568  0.86742     C
C       0.2938   0.6432  0.63258     C
C       0.2981   0.2291  0.78648     C
C       0.2981   0.7709  0.71352     C
N       0.3038   0.3153  0.47299     N
N       0.3038   0.6847  0.02701     N
F        0.328  0.16207  0.66218     F
F        0.328  0.83793  0.83782     F
H       0.3367   0.3419   0.3001     H
H       0.3367   0.6581   0.1999     H
C        0.338   0.2566  0.18826     C
C        0.338   0.7434  0.31174     C
H       0.3402   0.0917   0.4353     H
H       0.3402   0.9083   0.0647     H
F       0.3628   0.0964  0.28917     F
F       0.3628   0.9036  0.21083     F
H       0.3738   0.1247   0.9638     H
H       0.3738   0.8753   0.5362     H
C       0.3754   0.1528  0.44913     C
C       0.3754   0.8472  0.05087     C
C       0.3815   0.3768  0.13534     C
C       0.3815   0.6232  0.36466     C
F       0.4035   0.0537  0.70441     F
F       0.4035   0.9463  0.79559     F
C       0.4039   0.2637  0.98614     C
C       0.4039   0.7363  0.51386     C
C       0.4231    0.193  0.22347     C
C       0.4231    0.807  0.27653     C
F       0.4414  0.08171  0.13516     F
F       0.4414  0.91829  0.36484     F
H       0.4418   0.3307   0.6846     H
H       0.4418   0.6693   0.8154     H
C       0.4432   0.3228   0.1713     C
C       0.4432   0.6772   0.3287     C
C       0.4505   0.3261  0.30835     C
C       0.4505   0.6739  0.19165     C
H       0.4546   0.4201    0.124     H
H       0.4546   0.5799    0.376     H
C       0.4549   0.1724  0.96591     C
C       0.4549   0.8276  0.53409     C
C       0.4644   0.3776  0.85525     C
C       0.4644   0.6224  0.64475     C
C       0.4662   0.1221  0.68137     C
C       0.4662   0.8779  0.81863     C
C       0.4672   0.2501  0.77286     C
C       0.4672   0.7499  0.72714     C
C       0.4722   0.3308  0.48848     C
C       0.4722   0.6692  0.01152     C
H       0.4779   0.4269    0.379     H
H       0.4779   0.5731    0.121     H
H       0.4931   0.3921   0.0018     H
H       0.4931   0.6079   0.4982     H
H       0.5069   0.3921   0.5018     H
H       0.5069   0.6079   0.9982     H
H       0.5221   0.4269    0.879     H
H       0.5221   0.5731    0.621     H
C       0.5278   0.3308  0.98848     C
C       0.5278   0.6692  0.51152     C
C       0.5328   0.2501  0.27286     C
C       0.5328   0.7499  0.22714     C
C       0.5338   0.1221  0.18137     C
C       0.5338   0.8779  0.31863     C
C       0.5356   0.3776  0.35525     C
C       0.5356   0.6224  0.14475     C
C       0.5451   0.1724  0.46591     C
C       0.5451   0.8276  0.03409     C
H       0.5454   0.4201    0.624     H
H       0.5454   0.5799    0.876     H
C       0.5495   0.3261  0.80835     C
C       0.5495   0.6739  0.69165     C
C       0.5568   0.3228   0.6713     C
C       0.5568   0.6772   0.8287     C
H       0.5582   0.3307   0.1846     H
H       0.5582   0.6693   0.3154     H
F       0.5586  0.08171  0.63516     F
F       0.5586  0.91829  0.86484     F
C       0.5769    0.193  0.72347     C
C       0.5769    0.807  0.77653     C
C       0.5961   0.2637  0.48614     C
C       0.5961   0.7363  0.01386     C
F       0.5965   0.0537  0.20441     F
F       0.5965   0.9463  0.29559     F
C       0.6185   0.3768  0.63534     C
C       0.6185   0.6232  0.86466     C
C       0.6246   0.1528  0.94913     C
C       0.6246   0.8472  0.55087     C
H       0.6262   0.1247   0.4638     H
H       0.6262   0.8753   0.0362     H
F       0.6372   0.0964  0.78917     F
F       0.6372   0.9036  0.71083     F
H       0.6598   0.0917   0.9353     H
H       0.6598   0.9083   0.5647     H
C        0.662   0.2566  0.68826     C
C        0.662   0.7434  0.81174     C
H       0.6633   0.3419   0.8001     H
H       0.6633   0.6581   0.6999     H
F        0.672  0.16207  0.16218     F
F        0.672  0.83793  0.33782     F
N       0.6962   0.3153  0.97299     N
N       0.6962   0.6847  0.52701     N
C       0.7019   0.2291  0.28648     C
C       0.7019   0.7709  0.21352     C
C       0.7062   0.3568  0.36742     C
C       0.7062   0.6432  0.13258     C
H        0.711   0.2787   0.4977     H
H        0.711   0.7213   0.0023     H
C       0.7128    0.139  0.75163     C
C       0.7128    0.861  0.74837     C
O       0.7243  0.48608  0.44505     O
O       0.7243  0.51392  0.05495     O
C       0.7448   0.2254  0.95288     C
C       0.7448   0.7746  0.54712     C
H       0.7582   0.1778   0.2641     H
H       0.7582   0.8222   0.2359     H
O       0.7699  0.48766  0.56556     O
O       0.7699  0.51234  0.93444     O
C       0.7887   0.2825  0.33247     C
C       0.7887   0.7175  0.16753     C
C       0.7909   0.3663  0.61598     C
C       0.7909   0.6337  0.88402     C
F       0.7987  0.07443  0.71365     F
F       0.7987  0.92557  0.78635     F
C       0.7997   0.4139  0.41805     C
C       0.7997   0.5861  0.08195     C
F       0.8351  0.19518  0.78056     F
F       0.8351  0.80482  0.71944     F
C       0.8352   0.2486  0.66989     C
C       0.8352   0.7514  0.83011     C
Co     0.85485  0.43315  0.98805    Co
Co     0.85485  0.56685  0.51195    Co
C       0.8585   0.4195  0.57365     C
C       0.8585   0.5805  0.92635     C
C       0.8985   0.3027  0.63407     C
C       0.8985   0.6973  0.86593     C
H       0.8995   0.1226   0.4015     H
H       0.8995   0.8774   0.0985     H
H       0.9041   0.2684   0.3401     H
H       0.9041   0.7316   0.1599     H
H       0.9092   0.2063   0.6819     H
H       0.9092   0.7937   0.8181     H
H       0.9108   0.0863   0.8841     H
H       0.9108   0.9137   0.6159     H
N       0.9144   0.2089  0.93711     N
N       0.9144   0.7911  0.56289     N
O       0.9475  0.38513  0.43045     O
O       0.9475  0.61487  0.06955     O
H       0.9584   0.0659   0.5956     H
H       0.9584   0.9341   0.9044     H
H       0.9728   0.1587   0.5298     H
H       0.9728   0.8413   0.9702     H
H        0.975    0.252    0.936     H
H        0.975    0.748    0.564     H
C       0.9751   0.0389  0.55699     C
C       0.9751   0.9611  0.94301     C
C       0.9829   0.1172  0.91606     C
C       0.9829   0.8828  0.58394     C
C       0.9841   0.0947  0.51752     C
C       0.9841   0.9053  0.98248     C
H       0.9853   0.2964   0.1219     H
H       0.9853   0.7036   0.3781     H
C       0.9904   0.0568  0.96004     C
C       0.9904   0.9432  0.53996     C
O       0.9973  0.38991  0.54807     O
O       0.9973  0.61009  0.95193     O
