data_I
_chemical_name_common  '/home/zhangsd/repos/MofS-CGCNN/ML/data/WS24/clean_cifs/HEBHAZ'
_cell_length_a  7.52620
_cell_length_b 14.44565
_cell_length_c 23.88400
_cell_angle_alpha 90.00000
_cell_angle_beta  90.00000
_cell_angle_gamma 104.75773
_space_group_name_H-M_alt      'P 1'


loop_
_space_group_symop_operation_xyz
  'x, y, z' 

loop_
_atom_site_label
_atom_site_fract_x
_atom_site_fract_y
_atom_site_fract_z
_atom_site_type_symbol
C       0.0037   0.5927   0.4309     C
C       0.0098   0.6893   0.0152     C
F       0.0151   0.2869  0.27813     F
C       0.0181   0.8325   0.1611     C
H       0.0209   0.7654   0.8209     H
C       0.0211   0.9451   0.5471     C
F       0.0233   0.4601  0.14003     F
C       0.0239   0.0971   0.5043     C
C       0.0241     0.74   0.3723     C
C       0.0246   0.9218    0.139     C
C       0.0297   0.7838   0.0047     C
O       0.0301   0.9993  0.94381     O
C        0.039   0.8877   0.5992     C
H       0.0409   0.1628    0.508     H
C       0.0444   0.0429   0.5507     C
N       0.0531   0.7911   0.5902     N
C       0.0539   0.3716   0.2535     C
H       0.0561   0.8557    0.323     H
C       0.0583   0.5203   0.8131     C
H       0.0623   0.1978    0.015     H
H       0.0626   0.2218   0.8536     H
H       0.0667   0.1148   0.3771     H
F        0.068   0.5517   0.2113     F
H       0.0744   0.0731    0.585     H
O       0.0768   0.5252   0.4422     O
H       0.0906   0.2579   0.6141     H
H        0.093   0.6304   0.5632     H
C       0.0934   0.0703   0.9108     C
H       0.0953   0.3554   0.9969     H
C       0.1005   0.6676   0.3904     C
C       0.1123   0.8088    0.335     C
C       0.1173   0.6094   0.7758     C
F       0.1214   0.4369  0.29239     F
H       0.1285   0.7641   0.2205     H
H       0.1302   0.5944   0.0506     H
C       0.1326    0.824   0.2056     C
C       0.1373   0.7642   0.8334     C
C        0.144   0.6592   0.0436     C
C       0.1455   0.0008   0.1602     C
O       0.1461   0.4004  0.54906     O
H       0.1471   0.9221   0.6196     H
H       0.1531   0.0606   0.1445     H
H       0.1631   0.4531   0.7206     H
H       0.1771   0.8829   0.8803     H
N       0.1775   0.8518   0.0218     N
F       0.1904   0.3724    0.217     F
C       0.1937   0.6771   0.5501     C
F        0.198   0.4856  0.82845     F
C       0.1995   0.7735   0.5616     C
C       0.2149   0.6917   0.8151     C
Co     0.22984  0.99404  0.99781    Co
C       0.2299    0.834   0.8697     C
O        0.239   0.1301     0.92     O
C       0.2419   0.5075   0.7054     C
C       0.2473    0.595   0.7274     C
C       0.2527    0.905   0.2274     C
C       0.2581   0.9925   0.2054     C
O        0.261   0.3699     0.42     O
C       0.2701    0.666   0.3697     C
Co     0.27016  0.50596  0.49781    Co
C       0.2851   0.8083   0.3151     C
C       0.3005   0.7265   0.0616     C
F        0.302   0.0144  0.32845     F
C       0.3063   0.8229   0.0501     C
F       0.3096   0.1276    0.717     F
N       0.3225   0.6482   0.5218     N
H       0.3229   0.6171   0.3803     H
H       0.3369   0.0469   0.2206     H
H       0.3469   0.4394   0.6445     H
H       0.3529   0.5779   0.1196     H
O       0.3539   0.0996  0.04906     O
C       0.3545   0.4992   0.6602     C
C        0.356   0.8408   0.5436     C
C       0.3627   0.7358   0.3334     C
C       0.3674    0.676   0.7056     C
H       0.3698   0.9056   0.5506     H
H       0.3715   0.7359   0.7205     H
F       0.3786   0.0631  0.79239     F
C       0.3827   0.8906   0.2758     C
C       0.3877   0.6912    0.835     C
C       0.3995   0.8324   0.8904     C
H       0.4047   0.1446   0.4969     H
C       0.4066   0.4297   0.4108     C
H        0.407   0.8696   0.0632     H
H       0.4094   0.2421   0.1141     H
O       0.4232   0.9748   0.9422     O
H       0.4256   0.4269    0.085     H
F        0.432   0.9483   0.7113     F
H       0.4333   0.3852   0.8771     H
H       0.4374   0.2782   0.3536     H
H       0.4377   0.3022    0.515     H
C       0.4417   0.9797   0.3131     C
H       0.4439   0.6443    0.823     H
C       0.4461   0.1284   0.7535     C
N       0.4469   0.7089   0.0902     N
C       0.4556   0.4571   0.0507     C
H       0.4591   0.3372    0.008     H
C        0.461   0.6123   0.0992     C
O       0.4699   0.5007  0.44381     O
C       0.4703   0.7162   0.5047     C
C       0.4754   0.5782    0.639     C
C       0.4759     0.76   0.8723     C
C       0.4761   0.4029   0.0043     C
F       0.4767   0.0399  0.64003     F
C       0.4789   0.5549   0.0471     C
H       0.4791   0.7346   0.3209     H
C       0.4819   0.6675   0.6611     C
F       0.4849   0.2131  0.77813     F
C       0.4902   0.8107   0.5152     C
C       0.4963   0.9073   0.9309     C
C       0.5037   0.0927   0.0691     C
C       0.5098   0.1893   0.4848     C
F       0.5151   0.7869  0.22187     F
C       0.5181   0.3325   0.3389     C
H       0.5209   0.2654   0.6791     H
C       0.5211   0.4451   0.9529     C
F       0.5233   0.9601  0.35997     F
C       0.5239   0.5971   0.9957     C
C       0.5241     0.24   0.1277     C
C       0.5246   0.4218    0.361     C
C       0.5297   0.2838   0.4953     C
O       0.5301   0.4993  0.55619     O
C        0.539   0.3877   0.9008     C
H       0.5409   0.6628    0.992     H
C       0.5444   0.5429   0.9493     C
N       0.5531   0.2911   0.9098     N
C       0.5539   0.8716   0.2465     C
H       0.5561   0.3557    0.177     H
C       0.5583   0.0203   0.6869     C
H       0.5623   0.6978    0.485     H
H       0.5626   0.7218   0.6464     H
H       0.5667   0.6148   0.1229     H
F        0.568   0.0517   0.2887     F
H       0.5744   0.5731    0.915     H
O       0.5768   0.0252   0.0578     O
H       0.5906   0.7579   0.8859     H
H        0.593   0.1304   0.9368     H
C       0.5934   0.5703   0.5892     C
H       0.5953   0.8554   0.5031     H
C       0.6005   0.1676   0.1096     C
C       0.6123   0.3088    0.165     C
C       0.6173   0.1094   0.7242     C
F       0.6214   0.9369  0.20761     F
H       0.6285   0.2641   0.2795     H
H       0.6302   0.0944   0.4494     H
C       0.6326    0.324   0.2944     C
C       0.6373   0.2642   0.6666     C
C        0.644   0.1592   0.4564     C
C       0.6455   0.5008   0.3398     C
O       0.6461   0.9004  0.95094     O
H       0.6471   0.4221   0.8804     H
H       0.6531   0.5606   0.3555     H
H       0.6631   0.9531   0.7794     H
H       0.6771   0.3829   0.6197     H
N       0.6775   0.3518   0.4782     N
F       0.6904   0.8724    0.283     F
C       0.6937   0.1771   0.9499     C
F        0.698   0.9856  0.67155     F
C       0.6995   0.2735   0.9384     C
C       0.7149   0.1917   0.6849     C
Co     0.72984  0.49404  0.50219    Co
C       0.7299    0.334   0.6303     C
O        0.739   0.6301     0.58     O
C       0.7419   0.0075   0.7946     C
C       0.7473    0.095   0.7726     C
C       0.7527    0.405   0.2726     C
C       0.7581   0.4925   0.2946     C
O        0.761   0.8699     0.08     O
C       0.7701    0.166   0.1303     C
Co     0.77016  0.00596  0.00219    Co
C       0.7851   0.3083   0.1849     C
C       0.8005   0.2265   0.4384     C
F        0.802   0.5144  0.17155     F
C       0.8063   0.3229   0.4499     C
F       0.8096   0.6276    0.783     F
N       0.8225   0.1482   0.9782     N
H       0.8229   0.1171   0.1197     H
H       0.8369   0.5469   0.2794     H
H       0.8469   0.9394   0.8555     H
H       0.8529   0.0779   0.3804     H
O       0.8539   0.5996  0.45094     O
C       0.8545   0.9992   0.8398     C
C        0.856   0.3408   0.9564     C
C       0.8627   0.2358   0.1666     C
C       0.8674    0.176   0.7944     C
H       0.8698   0.4056   0.9494     H
H       0.8715   0.2359   0.7795     H
F       0.8786   0.5631  0.70761     F
C       0.8827   0.3906   0.2242     C
C       0.8877   0.1912    0.665     C
C       0.8995   0.3324   0.6096     C
H       0.9047   0.6446   0.0031     H
C       0.9066   0.9297   0.0892     C
H        0.907   0.3696   0.4368     H
H       0.9094   0.7421   0.3859     H
O       0.9232   0.4748   0.5578     O
H       0.9256   0.9269    0.415     H
F        0.932   0.4483   0.7887     F
H       0.9333   0.8852   0.6229     H
H       0.9374   0.7782   0.1464     H
H       0.9377   0.8022    0.985     H
C       0.9417   0.4797   0.1869     C
H       0.9439   0.1443    0.677     H
C       0.9461   0.6284   0.7465     C
N       0.9469   0.2089   0.4098     N
C       0.9556   0.9571   0.4493     C
H       0.9591   0.8372    0.492     H
C        0.961   0.1123   0.4008     C
O       0.9699   0.0007  0.05619     O
C       0.9703   0.2162   0.9953     C
C       0.9754   0.0782    0.861     C
C       0.9759     0.26   0.6277     C
C       0.9761   0.9029   0.4957     C
F       0.9767   0.5399  0.85997     F
C       0.9789   0.0549   0.4529     C
H       0.9791   0.2346   0.1791     H
C       0.9819   0.1675   0.8389     C
F       0.9849   0.7131  0.72187     F
C       0.9902   0.3107   0.9848     C
C       0.9963   0.4073   0.5691     C
