data_I
_chemical_name_common  '/home/zhangsd/repos/MofS-CGCNN/ML/data/WS24/clean_cifs/HEBHUT'
_cell_length_a 10.71070
_cell_length_b 11.06990
_cell_length_c 13.04520
_cell_angle_alpha 101.86600
_cell_angle_beta  104.00200
_cell_angle_gamma 110.69800
_space_group_name_H-M_alt      'P 1'


loop_
_space_group_symop_operation_xyz
  'x, y, z' 

loop_
_atom_site_label
_atom_site_fract_x
_atom_site_fract_y
_atom_site_fract_z
_atom_site_type_symbol
C        0.003   0.8033   0.6883     C
H       0.0073   0.7242   0.6991     H
H       0.0081   0.5195   0.1492     H
C       0.0145    0.967  0.33696     C
H       0.0196   0.8865   0.3431     H
H       0.0319   0.3726    0.012     H
H       0.0676   0.6257   0.3501     H
C       0.0852   0.4975   0.1656     C
H       0.0865   0.9464   0.9304     H
H       0.0919   0.1729   0.5452     H
C       0.0992   0.4099   0.0835     C
H       0.1038   0.9425   0.1083     H
C       0.1071   0.0162  0.65823     C
C       0.1143   0.8973  0.67211     C
C       0.1146   0.1733  0.31155     C
N      0.12408  0.05983  0.32397     N
C       0.1675   0.6564    0.359     C
H       0.1677   0.4253   0.5527     H
C       0.1742   0.9923   0.9875     C
C       0.1832   0.5543   0.2727     C
C        0.185   0.9911  0.09436     C
H       0.1903   0.2389   0.3025     H
C        0.191   0.2121  0.59226     C
H       0.1937   0.8816   0.6704     H
C       0.2039   0.4455   0.6296     C
C       0.2122    0.377   0.1064     C
O      0.21308  0.81999  0.26187     O
N       0.2147    0.114  0.64214     N
H        0.217   0.6579   0.4324     H
H       0.2204   0.6363   0.6669     H
H       0.2228   0.3183   0.0505     H
C       0.2231   0.8002    0.354     C
C       0.2255   0.3479  0.67261     C
C       0.2348   0.5719   0.6981     C
H       0.2462   0.7306   0.9239     H
H       0.2477   0.2276   0.5444     H
H        0.273    0.095    0.632     H
O      0.27355   0.8996  0.44077     O
C       0.2779   0.3808   0.7866     C
H       0.2862   0.0638   0.8939     H
C       0.2865   0.6047   0.8116     C
C       0.2931   0.0613  0.96584     C
H       0.2932   0.3167   0.8178     H
C       0.2964   0.5186  0.29745     C
H       0.3052   0.7998   0.8419     H
C        0.308   0.5077   0.8553     C
N      0.30835   0.0577  0.17843     N
C       0.3103   0.4314   0.2127     C
C       0.3163   0.7424   0.8872     C
Co     0.31923  0.04133  0.33831    Co
H       0.3434    0.528   0.9323     H
H       0.3486    0.543   0.4626     H
H       0.3873   0.4092   0.2279     H
C       0.4012   0.5674   0.4134     C
C       0.4242    0.128  0.05097     C
C       0.4245   0.1248  0.15731     C
H        0.431    0.939    0.575     H
O      0.43419  0.23848  0.43436     O
N        0.455   0.8108  0.97044     N
H       0.4601    0.518   0.4136     H
H        0.467    0.811     0.03     H
O       0.4808    0.969   0.6411     O
H       0.4898   0.8279   0.7834     H
O      0.49051  0.21195  0.60077     O
H        0.496    0.037    0.662     H
C       0.4983   0.7184  0.46227     C
C       0.5017   0.2816  0.53773     C
H        0.504    0.963    0.338     H
O      0.50949  0.78805  0.39923     O
H       0.5102   0.1721   0.2166     H
O       0.5192    0.031   0.3589     O
H        0.533    0.189     0.97     H
H       0.5399    0.482   0.5864     H
N        0.545   0.1892  0.02956     N
O      0.56581  0.76152  0.56564     O
H        0.569    0.061    0.425     H
C       0.5755   0.8752  0.84269     C
C       0.5758    0.872  0.94903     C
C       0.5988   0.4326   0.5866     C
H       0.6127   0.5908   0.7721     H
H       0.6514    0.457   0.5374     H
H       0.6566    0.472   0.0677     H
Co     0.68077  0.95867  0.66169    Co
C       0.6837   0.2576   0.1128     C
C       0.6897   0.5686   0.7873     C
N      0.69165   0.9423  0.82157     N
C        0.692   0.4923   0.1447     C
H       0.6948   0.2002   0.1581     H
C       0.7036   0.4814  0.70255     C
H       0.7068   0.6833   0.1822     H
C       0.7069   0.9387  0.03416     C
C       0.7135   0.3953   0.1884     C
H       0.7138   0.9362   0.1061     H
C       0.7221   0.6192   0.2134     C
O      0.72645   0.1004  0.55923     O
H        0.727    0.905    0.368     H
H       0.7523   0.7724   0.4556     H
H       0.7538   0.2694   0.0761     H
C       0.7652   0.4281   0.3019     C
C       0.7745   0.6521  0.32739     C
C       0.7769   0.1998    0.646     C
H       0.7772   0.6817   0.9495     H
H       0.7796   0.3637   0.3331     H
H        0.783   0.3421   0.5676     H
N       0.7853    0.886  0.35786     N
O      0.78692  0.18001  0.73813     O
C       0.7878    0.623   0.8936     C
C       0.7961   0.5545   0.3704     C
H       0.8063   0.1184   0.3296     H
C        0.809   0.7879  0.40774     C
H       0.8097   0.7611   0.6975     H
C        0.815   0.0089  0.90564     C
C       0.8168   0.4457   0.7273     C
C       0.8258   0.0077   0.0125     C
H       0.8323   0.5747   0.4473     H
C       0.8325   0.3436    0.641     C
N      0.87592  0.94017  0.67603     N
C       0.8854   0.8267  0.68845     C
C       0.8857   0.1027  0.32789     C
C       0.8929   0.9838  0.34177     C
H       0.8962   0.0575   0.8917     H
C       0.9008   0.5901   0.9165     C
H       0.9081   0.8271   0.4548     H
H       0.9135   0.0536   0.0696     H
C       0.9148   0.5025   0.8344     C
H       0.9324   0.3743   0.6499     H
H       0.9681   0.6274    0.988     H
H       0.9804   0.1135   0.6569     H
C       0.9855    0.033  0.66304     C
H       0.9919   0.4805   0.8508     H
H       0.9927   0.2758   0.3009     H
C        0.997   0.1967   0.3117     C
