data_I
_chemical_name_common  '/home/zhangsd/repos/MofS-CGCNN/ML/data/WS24/clean_cifs/HEBHON'
_cell_length_a  9.89700
_cell_length_b 10.78300
_cell_length_c 15.58500
_cell_angle_alpha 95.36000
_cell_angle_beta  90.00000
_cell_angle_gamma 90.00000
_space_group_name_H-M_alt      'P 1'


loop_
_space_group_symop_operation_xyz
  'x, y, z' 

loop_
_atom_site_label
_atom_site_fract_x
_atom_site_fract_y
_atom_site_fract_z
_atom_site_type_symbol
C       0.0038  0.77917  0.25065     C
H       0.0043   0.2801   0.7964     H
Co     0.01106  0.12881 0.030358    Co
H       0.0167   0.6371   0.6833     H
C      0.01722  0.72434  0.80324     C
H       0.0226    0.203   0.2125     H
C      0.03279  0.95756  0.38627     C
C        0.041  0.62974  0.74024     C
H       0.0445    0.019   0.4317     H
N      0.04843  0.71804  0.88715     N
C      0.06925  0.39398  0.51715     C
C      0.06957  0.60953   0.4948     C
C      0.07662  0.03435  0.66887     C
C      0.09162   0.1261  0.73766     C
C       0.1025  0.52237  0.76419     C
O      0.10647  0.00386   0.9053     O
C      0.10734  0.61304  0.91054     C
C      0.11003  0.77091  0.30694     C
H        0.115    0.322   0.5285     H
H       0.1158   0.6839    0.491     H
H       0.1208   0.4567   0.7228     H
C      0.12491   0.8607  0.37555     C
H       0.1264    0.858   0.6213     H
O      0.12856  0.20547  0.94195     O
H        0.133    0.672   0.0239     H
N      0.13564  0.60838  0.99517     N
C       0.1364  0.51297   0.8487     C
C      0.14076  0.50397  0.51231     C
C       0.1457  0.10995  0.88959     C
O      0.15169  0.86916  0.05105     O
O      0.16589  0.07021  0.10042     O
H       0.1692   0.4291   0.0043     H
H       0.1712   0.7054   0.2988     H
C      0.17424  0.92816  0.65074     C
H        0.178   0.4414   0.8649     H
H       0.1932   0.5119   0.0908     H
H        0.196   0.8561   0.4141     H
C      0.20519  0.95896   0.0964     C
C      0.20578  0.12602  0.80236     C
H       0.2068   0.9027   0.7051     H
C      0.20785  0.50706  0.02908     C
H       0.2321   0.0584   0.2858     H
H       0.2448   0.2039   0.3043     H
H       0.2552   0.2039   0.8043     H
H       0.2679   0.0584   0.7858     H
C      0.29215  0.50706  0.52908     C
H       0.2932   0.9027   0.2051     H
C      0.29422  0.12602  0.30236     C
C      0.29481  0.95896   0.5964     C
H        0.304   0.8561   0.9141     H
H       0.3068   0.5119   0.5908     H
H        0.322   0.4414   0.3649     H
C      0.32576  0.92816  0.15074     C
H       0.3288   0.7054   0.7988     H
H       0.3308   0.4291   0.5043     H
O      0.33411  0.07021  0.60042     O
O      0.34831  0.86916  0.55105     O
C       0.3543  0.10995  0.38959     C
C      0.35924  0.50397  0.01231     C
C       0.3636  0.51297   0.3487     C
N      0.36436  0.60838  0.49517     N
H        0.367    0.672   0.5239     H
O      0.37144  0.20547  0.44195     O
H       0.3736    0.858   0.1213     H
C      0.37509   0.8607  0.87555     C
H       0.3792   0.4567   0.2228     H
H       0.3842   0.6839    0.991     H
H        0.385    0.322   0.0285     H
C      0.38997  0.77091  0.80694     C
C      0.39266  0.61304  0.41054     C
O      0.39353  0.00386   0.4053     O
C       0.3975  0.52237  0.26419     C
C      0.40838   0.1261  0.23766     C
C      0.42338  0.03435  0.16887     C
C      0.43043  0.60953   0.9948     C
C      0.43075  0.39398  0.01715     C
N      0.45157  0.71804  0.38715     N
H       0.4555    0.019   0.9317     H
C        0.459  0.62974  0.24024     C
C      0.46721  0.95756  0.88627     C
H       0.4774    0.203   0.7125     H
C      0.48278  0.72434  0.30324     C
H       0.4833   0.6371   0.1833     H
Co     0.48894  0.12881 0.530358    Co
H       0.4957   0.2801   0.2964     H
C       0.4962  0.77917  0.75065     C
C       0.5038  0.22083  0.24935     C
H       0.5043   0.7199   0.7036     H
Co     0.51106  0.87119 0.469642    Co
H       0.5167   0.3629   0.8167     H
C      0.51722  0.27566  0.69676     C
H       0.5226    0.797   0.2875     H
C      0.53279  0.04244  0.11373     C
C        0.541  0.37026  0.75976     C
H       0.5445    0.981   0.0683     H
N      0.54843  0.28196  0.61285     N
C      0.56925  0.60602  0.98285     C
C      0.56957  0.39047   0.0052     C
C      0.57662  0.96565  0.83113     C
C      0.59162   0.8739  0.76234     C
C       0.6025  0.47763  0.73581     C
O      0.60647  0.99614   0.5947     O
C      0.60734  0.38696  0.58946     C
C      0.61003  0.22909  0.19306     C
H        0.615    0.678   0.9715     H
H       0.6158   0.3161    0.009     H
H       0.6208   0.5433   0.7772     H
C      0.62491   0.1393  0.12445     C
H       0.6264    0.142   0.8787     H
O      0.62856  0.79453  0.55805     O
H        0.633    0.328   0.4761     H
N      0.63564  0.39162  0.50483     N
C       0.6364  0.48703   0.6513     C
C      0.64076  0.49603  0.98769     C
C       0.6457  0.89005  0.61041     C
O      0.65169  0.13084  0.44895     O
O      0.66589  0.92979  0.39958     O
H       0.6692   0.5709   0.4957     H
H       0.6712   0.2946   0.2012     H
C      0.67424  0.07184  0.84926     C
H        0.678   0.5586   0.6351     H
H       0.6932   0.4881   0.4092     H
H        0.696   0.1439   0.0859     H
C      0.70519  0.04104   0.4036     C
C      0.70578  0.87398  0.69764     C
H       0.7068   0.0973   0.7949     H
C      0.70785  0.49294  0.47092     C
H       0.7321   0.9416   0.2142     H
H       0.7448   0.7961   0.1957     H
H       0.7552   0.7961   0.6957     H
H       0.7679   0.9416   0.7142     H
C      0.79215  0.49294  0.97092     C
H       0.7932   0.0973   0.2949     H
C      0.79422  0.87398  0.19764     C
C      0.79481  0.04104   0.9036     C
H        0.804   0.1439   0.5859     H
H       0.8068   0.4881   0.9092     H
H        0.822   0.5586   0.1351     H
C      0.82576  0.07184  0.34926     C
H       0.8288   0.2946   0.7012     H
H       0.8308   0.5709   0.9957     H
O      0.83411  0.92979  0.89958     O
O      0.84831  0.13084  0.94895     O
C       0.8543  0.89005  0.11041     C
C      0.85924  0.49603  0.48769     C
C       0.8636  0.48703   0.1513     C
N      0.86436  0.39162  0.00483     N
H        0.867    0.328   0.9761     H
O      0.87144  0.79453  0.05805     O
H       0.8736    0.142   0.3787     H
C      0.87509   0.1393  0.62445     C
H       0.8792   0.5433   0.2772     H
H       0.8842   0.3161    0.509     H
H        0.885    0.678   0.4715     H
C      0.88997  0.22909  0.69306     C
C      0.89266  0.38696  0.08946     C
O      0.89353  0.99614   0.0947     O
C       0.8975  0.47763  0.23581     C
C      0.90838   0.8739  0.26234     C
C      0.92338  0.96565  0.33113     C
C      0.93043  0.39047   0.5052     C
C      0.93075  0.60602  0.48285     C
N      0.95157  0.28196  0.11285     N
H       0.9555    0.981   0.5683     H
C        0.959  0.37026  0.25976     C
C      0.96721  0.04244  0.61373     C
H       0.9774    0.797   0.7875     H
C      0.98278  0.27566  0.19676     C
H       0.9833   0.3629   0.3167     H
Co     0.98894  0.87119 0.969642    Co
H       0.9957   0.7199   0.2036     H
C       0.9962  0.22083  0.74935     C
