data_I
_chemical_name_common  '/home/zhangsd/repos/MofS-CGCNN/ML/data/WS24/clean_cifs/HEBHIH'
_cell_length_a  9.77100
_cell_length_b 12.42600
_cell_length_c 25.20200
_cell_angle_alpha 92.96200
_cell_angle_beta  90.00000
_cell_angle_gamma 90.00000
_space_group_name_H-M_alt      'P 1'


loop_
_space_group_symop_operation_xyz
  'x, y, z' 

loop_
_atom_site_label
_atom_site_fract_x
_atom_site_fract_y
_atom_site_fract_z
_atom_site_type_symbol
H       0.0034   0.2091   0.1636     H
C       0.0092   0.3169  0.00346     C
H        0.019    0.628   0.8781     H
H       0.0192   0.5078   0.0714     H
C       0.0198   0.2627  0.95449     C
H       0.0241   0.6189   0.2626     H
H       0.0415   0.0632   0.5417     H
H       0.0442     0.79   0.0553     H
O       0.0472   0.1316  0.44713     O
H       0.0503   0.5223   0.7938     H
H       0.0539   0.0712   0.6332     H
H       0.0546   0.1907   0.8571     H
N       0.0569   0.3836  0.11502     N
H       0.0618      0.7   0.9739     H
H       0.0649   0.9223   0.2732     H
C       0.0678    0.127  0.55976     C
C       0.0684   0.3886  0.74548     C
O       0.0732  0.10342   0.3209     O
C        0.075   0.1316  0.61448     C
Co     0.07662  0.23237 0.374129    Co
C       0.0889   0.2124  0.47265     C
C       0.0895    0.453  0.07293     C
C       0.0962   0.2157  0.15616     C
C        0.099    0.215  0.53182     C
C       0.1013   0.3952  0.01937     C
C       0.1133   0.4739  0.77858     C
C       0.1136   0.2259  0.64112     C
O       0.1153  0.22417  0.69567     O
H       0.1167   0.5984    0.672     H
O       0.1228   0.2937   0.4486     O
C       0.1239   0.2854   0.9199     C
N       0.1305   0.7315   0.6339     N
H       0.1401    0.778   0.2197     H
C       0.1402   0.3092  0.55904     C
C       0.1422   0.2192   0.8693     C
C       0.1425   0.3031  0.12922     C
C       0.1461   0.3153  0.61371     C
H       0.1476   0.4592   0.3985     H
H       0.1539   0.0813     0.19     H
H       0.1539   0.0896   0.7799     H
C        0.158   0.9137  0.26657     C
C       0.1615   0.3155   0.7247     C
N       0.1618   0.3616  0.33591     N
H        0.164   0.3688   0.5402     H
H       0.1718   0.3792   0.6319     H
H       0.1755   0.4892   0.0812     H
C       0.1777   0.6499  0.66061     C
H       0.1789   0.2635   0.8421     H
C        0.182   0.4537  0.36407     C
H       0.1841    0.862   0.5992     H
C       0.1853   0.1397  0.17181     C
H       0.1887    0.932   0.7307     H
H       0.1958   0.2913   0.2656     H
C       0.1985   0.0809  0.32239     C
C       0.2004   0.0328  0.79437     C
C       0.2017   0.4199  0.98412     C
C       0.2025   0.8274  0.23448     C
C       0.2094   0.3544  0.28639     C
C       0.2124   0.3661  0.93511     C
C       0.2179   0.8057   0.6183     C
H       0.2187   0.8851    0.412     H
C       0.2214   0.9391  0.76531     C
O       0.2228   0.6362   0.8515     O
H        0.226    0.636   0.4079     H
N       0.2353   0.1317  0.87862     N
H        0.236   0.9741   0.4935     H
C       0.2494   0.0421  0.84579     C
C       0.2499   0.9874  0.28896     C
C       0.2501   0.4874  0.78896     C
C       0.2506   0.5421  0.34579     C
H        0.264   0.4741   0.9935     H
N       0.2647   0.6317  0.37862     N
H        0.274    0.136   0.9079     H
O       0.2772   0.1362   0.3515     O
C       0.2786   0.4391  0.26531     C
H       0.2813   0.3851    0.912     H
C       0.2821   0.3057   0.1183     C
C       0.2876   0.8661  0.43511     C
C       0.2906   0.8544  0.78639     C
C       0.2975   0.3274  0.73448     C
C       0.2983   0.9199  0.48412     C
C       0.2996   0.5328  0.29437     C
C       0.3015   0.5809  0.82239     C
H       0.3042   0.7913   0.7656     H
H       0.3113    0.432   0.2307     H
C       0.3147   0.6397  0.67181     C
H       0.3159    0.362   0.0992     H
C        0.318   0.9537  0.86407     C
H       0.3211   0.7635   0.3421     H
C       0.3223   0.1499  0.16061     C
H       0.3245   0.9892   0.5812     H
H       0.3282   0.8792   0.1319     H
H        0.336   0.8688   0.0402     H
N       0.3382   0.8616  0.83591     N
C       0.3385   0.8155   0.2247     C
C        0.342   0.4137  0.76657     C
H       0.3461   0.5813     0.69     H
H       0.3461   0.5896   0.2799     H
H       0.3524   0.9592   0.8985     H
C       0.3539   0.8153  0.11371     C
C       0.3575   0.8031  0.62922     C
C       0.3578   0.7192   0.3693     C
C       0.3598   0.8092  0.05904     C
H       0.3599    0.278   0.7197     H
N       0.3695   0.2315   0.1339     N
C       0.3761   0.7854   0.4199     C
O       0.3772   0.7937   0.9486     O
H       0.3833   0.0984    0.172     H
O       0.3847  0.72417  0.19567     O
C       0.3864   0.7259  0.14112     C
C       0.3867   0.9739  0.27858     C
C       0.3987   0.8952  0.51937     C
C        0.401    0.715  0.03182     C
C       0.4038   0.7157  0.65616     C
C       0.4105    0.953  0.57293     C
C       0.4111   0.7124  0.97265     C
Co     0.42338  0.73237 0.874129    Co
C        0.425   0.6316  0.11448     C
O       0.4268  0.60342   0.8209     O
C       0.4316   0.8886  0.24548     C
C       0.4322    0.627  0.05976     C
H       0.4351   0.4223   0.7732     H
H       0.4382      0.2   0.4739     H
N       0.4431   0.8836  0.61502     N
H       0.4454   0.6907   0.3571     H
H       0.4461   0.5712   0.1332     H
H       0.4497   0.0223   0.2938     H
O       0.4528   0.6316  0.94713     O
H       0.4558     0.29   0.5553     H
H       0.4585   0.5632   0.0417     H
H       0.4759   0.1189   0.7626     H
C       0.4802   0.7627  0.45449     C
H       0.4808   0.0078   0.5714     H
H        0.481    0.128   0.3781     H
C       0.4908   0.8169  0.50346     C
H       0.4966   0.7091   0.6636     H
H       0.5034   0.2909   0.3364     H
C       0.5092   0.1831  0.49654     C
H        0.519    0.872   0.6219     H
H       0.5192   0.9922   0.4286     H
C       0.5198   0.2373  0.54551     C
H       0.5241   0.8811   0.2374     H
H       0.5415   0.4368   0.9583     H
H       0.5442     0.71   0.4447     H
O       0.5472   0.3684  0.05287     O
H       0.5503   0.9777   0.7062     H
H       0.5539   0.4288   0.8668     H
H       0.5546   0.3093   0.6429     H
N       0.5569   0.1164  0.38498     N
H       0.5618      0.8   0.5261     H
H       0.5649   0.5777   0.2268     H
C       0.5678    0.373  0.94024     C
C       0.5684   0.1114  0.75452     C
O       0.5732  0.39658   0.1791     O
C        0.575   0.3684  0.88552     C
Co     0.57662  0.26763 0.125871    Co
C       0.5889   0.2876  0.02735     C
C       0.5895    0.047  0.42707     C
C       0.5962   0.2843  0.34384     C
C        0.599    0.285  0.96818     C
C       0.6013   0.1048  0.48063     C
C       0.6133   0.0261  0.72142     C
C       0.6136   0.2741  0.85888     C
O       0.6153  0.27583  0.80433     O
H       0.6167   0.9016    0.828     H
O       0.6228   0.2063   0.0514     O
C       0.6239   0.2146   0.5801     C
N       0.6305   0.7685   0.8661     N
H       0.6401    0.722   0.2803     H
C       0.6402   0.1908  0.94096     C
C       0.6422   0.2808   0.6307     C
C       0.6425   0.1969  0.37078     C
C       0.6461   0.1847  0.88629     C
H       0.6476   0.0408   0.1015     H
H       0.6539   0.4104   0.7201     H
H       0.6539   0.4187     0.31     H
C        0.658   0.5863  0.23343     C
C       0.6615   0.1845   0.7753     C
N       0.6618   0.1384  0.16409     N
H        0.664   0.1312   0.9598     H
H       0.6718   0.1208   0.8681     H
H       0.6755   0.0108   0.4188     H
C       0.6777   0.8501  0.83939     C
H       0.6789   0.2365   0.6579     H
C        0.682   0.0463  0.13593     C
H       0.6841    0.638   0.9008     H
C       0.6853   0.3603  0.32819     C
H       0.6887    0.568   0.7693     H
H       0.6958   0.2087   0.2344     H
C       0.6985   0.4191  0.17761     C
C       0.7004   0.4672  0.70563     C
C       0.7017   0.0801  0.51588     C
C       0.7025   0.6726  0.26552     C
C       0.7094   0.1456  0.21361     C
C       0.7124   0.1339  0.56489     C
C       0.7179   0.6943   0.8817     C
H       0.7187   0.6149    0.088     H
C       0.7214   0.5609  0.73469     C
O       0.7228   0.8638   0.6485     O
H        0.726    0.864   0.0921     H
N       0.7353   0.3683  0.62138     N
H        0.736   0.5259   0.0065     H
C       0.7494   0.4579  0.65421     C
C       0.7499   0.5126  0.21104     C
C       0.7501   0.0126  0.71104     C
C       0.7506   0.9579  0.15421     C
H        0.764   0.0259   0.5065     H
N       0.7647   0.8683  0.12138     N
H        0.774    0.364   0.5921     H
O       0.7772   0.3638   0.1485     O
C       0.7786   0.0609  0.23469     C
H       0.7813   0.1149    0.588     H
C       0.7821   0.1943   0.3817     C
C       0.7876   0.6339  0.06489     C
C       0.7906   0.6456  0.71361     C
C       0.7975   0.1726  0.76552     C
C       0.7983   0.5801  0.01588     C
C       0.7996   0.9672  0.20563     C
C       0.8015   0.9191  0.67761     C
H       0.8042   0.7087   0.7344     H
H       0.8113    0.068   0.2693     H
C       0.8147   0.8603  0.82819     C
H       0.8159    0.138   0.4008     H
C        0.818   0.5463  0.63593     C
H       0.8211   0.7365   0.1579     H
C       0.8223   0.3501  0.33939     C
H       0.8245   0.5108   0.9188     H
H       0.8282   0.6208   0.3681     H
H        0.836   0.6312   0.4598     H
N       0.8382   0.6384  0.66409     N
C       0.8385   0.6845   0.2753     C
C        0.842   0.0863  0.73343     C
H       0.8461   0.9104   0.2201     H
H       0.8461   0.9187     0.81     H
H       0.8524   0.5408   0.6015     H
C       0.8539   0.6847  0.38629     C
C       0.8575   0.6969  0.87078     C
C       0.8578   0.7808   0.1307     C
C       0.8598   0.6908  0.44096     C
H       0.8599    0.222   0.7803     H
N       0.8695   0.2685   0.3661     N
C       0.8761   0.7146   0.0801     C
O       0.8772   0.7063   0.5514     O
H       0.8833   0.4016    0.328     H
O       0.8847  0.77583  0.30433     O
C       0.8864   0.7741  0.35888     C
C       0.8867   0.5261  0.22142     C
C       0.8987   0.6048  0.98063     C
C        0.901    0.785  0.46818     C
C       0.9038   0.7843  0.84384     C
C       0.9105    0.547  0.92707     C
C       0.9111   0.7876  0.52735     C
Co     0.92338  0.76763 0.625871    Co
C        0.925   0.8684  0.38552     C
O       0.9268  0.89658   0.6791     O
C       0.9316   0.6114  0.25452     C
C       0.9322    0.873  0.44024     C
H       0.9351   0.0777   0.7268     H
H       0.9382      0.3   0.0261     H
N       0.9431   0.6164  0.88498     N
H       0.9454   0.8093   0.1429     H
H       0.9461   0.9288   0.3668     H
H       0.9497   0.4777   0.2062     H
O       0.9528   0.8684  0.55287     O
H       0.9558     0.21   0.9447     H
H       0.9585   0.9368   0.4583     H
H       0.9759   0.3811   0.7374     H
C       0.9802   0.7373  0.04551     C
H       0.9808   0.4922   0.9286     H
H        0.981    0.372   0.1219     H
C       0.9908   0.6831  0.99654     C
H       0.9966   0.7909   0.8364     H
