data_I
_chemical_name_common  '/home/zhangsd/repos/MofS-CGCNN/ML/data/WS24/clean_cifs/HEBJOP'
_cell_length_a  7.34100
_cell_length_b  9.82300
_cell_length_c 13.68300
_cell_angle_alpha 90.11900
_cell_angle_beta  90.24500
_cell_angle_gamma 104.14600
_space_group_name_H-M_alt      'P 1'


loop_
_space_group_symop_operation_xyz
  'x, y, z' 

loop_
_atom_site_label
_atom_site_fract_x
_atom_site_fract_y
_atom_site_fract_z
_atom_site_type_symbol
N       0.0073   0.9452   0.4805     N
O       0.0115   0.3044   0.1139     O
H       0.0255   0.7509   0.3585     H
O       0.0445   0.1396    0.007     O
H       0.0616   0.6646   0.7711     H
C       0.0626   0.8383   0.3288     C
C        0.067   0.9608   0.3812     C
H       0.0715   0.5049    0.576     H
C       0.0748   0.2694   0.0372     C
O       0.1075   0.6545   0.7117     O
C        0.115   0.8497   0.2313     C
H       0.1153   0.7678   0.1971     H
C       0.1238   0.0882   0.3347     C
H       0.1296   0.1715   0.3683     H
H       0.1352   0.4285   0.4229     H
N       0.1648   0.9714    0.184     N
C       0.1713   0.5573     0.54     C
C       0.1726   0.0901   0.2359     C
H       0.1955   0.5449   0.0619     H
C       0.1967   0.3793    0.974     C
H       0.2118   0.1763   0.2047     H
C       0.2129   0.5091     0.45     C
Co     0.21528  0.98893   0.0291    Co
H       0.2206   0.5522   0.5606     H
H       0.2349   0.2475   0.8656     H
C       0.2437    0.519   0.0039     C
C       0.2458   0.7534   0.6745     C
C       0.2661   0.3409   0.8856     C
C       0.2833   0.6905   0.5788     C
H       0.2848   0.9707   0.8289     H
C       0.2975    0.629   0.5295     C
H       0.2987   0.4934   0.2662     H
O       0.3025   0.0164   0.8821     O
H       0.3125   0.2279   0.7071     H
O       0.3166   0.8586    0.718     O
O       0.3369    0.816   0.0452     O
C       0.3393    0.767    0.577     C
H       0.3568   0.5214   0.4162     H
C       0.3629   0.6202    0.947     C
C       0.3699   0.5807   0.4004     C
C       0.3802   0.4411   0.8284     C
C       0.4099    0.513   0.3074     C
H       0.4187   0.0472   0.8915     H
C       0.4259   0.7704   0.9783     C
C       0.4304   0.5805   0.8587     C
O       0.4316   0.1568   0.0643     O
C       0.4333    0.752   0.5264     C
H       0.4402   0.4246   0.3223     H
C        0.442    0.872   0.5285     C
C        0.443     0.28    0.711     C
O       0.4463   0.4036   0.7409     O
H       0.4682   0.9608   0.5569     H
C       0.4741   0.7351   0.3761     C
H       0.4908   0.3525   0.1798     H
H       0.4977    0.765   0.2389     H
H       0.5023    0.235   0.7611     H
H       0.5092   0.6475   0.8202     H
C       0.5144   0.8574    0.436     C
H       0.5181   0.8276   0.5552     H
O       0.5537   0.5964   0.2591     O
C        0.557     0.72    0.289     C
H       0.5598   0.5754   0.6777     H
H       0.5677   0.7678   0.3867     H
O       0.5684   0.8432   0.9357     O
C       0.5696   0.4195   0.1413     C
C       0.5741   0.2296   0.0217     C
H       0.5813   0.9528   0.1085     H
C       0.5901    0.487   0.6926     C
H        0.598   0.9361   0.4108     H
C       0.6198   0.5589   0.1716     C
C       0.6371   0.3798    0.053     C
O       0.6631    0.184   0.9548     O
H       0.6875   0.7721   0.2929     H
O       0.6975   0.9836   0.1179     O
H       0.7013   0.5066   0.7338     H
H       0.7152   0.0293   0.1711     H
C       0.7339   0.6591   0.1144     C
C       0.7563    0.481   0.9961     C
H       0.7651   0.7525   0.1344     H
Co     0.78472  0.01107   0.9709    Co
H       0.7882   0.8237   0.7953     H
C       0.8033   0.6207    0.026     C
H       0.8045   0.4551   0.9381     H
C       0.8274   0.9099   0.7641     C
N       0.8352   0.0286    0.816     N
H       0.8704   0.8285   0.6317     H
C       0.8762   0.9118   0.6653     C
H       0.8847   0.2322   0.8029     H
C        0.885   0.1503   0.7687     C
C       0.9252   0.7306   0.9628     C
C        0.933   0.0392   0.6188     C
C       0.9374   0.1617   0.6712     C
O       0.9555   0.8604    0.993     O
H       0.9745   0.2491   0.6415     H
O       0.9885   0.6956   0.8861     O
N       0.9927   0.0548   0.5195     N
