data_I
_chemical_name_common  '/home/zhangsd/repos/MofS-CGCNN/ML/data/WS24/clean_cifs/HESVOR'
_cell_length_a  7.06490
_cell_length_b  7.06490
_cell_length_c 19.77500
_cell_angle_alpha 90.00000
_cell_angle_beta  90.00000
_cell_angle_gamma 90.00000
_space_group_name_H-M_alt      'P 1'


loop_
_space_group_symop_operation_xyz
  'x, y, z' 

loop_
_atom_site_label
_atom_site_fract_x
_atom_site_fract_y
_atom_site_fract_z
_atom_site_type_symbol
C          0.0      0.0   0.0376     C
N          0.0      0.0   0.1764     N
Zn         0.0      0.0  0.27846    Zn
Zn         0.0      0.0  0.72154    Zn
N          0.0      0.0   0.8236     N
C          0.0      0.0   0.9624     C
C       0.1133   0.1133    0.144     C
C       0.1133   0.1133    0.856     C
C       0.1184   0.1184   0.0735     C
C       0.1184   0.1184   0.9265     C
O       0.1528   0.8472   0.3394     O
O       0.1528   0.8472   0.6606     O
H       0.2002   0.2002    0.051     H
H       0.2002   0.2002    0.949     H
O       0.2151   0.2151   0.2507     O
O       0.2151   0.2151   0.7493     O
C       0.2359   0.2359   0.1889     C
C       0.2359   0.2359   0.8111     C
C       0.2641   0.7359   0.3111     C
C       0.2641   0.7359   0.6889     C
O       0.2849   0.7151   0.2493     O
O       0.2849   0.7151   0.7507     O
H       0.2998   0.7002    0.449     H
H       0.2998   0.7002    0.551     H
O       0.3472   0.3472   0.1606     O
O       0.3472   0.3472   0.8394     O
C       0.3816   0.6184   0.4265     C
C       0.3816   0.6184   0.5735     C
C       0.3867   0.6133    0.356     C
C       0.3867   0.6133    0.644     C
Zn         0.5      0.5  0.22154    Zn
N          0.5      0.5   0.3236     N
C          0.5      0.5   0.4624     C
C          0.5      0.5   0.5376     C
N          0.5      0.5   0.6764     N
Zn         0.5      0.5  0.77846    Zn
C       0.6133   0.3867    0.356     C
C       0.6133   0.3867    0.644     C
C       0.6184   0.3816   0.4265     C
C       0.6184   0.3816   0.5735     C
O       0.6528   0.6528   0.1606     O
O       0.6528   0.6528   0.8394     O
H       0.7002   0.2998    0.449     H
H       0.7002   0.2998    0.551     H
O       0.7151   0.2849   0.2493     O
O       0.7151   0.2849   0.7507     O
C       0.7359   0.2641   0.3111     C
C       0.7359   0.2641   0.6889     C
C       0.7641   0.7641   0.1889     C
C       0.7641   0.7641   0.8111     C
O       0.7849   0.7849   0.2507     O
O       0.7849   0.7849   0.7493     O
H       0.7998   0.7998    0.051     H
H       0.7998   0.7998    0.949     H
O       0.8472   0.1528   0.3394     O
O       0.8472   0.1528   0.6606     O
C       0.8816   0.8816   0.0735     C
C       0.8816   0.8816   0.9265     C
C       0.8867   0.8867    0.144     C
C       0.8867   0.8867    0.856     C
