data_I
_chemical_name_common  '/home/zhangsd/repos/MofS-CGCNN/ML/data/WS24/clean_cifs/HIFGOU'
_cell_length_a  9.72800
_cell_length_b 11.67200
_cell_length_c 14.55400
_cell_angle_alpha 93.46600
_cell_angle_beta  96.36700
_cell_angle_gamma 93.17500
_space_group_name_H-M_alt      'P 1'


loop_
_space_group_symop_operation_xyz
  'x, y, z' 

loop_
_atom_site_label
_atom_site_fract_x
_atom_site_fract_y
_atom_site_fract_z
_atom_site_type_symbol
O       0.0001   0.8501   0.8919     O
C       0.0199   0.5685   0.4262     C
O       0.0292    0.092  0.90394     O
C       0.0357   0.6369   0.3449     C
H       0.0444   0.2565   0.2662     H
C       0.0568   0.7675    0.191     C
C        0.065   0.2431   0.7701     C
C       0.0692   0.8446   0.1129     C
C       0.0774   0.3099   0.6952     C
C       0.0861   0.5186   0.5815     C
C       0.1084   0.5877   0.5099     C
C       0.1318   0.1511   0.1172     C
Zn     0.13538  0.96233  0.97337    Zn
C       0.1391   0.2732   0.2663     C
H       0.1407   0.2047   0.7942     H
H        0.144   0.5306   0.6369     H
C       0.1575   0.6456   0.3043     C
H       0.1623   0.3189    0.672     H
H       0.1654   0.3653   0.3883     H
C       0.1688   0.7096   0.2279     C
O       0.1734   0.8418  0.06932     O
O       0.2042   0.0905  0.07018     O
H       0.2049   0.8517   0.7972     H
C       0.2058   0.2306   0.1931     C
H        0.209   0.7337   0.5762     H
C       0.2115   0.3398    0.339     C
C       0.2251   0.6812   0.5258     C
H       0.2285    0.722   0.4707     H
H       0.2335   0.6078   0.3287     H
H       0.2515   0.7137   0.2014     H
C       0.2785   0.9067   0.8099     C
N       0.2906   0.9696   0.8902     N
H       0.3089   0.9835   0.4669     H
H       0.3116   0.6469   0.5404     H
H       0.3256   0.1129   0.4436     H
H       0.3438    0.046   0.2942     H
C       0.3483   0.2593   0.1939     C
C       0.3537   0.3701   0.3404     C
H       0.3546   0.3425   0.5152     H
H        0.356   0.8738   0.6899     H
H       0.3646   0.4172   0.6911     H
C       0.3697   0.9193   0.7452     C
H       0.3719   0.9158   0.3025     H
C       0.3754   0.0483   0.4656     C
H       0.3801      0.1   0.6038     H
H       0.3947   0.2314   0.1455     H
C       0.3974    0.045   0.9057     C
H       0.4087   0.0904    0.961     H
C       0.4139   0.4063   0.5091     C
C       0.4154   0.9931   0.3084     C
C       0.4198   0.3284   0.2656     C
C       0.4292   0.4384   0.4199     C
H       0.4304   0.8864   0.1416     H
C       0.4479   0.0793   0.5626     C
C        0.461   0.4177   0.6823     C
N       0.4781   0.0188   0.4031     N
C       0.4796   0.9977   0.7612     C
C       0.4816   0.4635   0.5901     C
H       0.4858   0.5341   0.2691     H
H       0.4864   0.6524   0.7357     H
H        0.487   0.8549   0.4385     H
H        0.491   0.3408   0.6839     H
C       0.4945   0.0603   0.8435     C
C       0.5055   0.9397   0.1565     C
H        0.509   0.6592   0.3161     H
H        0.513   0.1451   0.5615     H
H       0.5136   0.3476   0.2643     H
H       0.5142   0.4659   0.7309     H
C       0.5184   0.5365   0.4099     C
C       0.5204   0.0023   0.2388     C
N       0.5219   0.9812   0.5969     N
C        0.539   0.5823   0.3177     C
C       0.5521   0.9207   0.4374     C
H       0.5696   0.1136   0.8584     H
C       0.5708   0.5616   0.5801     C
C       0.5802   0.6716   0.7344     C
C       0.5846   0.0069   0.6916     C
C       0.5861   0.5937   0.4909     C
H       0.5913   0.9096    0.039     H
C       0.6026    0.955   0.0943     C
H       0.6053   0.7686   0.8545     H
H       0.6199      0.9   0.3962     H
C       0.6246   0.9517   0.5344     C
H       0.6281   0.0842   0.6975     H
C       0.6303   0.0807   0.2548     C
H       0.6354   0.5828   0.3089     H
H        0.644   0.1262   0.3101     H
H       0.6454   0.6575   0.4848     H
C       0.6463   0.6299   0.6596     C
C       0.6517   0.7407   0.8061     C
H       0.6562    0.954   0.7058     H
H       0.6744   0.8871   0.5564     H
H       0.6884   0.3531   0.4596     H
H       0.6911   0.0165   0.5331     H
N       0.7094   0.0304   0.1098     N
C       0.7215   0.0933   0.1901     C
H       0.7485   0.2863   0.7986     H
H       0.7665   0.3922   0.6713     H
H       0.7715    0.278   0.5293     H
C       0.7749   0.3188   0.4742     C
C       0.7885   0.6602    0.661     C
H        0.791   0.2663   0.4238     H
C       0.7942   0.7694   0.8069     C
H       0.7951   0.1483   0.2028     H
O       0.7958   0.9095  0.92982     O
O       0.8266   0.1582  0.93068     O
C       0.8312   0.2904   0.7721     C
H       0.8346   0.6347   0.6117     H
H       0.8377   0.6811    0.328     H
C       0.8425   0.3544   0.6957     C
H        0.856   0.4694   0.3631     H
H       0.8593   0.7953   0.2058     H
C       0.8609   0.7268   0.7337     C
Zn     0.86462  0.03767  0.02663    Zn
C       0.8682   0.8489   0.8828     C
C       0.8916   0.4123   0.4901     C
C       0.9139   0.4814   0.4185     C
C       0.9226   0.6901   0.3048     C
C       0.9308   0.1554   0.8871     C
C        0.935   0.7569   0.2299     C
C       0.9432   0.2325    0.809     C
H       0.9556   0.7435   0.7338     H
C       0.9643   0.3631   0.6551     C
O       0.9708    0.908  0.09606     O
C       0.9801   0.4315   0.5738     C
O       0.9999   0.1499   0.1081     O
