data_I
_chemical_name_common  '/home/zhangsd/repos/MofS-CGCNN/ML/data/WS24/clean_cifs/HIFGUA'
_cell_length_a 10.54700
_cell_length_b 11.23504
_cell_length_c 14.59900
_cell_angle_alpha 83.99971
_cell_angle_beta  77.13200
_cell_angle_gamma 62.00596
_space_group_name_H-M_alt      'P 1'


loop_
_space_group_symop_operation_xyz
  'x, y, z' 

loop_
_atom_site_label
_atom_site_fract_x
_atom_site_fract_y
_atom_site_fract_z
_atom_site_type_symbol
O       0.0022   0.8598   0.1303     O
C        0.013   0.5558   0.5767     C
C       0.0236   0.6224   0.6543     C
C       0.0336    0.753   0.8037     C
C        0.034   0.8292   0.8827     C
H       0.0615   0.7042   0.2673     H
O       0.0709    0.139   0.0481     O
C       0.0866    0.365    0.481     C
C       0.0913   0.2614   0.1943     C
C       0.0972   0.3244   0.2687     C
C       0.1016    0.419   0.5574     C
C       0.1368   0.8292   0.1173     C
Zn     0.13718      0.0   0.9472    Zn
O        0.138   0.8598   0.8697     O
H       0.1446   0.2736   0.4679     H
C       0.1473   0.6278   0.6589     C
C       0.1501   0.6968   0.7328     C
C       0.1531   0.6968   0.2672     C
H       0.1592   0.3274   0.6785     H
H       0.1698   0.2288   0.1436     H
H       0.1812   0.3324   0.2684     H
H       0.1834   0.5856    0.387     H
C       0.2095   0.3308   0.6156     C
O       0.2099    0.861   0.0481     O
C       0.2134    0.753   0.1963     C
C       0.2249   0.6278   0.3411     C
H        0.231   0.5856    0.613     H
H       0.2343   0.7042   0.7327     H
H        0.263   0.2416   0.5895     H
H       0.2762   0.3662   0.6165     H
H       0.2823      0.0   0.7589     H
N       0.3258      0.0   0.8847     N
H       0.3432      0.0   0.2278     H
C       0.3505      0.0   0.7897     C
C       0.3527   0.7386   0.1943     C
C        0.354   0.6224   0.3457     C
H       0.3576   0.3662   0.3835     H
H        0.376      0.0   0.0119     H
H       0.3986   0.7712   0.1436     H
H        0.402      0.0   0.0684     H
C       0.4041      0.0   0.9468     C
H       0.4182   0.7264   0.4679     H
C       0.4216   0.6756   0.2687     C
C       0.4312   0.5558   0.4233     C
C        0.432      0.0   0.2005     C
C       0.4516    0.635    0.481     C
C       0.4597   0.3308   0.3844     C
C       0.4672      0.0   0.1021     C
C       0.4794    0.419   0.4426     C
C       0.4812      0.0   0.7374     C
H       0.4864   0.3324   0.7316     H
H       0.4866   0.6726   0.6785     H
H       0.4936      0.0   0.3279     H
H       0.4954   0.2416   0.4105     H
H       0.5046   0.7584   0.5895     H
H       0.5064      0.0   0.6721     H
H       0.5134   0.3274   0.3215     H
H       0.5136   0.6676   0.2684     H
C       0.5188      0.0   0.2626     C
C       0.5206    0.581   0.5574     C
C       0.5328      0.0   0.8979     C
C       0.5403   0.6692   0.6156     C
C       0.5484    0.365    0.519     C
C        0.568      0.0   0.7995     C
C       0.5688   0.4442   0.5767     C
C       0.5784   0.3244   0.7313     C
H       0.5818   0.2736   0.5321     H
C       0.5959      0.0   0.0532     C
H        0.598      0.0   0.9316     H
H       0.6014   0.2288   0.8564     H
H        0.624      0.0   0.9881     H
H       0.6424   0.6338   0.6165     H
C        0.646   0.3776   0.6543     C
C       0.6473   0.2614   0.8057     C
C       0.6495      0.0   0.2103     C
H       0.6568      0.0   0.7722     H
N       0.6742      1.0   0.1153     N
H       0.7177      0.0   0.2411     H
H       0.7238   0.6338   0.3835     H
H        0.737   0.7584   0.4105     H
H       0.7657   0.2958   0.2673     H
H        0.769   0.4144    0.387     H
C       0.7751   0.3722   0.6589     C
C       0.7866    0.247   0.8037     C
O       0.7901    0.139   0.9519     O
C       0.7905   0.6692   0.3844     C
H       0.8166   0.4144    0.613     H
H       0.8188   0.6676   0.7316     H
H       0.8302   0.7712   0.8564     H
H       0.8408   0.6726   0.3215     H
C       0.8469   0.3032   0.7328     C
C       0.8499   0.3032   0.2672     C
C       0.8527   0.3722   0.3411     C
H       0.8554   0.7264   0.5321     H
O        0.862   0.1402   0.1303     O
Zn     0.86282      0.0   0.0528    Zn
C       0.8632   0.1708   0.8827     C
C       0.8984    0.581   0.4426     C
C       0.9028   0.6756   0.7313     C
C       0.9087   0.7386   0.8057     C
C       0.9134    0.635    0.519     C
O       0.9291    0.861   0.9519     O
H       0.9385   0.2958   0.7327     H
C        0.966   0.1708   0.1173     C
C       0.9664    0.247   0.1963     C
C       0.9764   0.3776   0.3457     C
C        0.987   0.4442   0.4233     C
O       0.9978   0.1402   0.8697     O
