data_I
_chemical_name_common  '/home/zhangsd/repos/MofS-CGCNN/ML/data/WS24/clean_cifs/HIFHIP'
_cell_length_a 11.42400
_cell_length_b 15.81300
_cell_length_c 19.38655
_cell_angle_alpha 114.06887
_cell_angle_beta  90.32961
_cell_angle_gamma 90.00000
_space_group_name_H-M_alt      'P 1'


loop_
_space_group_symop_operation_xyz
  'x, y, z' 

loop_
_atom_site_label
_atom_site_fract_x
_atom_site_fract_y
_atom_site_fract_z
_atom_site_type_symbol
O          0.0   0.1506   0.2664     O
H       0.0029    0.751   0.9994     H
H       0.0161   0.9225   0.8932     H
O       0.0162  0.35064  0.29808     O
C       0.0178   0.6828   0.6896     C
C       0.0208   0.9201   0.6094     C
Pb     0.02401 0.995852 0.164724    Pb
C       0.0261   0.3947   0.6906     C
H       0.0268   0.7423   0.8018     H
H       0.0271   0.9149   0.5584     H
H        0.033    0.228   0.0256     H
H       0.0362   0.4524    0.803     H
C       0.0411   0.4966   0.4038     C
H       0.0433   0.6396    0.883     H
C       0.0472   0.2356   0.3972     C
H        0.057   0.1922   0.8994     H
C       0.0694   0.0587   0.5168     C
C       0.0792   0.4216   0.3284     C
C       0.0805   0.0354   0.4398     C
C       0.0816    0.182   0.3168     C
H        0.088   0.5535    0.654     H
C       0.0926   0.6251   0.5178     C
H       0.0967   0.9127   0.6276     H
O       0.0982   0.9827    0.283     O
C       0.1026   0.3422   0.5232     C
H       0.1074   0.2865    0.704     H
C       0.1166   0.6158   0.6794     C
C       0.1209   0.5631   0.4454     C
C       0.1257   0.3264   0.6792     C
C       0.1295   0.2898    0.447     C
H       0.1352   0.0767    0.548     H
H       0.1359   0.2899   0.6262     H
H       0.1416   0.0684   0.9694     H
H       0.1475   0.6688   0.5464     H
H       0.1478   0.6246    0.728     H
H       0.1537   0.0392   0.4204     H
O        0.155  0.08785   0.1021     O
H       0.1585   0.8638   0.7034     H
H       0.1599   0.3789   0.5562     H
H       0.1692   0.1545   0.7074     H
O       0.1765    0.431   0.3022     O
H        0.177   0.6267   0.6498     H
H       0.1772   0.3332    0.982     H
O       0.1887   0.1719   0.2996     O
H       0.1906   0.0316   0.8486     H
H       0.1935   0.5665   0.4252     H
Pb     0.19512 0.263807 0.209334    Pb
H       0.1959    0.835   0.9852     H
H       0.1967   0.3597   0.7002     H
O       0.2004   0.3228    0.109     O
H       0.2049   0.2922   0.4302     H
H       0.2142   0.3157   0.8636     H
H        0.217   0.8701   0.7786     H
C       0.2177   0.0492    0.954     C
H       0.2223   0.7448    0.861     H
C       0.2287   0.8522   0.7256     C
H       0.2294   0.1565   0.7808     H
C       0.2399   0.1414    0.728     C
O       0.2419   0.9062    0.127     O
C       0.2462   0.0263   0.8818     C
H       0.2471   0.7874    0.702     H
C       0.2515   0.3122   0.9634     C
H       0.2583   0.0768   0.7022     H
C       0.2603    0.074    0.087     C
H       0.2614   0.5473    0.824     H
C       0.2685   0.8084   0.9682     C
C       0.2737   0.3027   0.8908     C
C       0.2852   0.7554   0.8942     C
H       0.2891   0.4935    0.518     H
O        0.291   0.8459    0.258     O
C       0.2987   0.0456   0.0078     C
C       0.3048   0.2921   0.0804     C
H       0.3128   0.4082   0.3898     H
H       0.3174    0.851   0.6012     H
H       0.3217   0.1452   0.6058     H
H       0.3221   0.4538   0.7734     H
H       0.3257   0.9601   0.5212     H
C       0.3277    0.294   0.0126     C
C       0.3277   0.9073   0.7142     C
H        0.329   0.2284    0.514     H
Pb     0.33087 0.997832 0.256504    Pb
C       0.3346   0.5186   0.8032     C
C       0.3376   0.1979   0.7182     C
O       0.3402   0.0868    0.139     O
C       0.3464   0.8841    0.105     C
C       0.3584   0.9943   0.8556     C
C       0.3595   0.8935    0.642     C
C        0.362    0.823   0.0194     C
C       0.3629    0.472   0.4988     C
C       0.3667   0.1858   0.6456     C
H       0.3764   0.9502   0.4016     H
C       0.3773   0.4198   0.4218     C
O       0.3776   0.2701   0.1148     O
H       0.3777   0.1914    0.389     H
C       0.3814   0.2744   0.8568     C
C       0.3841   0.5632   0.7542     C
H       0.3846   0.4492   0.6578     H
H       0.3886   0.5265   0.8436     H
C        0.391   0.9705   0.7752     C
C       0.3925   0.7163   0.8658     C
C       0.4013   0.9431   0.5034     C
C       0.4019   0.5121   0.6778     C
C       0.4046   0.2603   0.7776     C
C       0.4054   0.2117   0.4978     C
O       0.4055  0.29404  0.26988     O
C       0.4105   0.0146   0.9818     C
C       0.4106   0.6569   0.7828     C
C        0.431   0.9357   0.4308     C
O       0.4326  0.90432  0.14484     O
C       0.4346   0.1886   0.4224     C
C       0.4402   0.9903   0.9086     C
C       0.4437    0.264   0.9736     C
C       0.4444   0.5497    0.629     C
C       0.4547   0.6974   0.7364     C
C       0.4551    0.942   0.6272     C
C       0.4603   0.2314   0.6288     C
C       0.4606   0.4925   0.5478     C
H       0.4663   0.0105   0.0156     H
C       0.4679   0.2583   0.9018     C
H       0.4691   0.7377   0.6106     H
C       0.4697   0.7863   0.9926     C
H       0.4724   0.7603   0.7574     H
C       0.4731   0.6453   0.6586     C
C       0.4824   0.9256   0.5482     C
C        0.484   0.7328   0.9168     C
C       0.4846    0.018   0.7608     C
C       0.4859   0.3847   0.3918     C
C       0.4915   0.2098   0.5492     C
C       0.4944    0.308   0.7626     C
C       0.4965   0.3238   0.3106     C
O          0.5   0.1158   0.2664     O
H       0.5029   0.2484   0.9994     H
H       0.5161   0.9707   0.8932     H
O       0.5162  0.94744  0.29808     O
C       0.5178   0.0068   0.6896     C
C       0.5208   0.6893   0.6094     C
Pb     0.52401 0.168872 0.164724    Pb
C       0.5261   0.2959   0.6906     C
H       0.5268   0.0595   0.8018     H
H       0.5271   0.6435   0.5584     H
H        0.533   0.7976   0.0256     H
H       0.5362   0.3506    0.803     H
C       0.5411   0.9072   0.4038     C
H       0.5433   0.2434    0.883     H
C       0.5472   0.1616   0.3972     C
H        0.557   0.7072   0.8994     H
C       0.5694   0.4581   0.5168     C
C       0.5792   0.9068   0.3284     C
C       0.5805   0.4044   0.4398     C
C       0.5816   0.1348   0.3168     C
H        0.588   0.1005    0.654     H
C       0.5926   0.8927   0.5178     C
H       0.5967   0.7149   0.6276     H
O       0.5982   0.3003    0.283     O
C       0.6026    0.181   0.5232     C
H       0.6074   0.4175    0.704     H
C       0.6166   0.0636   0.6794     C
C       0.6209   0.8823   0.4454     C
C       0.6257   0.3528   0.6792     C
C       0.6295   0.1572    0.447     C
H       0.6352   0.4713    0.548     H
H       0.6359   0.3363   0.6262     H
H       0.6416    0.901   0.9694     H
H       0.6475   0.8776   0.5464     H
H       0.6478   0.1034    0.728     H
H       0.6537   0.3812   0.4204     H
O        0.655  0.01425   0.1021     O
H       0.6585   0.8396   0.7034     H
H       0.6599   0.1773   0.5562     H
H       0.6692   0.5529   0.7074     H
O       0.6765   0.8712   0.3022     O
H        0.677   0.0231   0.6498     H
H       0.6772   0.6488    0.982     H
O       0.6887   0.1277   0.2996     O
H       0.6906    0.817   0.8486     H
H       0.6935   0.8587   0.4252     H
Pb     0.69512 0.945527 0.209334    Pb
H       0.6959   0.1502   0.9852     H
H       0.6967   0.3405   0.7002     H
O       0.7004   0.7862    0.109     O
H       0.7049    0.138   0.4302     H
H       0.7142   0.5479   0.8636     H
H        0.717   0.9085   0.7786     H
C       0.7177   0.9048    0.954     C
H       0.7223   0.1162    0.861     H
C       0.7287   0.8734   0.7256     C
H       0.7294   0.6243   0.7808     H
C       0.7399   0.5866    0.728     C
O       0.7419   0.2208    0.127     O
C       0.7462   0.8555   0.8818     C
H       0.7471   0.9146    0.702     H
C       0.7515   0.6512   0.9634     C
H       0.7583   0.6254   0.7022     H
C       0.7603    0.013    0.087     C
H       0.7614   0.2767    0.824     H
C       0.7685   0.1598   0.9682     C
C       0.7737   0.5881   0.8908     C
C       0.7852   0.1388   0.8942     C
H       0.7891   0.0245    0.518     H
O        0.791   0.4121    0.258     O
C       0.7987   0.9622   0.0078     C
C       0.8048   0.7883   0.0804     C
H       0.8128   0.9816   0.3898     H
H       0.8174   0.7502   0.6012     H
H       0.8217   0.4606   0.6058     H
H       0.8221   0.3196   0.7734     H
H       0.8257   0.5611   0.5212     H
C       0.8277   0.7186   0.0126     C
C       0.8277   0.8069   0.7142     C
H        0.829   0.2856    0.514     H
Pb     0.83087 0.258672 0.256504    Pb
C       0.8346   0.2846   0.8032     C
C       0.8376   0.5203   0.7182     C
O       0.8402   0.0522    0.139     O
C       0.8464   0.2209    0.105     C
C       0.8584   0.8613   0.8556     C
C       0.8595   0.7485    0.642     C
C        0.862   0.1964   0.0194     C
C       0.8629   0.0268   0.4988     C
C       0.8667   0.4598   0.6456     C
H       0.8764   0.4514   0.4016     H
C       0.8773    0.002   0.4218     C
O       0.8776   0.8447   0.1148     O
H       0.8777   0.1976    0.389     H
C       0.8814   0.5824   0.8568     C
C       0.8841    0.191   0.7542     C
H       0.8846   0.2086   0.6578     H
H       0.8886   0.3171   0.8436     H
C        0.891   0.8047   0.7752     C
C       0.8925   0.1495   0.8658     C
C       0.9013   0.5603   0.5034     C
C       0.9019   0.1657   0.6778     C
C       0.9046   0.5173   0.7776     C
C       0.9054   0.2861   0.4978     C
O       0.9055  0.97584  0.26988     O
C       0.9105   0.9672   0.9818     C
C       0.9106   0.1259   0.7828     C
C        0.931   0.4951   0.4308     C
O       0.9326  0.24052  0.14484     O
C       0.9346   0.2338   0.4224     C
C       0.9402   0.9183   0.9086     C
C       0.9437   0.7096   0.9736     C
C       0.9444   0.0793    0.629     C
C       0.9547    0.039   0.7364     C
C       0.9551   0.6852   0.6272     C
C       0.9603   0.3974   0.6288     C
C       0.9606   0.0553   0.5478     C
H       0.9663   0.0051   0.0156     H
C       0.9679   0.6435   0.9018     C
H       0.9691   0.8729   0.6106     H
C       0.9697   0.2063   0.9926     C
H       0.9724   0.9971   0.7574     H
C       0.9731   0.0133   0.6586     C
C       0.9824   0.6226   0.5482     C
C        0.984    0.184   0.9168     C
C       0.9846   0.7428   0.7608     C
C       0.9859   0.0071   0.3918     C
C       0.9915   0.3394   0.5492     C
C       0.9944   0.4546   0.7626     C
C       0.9965   0.9868   0.3106     C
