data_I
_chemical_name_common  '/home/zhangsd/repos/MofS-CGCNN/ML/data/WS24/clean_cifs/HIFHAH'
_cell_length_a  9.30200
_cell_length_b 13.88700
_cell_length_c 32.64900
_cell_angle_alpha 90.00000
_cell_angle_beta  90.00000
_cell_angle_gamma 90.00000
_space_group_name_H-M_alt      'P 1'


loop_
_space_group_symop_operation_xyz
  'x, y, z' 

loop_
_atom_site_label
_atom_site_fract_x
_atom_site_fract_y
_atom_site_fract_z
_atom_site_type_symbol
C       0.0077   0.4259  0.69605     C
C       0.0077   0.9259  0.80395     C
C       0.0082   0.2136  0.59793     C
C       0.0082   0.7136  0.90207     C
O       0.0152  0.40137  0.45797     O
O       0.0152  0.90137  0.04203     O
H       0.0153   0.2606   0.0725     H
H       0.0153   0.7606   0.4275     H
C       0.0161   0.2837  0.17144     C
C       0.0161   0.7837  0.32856     C
H       0.0261   0.2936   0.9458     H
H       0.0261   0.7936   0.5542     H
H       0.0375   0.3384   0.3855     H
H       0.0375   0.8384   0.1145     H
H       0.0405   0.2118   0.8221     H
H       0.0405   0.7118   0.6779     H
H       0.0453   0.3958   0.6719     H
H       0.0453   0.8958   0.8281     H
C       0.0476   0.2452  0.13294     C
C       0.0476   0.7452  0.36706     C
C        0.053   0.1433  0.87621     C
C        0.053   0.6433  0.62379     C
H       0.0567   0.0232   0.1884     H
H       0.0567   0.5232   0.3116     H
H       0.0635   0.3983   0.9313     H
H       0.0635   0.8983   0.5687     H
C       0.0719   0.1472  0.22109     C
C       0.0719   0.6472  0.27891     C
C        0.074   0.1359  0.67344     C
C        0.074   0.6359  0.82656     C
C        0.081    0.245  0.20966     C
C        0.081    0.745  0.29034     C
H       0.0854    0.452   0.7119     H
H       0.0854    0.952   0.7881     H
H       0.0901   0.0683   0.3384     H
H       0.0901   0.5683   0.1616     H
O       0.0925  0.09153  0.52922     O
O       0.0925  0.59153  0.97078     O
C        0.093   0.0575  0.94274     C
C        0.093   0.5575  0.55726     C
H       0.0955   0.1087   0.6987     H
H       0.0955   0.6087   0.8013     H
C       0.0982   0.1349  0.59999     C
C       0.0982   0.6349  0.90001     C
C       0.1003   0.1739  0.83825     C
C       0.1003   0.6739  0.66175     C
C       0.1018   0.3401  0.94283     C
C       0.1018   0.8401  0.55717     C
H       0.1066   0.1913   0.1309     H
H       0.1066   0.6913   0.3691     H
C       0.1317   0.0964  0.63819     C
C       0.1317   0.5964  0.86181     C
H       0.1335   0.0558   0.2652     H
H       0.1335   0.5558   0.2348     H
C       0.1367   0.1204  0.25773     C
C       0.1367   0.6204  0.24227     C
C       0.1395   0.0854  0.90071     C
C       0.1395   0.5854  0.59929     C
H        0.149   0.3928   0.7852     H
H        0.149   0.8928   0.7148     H
C       0.1504   0.3094  0.23592     C
C       0.1504   0.8094  0.26408     C
H       0.1508   0.2263   0.0054     H
H       0.1508   0.7263   0.4946     H
H       0.1555   0.3737   0.2282     H
H       0.1555   0.8737   0.2718     H
C       0.1601   0.0905  0.56193     C
C       0.1601   0.5905  0.93807     C
N       0.1657  0.36111  0.98374     N
N       0.1657  0.86111  0.51626     N
O       0.1691  0.49468  0.53937     O
O       0.1691  0.99468  0.96063     O
H       0.1704   0.0141   0.4012     H
H       0.1704   0.5141   0.0988     H
H       0.1747   0.3148    0.925     H
H       0.1747   0.8148    0.575     H
C       0.1797   0.0879   0.3479     C
C       0.1797   0.5879   0.1521     C
H        0.186   0.3318   0.8242     H
H        0.186   0.8318   0.6758     H
Zn      0.1864  0.46751 0.481253    Zn
Zn      0.1864  0.96751 0.018747    Zn
H       0.1933   0.0438     0.64     H
H       0.1933   0.5438     0.86     H
H        0.201   0.2476   0.4845     H
H        0.201   0.7476   0.0155     H
H        0.202   0.4058    0.307     H
H        0.202   0.9058    0.193     H
C       0.2065    0.185  0.28405     C
C       0.2065    0.685  0.21595     C
C       0.2121   0.2825  0.27287     C
C       0.2121   0.7825  0.22713     C
O       0.2173  0.04986  0.06608     O
O       0.2173  0.54986  0.43392     O
C       0.2244   0.3603  0.79978     C
C       0.2244   0.8603  0.70022     C
C       0.2258   0.2732  0.00208     C
C       0.2258   0.7732  0.49792     C
C       0.2272   0.0555  0.38581     C
C       0.2272   0.5555  0.11419     C
H       0.2333   0.2882   0.5283     H
H       0.2333   0.7882   0.9717     H
C       0.2368   0.1488  0.82386     C
C       0.2368   0.6488  0.67614     C
C       0.2632   0.1488  0.32386     C
C       0.2632   0.6488  0.17614     C
H       0.2667   0.2882   0.0283     H
H       0.2667   0.7882   0.4717     H
C       0.2728   0.0555  0.88581     C
C       0.2728   0.5555  0.61419     C
C       0.2742   0.2732  0.50208     C
C       0.2742   0.7732  0.99792     C
C       0.2756   0.3603  0.29978     C
C       0.2756   0.8603  0.20022     C
O       0.2827  0.04986  0.56608     O
O       0.2827  0.54986  0.93392     O
C       0.2879   0.2825  0.77287     C
C       0.2879   0.7825  0.72713     C
C       0.2935    0.185  0.78405     C
C       0.2935    0.685  0.71595     C
H        0.298   0.4058    0.807     H
H        0.298   0.9058    0.693     H
H        0.299   0.2476   0.9845     H
H        0.299   0.7476   0.5155     H
H       0.3067   0.0438     0.14     H
H       0.3067   0.5438     0.36     H
Zn      0.3136  0.46751 0.981253    Zn
Zn      0.3136  0.96751 0.518747    Zn
H        0.314   0.3318   0.3242     H
H        0.314   0.8318   0.1758     H
C       0.3203   0.0879   0.8479     C
C       0.3203   0.5879   0.6521     C
H       0.3253   0.3148    0.425     H
H       0.3253   0.8148    0.075     H
H       0.3296   0.0141   0.9012     H
H       0.3296   0.5141   0.5988     H
O       0.3309  0.49468  0.03937     O
O       0.3309  0.99468  0.46063     O
N       0.3343  0.36111  0.48374     N
N       0.3343  0.86111  0.01626     N
C       0.3399   0.0905  0.06193     C
C       0.3399   0.5905  0.43807     C
H       0.3445   0.3737   0.7282     H
H       0.3445   0.8737   0.7718     H
H       0.3492   0.2263   0.5054     H
H       0.3492   0.7263   0.9946     H
C       0.3496   0.3094  0.73592     C
C       0.3496   0.8094  0.76408     C
H        0.351   0.3928   0.2852     H
H        0.351   0.8928   0.2148     H
C       0.3605   0.0854  0.40071     C
C       0.3605   0.5854  0.09929     C
C       0.3633   0.1204  0.75773     C
C       0.3633   0.6204  0.74227     C
H       0.3665   0.0558   0.7652     H
H       0.3665   0.5558   0.7348     H
C       0.3683   0.0964  0.13819     C
C       0.3683   0.5964  0.36181     C
H       0.3934   0.1913   0.6309     H
H       0.3934   0.6913   0.8691     H
C       0.3982   0.3401  0.44283     C
C       0.3982   0.8401  0.05717     C
C       0.3997   0.1739  0.33825     C
C       0.3997   0.6739  0.16175     C
C       0.4018   0.1349  0.09999     C
C       0.4018   0.6349  0.40001     C
H       0.4045   0.1087   0.1987     H
H       0.4045   0.6087   0.3013     H
C        0.407   0.0575  0.44274     C
C        0.407   0.5575  0.05726     C
O       0.4075  0.09153  0.02922     O
O       0.4075  0.59153  0.47078     O
H       0.4099   0.0683   0.8384     H
H       0.4099   0.5683   0.6616     H
H       0.4146    0.452   0.2119     H
H       0.4146    0.952   0.2881     H
C        0.419    0.245  0.70966     C
C        0.419    0.745  0.79034     C
C        0.426   0.1359  0.17344     C
C        0.426   0.6359  0.32656     C
C       0.4281   0.1472  0.72109     C
C       0.4281   0.6472  0.77891     C
H       0.4365   0.3983   0.4313     H
H       0.4365   0.8983   0.0687     H
H       0.4433   0.0232   0.6884     H
H       0.4433   0.5232   0.8116     H
C        0.447   0.1433  0.37621     C
C        0.447   0.6433  0.12379     C
C       0.4524   0.2452  0.63294     C
C       0.4524   0.7452  0.86706     C
H       0.4547   0.3958   0.1719     H
H       0.4547   0.8958   0.3281     H
H       0.4595   0.2118   0.3221     H
H       0.4595   0.7118   0.1779     H
H       0.4625   0.3384   0.8855     H
H       0.4625   0.8384   0.6145     H
H       0.4739   0.2936   0.4458     H
H       0.4739   0.7936   0.0542     H
C       0.4839   0.2837  0.67144     C
C       0.4839   0.7837  0.82856     C
H       0.4847   0.2606   0.5725     H
H       0.4847   0.7606   0.9275     H
O       0.4848  0.40137  0.95797     O
O       0.4848  0.90137  0.54203     O
C       0.4918   0.2136  0.09793     C
C       0.4918   0.7136  0.40207     C
C       0.4923   0.4259  0.19605     C
C       0.4923   0.9259  0.30395     C
C       0.5077   0.0741  0.69605     C
C       0.5077   0.5741  0.80395     C
C       0.5082   0.2864  0.59793     C
C       0.5082   0.7864  0.90207     C
O       0.5152  0.09863  0.45797     O
O       0.5152  0.59863  0.04203     O
H       0.5153   0.2394   0.0725     H
H       0.5153   0.7394   0.4275     H
C       0.5161   0.2163  0.17144     C
C       0.5161   0.7163  0.32856     C
H       0.5261   0.2064   0.9458     H
H       0.5261   0.7064   0.5542     H
H       0.5375   0.1616   0.3855     H
H       0.5375   0.6616   0.1145     H
H       0.5405   0.2882   0.8221     H
H       0.5405   0.7882   0.6779     H
H       0.5453   0.1042   0.6719     H
H       0.5453   0.6042   0.8281     H
C       0.5476   0.2548  0.13294     C
C       0.5476   0.7548  0.36706     C
C        0.553   0.3567  0.87621     C
C        0.553   0.8567  0.62379     C
H       0.5567   0.4768   0.1884     H
H       0.5567   0.9768   0.3116     H
H       0.5635   0.1017   0.9313     H
H       0.5635   0.6017   0.5687     H
C       0.5719   0.3528  0.22109     C
C       0.5719   0.8528  0.27891     C
C        0.574   0.3641  0.67344     C
C        0.574   0.8641  0.82656     C
C        0.581    0.255  0.20966     C
C        0.581    0.755  0.29034     C
H       0.5854    0.048   0.7119     H
H       0.5854    0.548   0.7881     H
H       0.5901   0.4317   0.3384     H
H       0.5901   0.9317   0.1616     H
O       0.5925  0.40847  0.52922     O
O       0.5925  0.90847  0.97078     O
C        0.593   0.4425  0.94274     C
C        0.593   0.9425  0.55726     C
H       0.5955   0.3913   0.6987     H
H       0.5955   0.8913   0.8013     H
C       0.5982   0.3651  0.59999     C
C       0.5982   0.8651  0.90001     C
C       0.6003   0.3261  0.83825     C
C       0.6003   0.8261  0.66175     C
C       0.6018   0.1599  0.94283     C
C       0.6018   0.6599  0.55717     C
H       0.6066   0.3087   0.1309     H
H       0.6066   0.8087   0.3691     H
C       0.6317   0.4036  0.63819     C
C       0.6317   0.9036  0.86181     C
H       0.6335   0.4442   0.2652     H
H       0.6335   0.9442   0.2348     H
C       0.6367   0.3796  0.25773     C
C       0.6367   0.8796  0.24227     C
C       0.6395   0.4146  0.90071     C
C       0.6395   0.9146  0.59929     C
H        0.649   0.1072   0.7852     H
H        0.649   0.6072   0.7148     H
C       0.6504   0.1906  0.23592     C
C       0.6504   0.6906  0.26408     C
H       0.6508   0.2737   0.0054     H
H       0.6508   0.7737   0.4946     H
H       0.6555   0.1263   0.2282     H
H       0.6555   0.6263   0.2718     H
C       0.6601   0.4095  0.56193     C
C       0.6601   0.9095  0.93807     C
N       0.6657  0.13889  0.98374     N
N       0.6657  0.63889  0.51626     N
O       0.6691  0.00532  0.53937     O
O       0.6691  0.50532  0.96063     O
H       0.6704   0.4859   0.4012     H
H       0.6704   0.9859   0.0988     H
H       0.6747   0.1852    0.925     H
H       0.6747   0.6852    0.575     H
C       0.6797   0.4121   0.3479     C
C       0.6797   0.9121   0.1521     C
H        0.686   0.1682   0.8242     H
H        0.686   0.6682   0.6758     H
Zn      0.6864  0.03249 0.481253    Zn
Zn      0.6864  0.53249 0.018747    Zn
H       0.6933   0.4562     0.64     H
H       0.6933   0.9562     0.86     H
H        0.701   0.2524   0.4845     H
H        0.701   0.7524   0.0155     H
H        0.702   0.0942    0.307     H
H        0.702   0.5942    0.193     H
C       0.7065    0.315  0.28405     C
C       0.7065    0.815  0.21595     C
C       0.7121   0.2175  0.27287     C
C       0.7121   0.7175  0.22713     C
O       0.7173  0.45014  0.06608     O
O       0.7173  0.95014  0.43392     O
C       0.7244   0.1397  0.79978     C
C       0.7244   0.6397  0.70022     C
C       0.7258   0.2268  0.00208     C
C       0.7258   0.7268  0.49792     C
C       0.7272   0.4445  0.38581     C
C       0.7272   0.9445  0.11419     C
H       0.7333   0.2118   0.5283     H
H       0.7333   0.7118   0.9717     H
C       0.7368   0.3512  0.82386     C
C       0.7368   0.8512  0.67614     C
C       0.7632   0.3512  0.32386     C
C       0.7632   0.8512  0.17614     C
H       0.7667   0.2118   0.0283     H
H       0.7667   0.7118   0.4717     H
C       0.7728   0.4445  0.88581     C
C       0.7728   0.9445  0.61419     C
C       0.7742   0.2268  0.50208     C
C       0.7742   0.7268  0.99792     C
C       0.7756   0.1397  0.29978     C
C       0.7756   0.6397  0.20022     C
O       0.7827  0.45014  0.56608     O
O       0.7827  0.95014  0.93392     O
C       0.7879   0.2175  0.77287     C
C       0.7879   0.7175  0.72713     C
C       0.7935    0.315  0.78405     C
C       0.7935    0.815  0.71595     C
H        0.798   0.0942    0.807     H
H        0.798   0.5942    0.693     H
H        0.799   0.2524   0.9845     H
H        0.799   0.7524   0.5155     H
H       0.8067   0.4562     0.14     H
H       0.8067   0.9562     0.36     H
Zn      0.8136  0.03249 0.981253    Zn
Zn      0.8136  0.53249 0.518747    Zn
H        0.814   0.1682   0.3242     H
H        0.814   0.6682   0.1758     H
C       0.8203   0.4121   0.8479     C
C       0.8203   0.9121   0.6521     C
H       0.8253   0.1852    0.425     H
H       0.8253   0.6852    0.075     H
H       0.8296   0.4859   0.9012     H
H       0.8296   0.9859   0.5988     H
O       0.8309  0.00532  0.03937     O
O       0.8309  0.50532  0.46063     O
N       0.8343  0.13889  0.48374     N
N       0.8343  0.63889  0.01626     N
C       0.8399   0.4095  0.06193     C
C       0.8399   0.9095  0.43807     C
H       0.8445   0.1263   0.7282     H
H       0.8445   0.6263   0.7718     H
H       0.8492   0.2737   0.5054     H
H       0.8492   0.7737   0.9946     H
C       0.8496   0.1906  0.73592     C
C       0.8496   0.6906  0.76408     C
H        0.851   0.1072   0.2852     H
H        0.851   0.6072   0.2148     H
C       0.8605   0.4146  0.40071     C
C       0.8605   0.9146  0.09929     C
C       0.8633   0.3796  0.75773     C
C       0.8633   0.8796  0.74227     C
H       0.8665   0.4442   0.7652     H
H       0.8665   0.9442   0.7348     H
C       0.8683   0.4036  0.13819     C
C       0.8683   0.9036  0.36181     C
H       0.8934   0.3087   0.6309     H
H       0.8934   0.8087   0.8691     H
C       0.8982   0.1599  0.44283     C
C       0.8982   0.6599  0.05717     C
C       0.8997   0.3261  0.33825     C
C       0.8997   0.8261  0.16175     C
C       0.9018   0.3651  0.09999     C
C       0.9018   0.8651  0.40001     C
H       0.9045   0.3913   0.1987     H
H       0.9045   0.8913   0.3013     H
C        0.907   0.4425  0.44274     C
C        0.907   0.9425  0.05726     C
O       0.9075  0.40847  0.02922     O
O       0.9075  0.90847  0.47078     O
H       0.9099   0.4317   0.8384     H
H       0.9099   0.9317   0.6616     H
H       0.9146    0.048   0.2119     H
H       0.9146    0.548   0.2881     H
C        0.919    0.255  0.70966     C
C        0.919    0.755  0.79034     C
C        0.926   0.3641  0.17344     C
C        0.926   0.8641  0.32656     C
C       0.9281   0.3528  0.72109     C
C       0.9281   0.8528  0.77891     C
H       0.9365   0.1017   0.4313     H
H       0.9365   0.6017   0.0687     H
H       0.9433   0.4768   0.6884     H
H       0.9433   0.9768   0.8116     H
C        0.947   0.3567  0.37621     C
C        0.947   0.8567  0.12379     C
C       0.9524   0.2548  0.63294     C
C       0.9524   0.7548  0.86706     C
H       0.9547   0.1042   0.1719     H
H       0.9547   0.6042   0.3281     H
H       0.9595   0.2882   0.3221     H
H       0.9595   0.7882   0.1779     H
H       0.9625   0.1616   0.8855     H
H       0.9625   0.6616   0.6145     H
H       0.9739   0.2064   0.4458     H
H       0.9739   0.7064   0.0542     H
C       0.9839   0.2163  0.67144     C
C       0.9839   0.7163  0.82856     C
H       0.9847   0.2394   0.5725     H
H       0.9847   0.7394   0.9275     H
O       0.9848  0.09863  0.95797     O
O       0.9848  0.59863  0.54203     O
C       0.9918   0.2864  0.09793     C
C       0.9918   0.7864  0.40207     C
C       0.9923   0.0741  0.19605     C
C       0.9923   0.5741  0.30395     C
