data_I
_chemical_name_common  '/home/zhangsd/repos/MofS-CGCNN/ML/data/WS24/clean_cifs/HIQKOJ'
_cell_length_a 11.31586
_cell_length_b 11.31586
_cell_length_c 18.43910
_cell_angle_alpha 88.21409
_cell_angle_beta  88.21409
_cell_angle_gamma 75.70294
_space_group_name_H-M_alt      'P 1'


loop_
_space_group_symop_operation_xyz
  'x, y, z' 

loop_
_atom_site_label
_atom_site_fract_x
_atom_site_fract_y
_atom_site_fract_z
_atom_site_type_symbol
C       0.0025   0.5695    0.938     C
H        0.004   0.6158   0.8955     H
O      0.00606  0.51706  0.31715     O
O      0.01372  0.40114  0.54336     O
O       0.0241   0.6397  0.22864     O
C        0.033    0.537   0.2528     C
O      0.03495  0.87355  0.29073     O
U     0.038542   0.3866 0.427038     U
U     0.039651 0.272593 0.636023     U
O      0.05006  0.78406  0.55501     O
O      0.05354  0.84434  0.43993     O
H       0.0608   0.4712   0.2224     H
C       0.0725   0.3807   0.0041     C
C       0.0746   0.4526   0.9426     C
C       0.0762   0.8476   0.5045     C
O      0.08276  0.26916  0.32133     O
H       0.0952   0.8818   0.9833     H
H       0.1182   0.9048   0.5167     H
C       0.1227   0.8773     0.25     C
H       0.1256   0.4214   0.9035     H
O      0.12645  0.96505  0.20927     O
O      0.13987  0.19269   0.0672     O
C       0.1517   0.2531   0.0104     C
C       0.1524   0.9238   0.9955     C
O      0.15566  0.94646  0.06007     O
O      0.16427  0.18587   0.2216     O
C       0.1666    0.215   0.2837     C
O      0.17072  0.54744   0.5912     O
O      0.17518   0.6437  0.35917     O
O      0.18587  0.16427   0.7216     O
H       0.1897   0.8103     0.25     H
O      0.19269  0.13987   0.5672     O
H       0.1931   0.2423   0.8053     H
O      0.21359  0.22483   0.4597     O
C        0.215   0.1666   0.7837     C
O      0.21594  0.94994  0.94499     O
O      0.21798   0.4535    0.405     O
O      0.21885  0.35245   0.6305     O
O      0.22483  0.21359   0.9597     O
H       0.2423   0.1931   0.3053     H
C       0.2456   0.4498    0.611     C
C       0.2471   0.5495    0.383     C
C       0.2531   0.1517   0.5104     C
O      0.26916  0.08276  0.82133     O
U     0.272593 0.039651 0.136023     U
H       0.2754   0.4382   0.1443     H
H       0.2763   0.6419   0.1476     H
C       0.3462   0.4626   0.1319     C
C       0.3468   0.5846   0.1337     C
O      0.35245  0.21885   0.1305     O
O       0.3563  0.82482  0.14083     O
H       0.3566   0.6246   0.5772     H
H       0.3581   0.7237   0.3524     H
O       0.3603   0.9759  0.27136     O
H       0.3754   0.6434   0.9228     H
H       0.3756   0.4394   0.9211     H
C       0.3773   0.4505   0.6117     C
C       0.3789   0.5491   0.3848     C
C       0.3807   0.0725   0.5041     C
H       0.3842    0.996   0.6045     H
U       0.3866 0.038542 0.927038     U
O      0.40114  0.01372  0.04336     O
C        0.414   0.5544   0.5917     C
C       0.4154   0.6532   0.3663     C
H       0.4214   0.1256   0.4035     H
C       0.4305   0.9975    0.562     C
H       0.4382   0.2754   0.6443     H
H       0.4394   0.3756   0.4211     H
C       0.4456   0.4642    0.907     C
C       0.4456    0.586   0.9083     C
C       0.4498   0.2456    0.111     C
C       0.4505   0.3773   0.1117     C
C       0.4505   0.7529    0.117     C
C       0.4509   0.6211   0.1152     C
O      0.45256  0.82928   0.9088     O
C       0.4526   0.0746   0.4426     C
O       0.4535  0.21798    0.905     O
C       0.4626   0.3462   0.6319     C
C        0.463    0.967   0.2472     C
C       0.4642   0.4456    0.407     C
H       0.4712   0.0608   0.7224     H
O      0.48294  0.99394  0.18285     O
O      0.51706  0.00606  0.81715     O
H       0.5288   0.9392   0.2776     H
C       0.5358   0.5544    0.593     C
C        0.537    0.033   0.7528     C
C       0.5374   0.6538   0.3681     C
O       0.5465  0.78202    0.095     O
C       0.5474   0.9254   0.5574     C
O      0.54744  0.17072   0.0912     O
C       0.5491   0.3789   0.8848     C
C       0.5495   0.2471    0.883     C
C       0.5495   0.6227   0.8883     C
C       0.5502   0.7544    0.889     C
C       0.5544    0.414   0.0917     C
C       0.5544   0.5358    0.093     C
H       0.5606   0.6244   0.5789     H
H       0.5618   0.7246   0.3557     H
C       0.5695   0.0025    0.438     C
H       0.5786   0.8744   0.5965     H
C       0.5846   0.3468   0.6337     C
C        0.586   0.4456   0.4083     C
O      0.59886  0.98628  0.95664     O
U       0.6134 0.961458 0.072962     U
H       0.6158    0.004   0.3955     H
C       0.6193   0.9275   0.4959     C
C       0.6211   0.4509   0.6152     C
C       0.6227   0.5495   0.3883     C
H       0.6244   0.5606   0.0789     H
H       0.6246   0.3566   0.0772     H
O       0.6397   0.0241  0.72864     O
H       0.6419   0.2763   0.6476     H
H       0.6434   0.3754   0.4228     H
O       0.6437  0.17518  0.85917     O
O      0.64755  0.78115   0.8695     O
C       0.6532   0.4154   0.8663     C
C       0.6538   0.5374   0.8681     C
H       0.7237   0.3581   0.8524     H
H       0.7246   0.5618   0.8557     H
U     0.727407 0.960349 0.863977     U
O      0.73084  0.91724  0.17867     O
C       0.7469   0.8483   0.4896     C
C       0.7529   0.4505    0.617     C
C       0.7544   0.5502    0.389     C
H       0.7577   0.8069   0.6947     H
O      0.77517  0.78641   0.0403     O
O      0.78115  0.64755   0.3695     O
O      0.78202   0.5465    0.595     O
O      0.78406  0.05006  0.05501     O
C        0.785   0.8334   0.2163     C
O      0.78641  0.77517   0.5403     O
H       0.8069   0.7577   0.1947     H
O      0.80731  0.86013   0.4328     O
H       0.8103   0.1897     0.75     H
O      0.81413  0.83573   0.2784     O
O      0.82482   0.3563  0.64083     O
O      0.82928  0.45256   0.4088     O
C       0.8334    0.785   0.7163     C
O      0.83573  0.81413   0.7784     O
O      0.84434  0.05354  0.93993     O
C       0.8476   0.0762   0.0045     C
C       0.8483   0.7469   0.9896     C
O      0.86013  0.80731   0.9328     O
O      0.87355  0.03495  0.79073     O
H       0.8744   0.5786   0.0965     H
C       0.8773   0.1227     0.75     C
H       0.8818   0.0952   0.4833     H
H       0.9048   0.1182   0.0167     H
O      0.91724  0.73084  0.67867     O
C       0.9238   0.1524   0.4955     C
C       0.9254   0.5474   0.0574     C
C       0.9275   0.6193   0.9959     C
H       0.9392   0.5288   0.7776     H
O      0.94646  0.15566  0.56007     O
O      0.94994  0.21594  0.44499     O
U     0.960349 0.727407 0.363977     U
U     0.961458   0.6134 0.572962     U
O      0.96505  0.12645  0.70927     O
C        0.967    0.463   0.7472     C
O       0.9759   0.3603  0.77136     O
O      0.98628  0.59886  0.45664     O
O      0.99394  0.48294  0.68285     O
H        0.996   0.3842   0.1045     H
C       0.9975   0.4305    0.062     C
