data_I
_chemical_name_common  '/home/zhangsd/repos/MofS-CGCNN/ML/data/WS24/clean_cifs/HIQPEE'
_cell_length_a  7.34270
_cell_length_b  8.81050
_cell_length_c  8.81050
_cell_angle_alpha 90.00000
_cell_angle_beta  90.00000
_cell_angle_gamma 90.00000
_space_group_name_H-M_alt      'P 1'


loop_
_space_group_symop_operation_xyz
  'x, y, z' 

loop_
_atom_site_label
_atom_site_fract_x
_atom_site_fract_y
_atom_site_fract_z
_atom_site_type_symbol
Co         0.0      0.0      0.0    Co
H      0.02517  0.46241  0.18245     H
H      0.02517  0.53759  0.81755     H
C      0.03793  0.35756  0.15964     C
C      0.03793  0.64244  0.84036     C
H      0.04554  0.30133  0.25142     H
H      0.04554  0.69867  0.74858     H
C      0.10873  0.07832  0.69014     C
C      0.10873  0.92168  0.30986     C
H      0.14568  0.34232  0.10193     H
H      0.14568  0.65768  0.89807     H
N      0.15638   0.0519  0.83694     N
N      0.15638   0.9481  0.16306     N
C         0.25      0.0   0.4126     C
C         0.25      0.0   0.5874     C
N      0.34362   0.0519  0.16306     N
N      0.34362   0.9481  0.83694     N
H      0.35432  0.34232  0.89807     H
H      0.35432  0.65768  0.10193     H
C      0.39127  0.07832  0.30986     C
C      0.39127  0.92168  0.69014     C
H      0.45446  0.30133  0.74858     H
H      0.45446  0.69867  0.25142     H
C      0.46207  0.35756  0.84036     C
C      0.46207  0.64244  0.15964     C
H      0.47483  0.46241  0.81755     H
H      0.47483  0.53759  0.18245     H
Co         0.5      0.0      0.0    Co
H      0.52517  0.18245  0.46241     H
H      0.52517  0.81755  0.53759     H
C      0.53793  0.15964  0.35756     C
C      0.53793  0.84036  0.64244     C
H      0.54554  0.25142  0.30133     H
H      0.54554  0.74858  0.69867     H
C      0.60873  0.30986  0.92168     C
C      0.60873  0.69014  0.07832     C
H      0.64568  0.10193  0.34232     H
H      0.64568  0.89807  0.65768     H
N      0.65638  0.16306   0.9481     N
N      0.65638  0.83694   0.0519     N
C         0.75   0.4126      0.0     C
C         0.75   0.5874      0.0     C
N      0.84362  0.16306   0.0519     N
N      0.84362  0.83694   0.9481     N
H      0.85432  0.10193  0.65768     H
H      0.85432  0.89807  0.34232     H
C      0.89127  0.30986  0.07832     C
C      0.89127  0.69014  0.92168     C
H      0.95446  0.25142  0.69867     H
H      0.95446  0.74858  0.30133     H
C      0.96207  0.15964  0.64244     C
C      0.96207  0.84036  0.35756     C
H      0.97483  0.18245  0.53759     H
H      0.97483  0.81755  0.46241     H
