data_I
_chemical_name_common  '/home/zhangsd/repos/MofS-CGCNN/ML/data/WS24/clean_cifs/HIQPII'
_cell_length_a  7.36670
_cell_length_b  8.81180
_cell_length_c  8.81180
_cell_angle_alpha 90.00000
_cell_angle_beta  90.00000
_cell_angle_gamma 90.00000
_space_group_name_H-M_alt      'P 1'


loop_
_space_group_symop_operation_xyz
  'x, y, z' 

loop_
_atom_site_label
_atom_site_fract_x
_atom_site_fract_y
_atom_site_fract_z
_atom_site_type_symbol
Zn         0.0      0.0      0.0    Zn
H      0.02137  0.46165  0.18625     H
H      0.02137  0.53835  0.81375     H
C      0.03599  0.35759  0.16087     C
C      0.03599  0.64241  0.83913     C
H      0.04514  0.29927  0.25122     H
H      0.04514  0.70073  0.74878     H
C      0.10968  0.07893  0.69011     C
C      0.10968  0.92107  0.30989     C
H      0.14336   0.3452  0.10246     H
H      0.14336   0.6548  0.89754     H
N      0.15701   0.0523  0.83689     N
N      0.15701   0.9477  0.16311     N
C         0.25      0.0  0.41262     C
C         0.25      0.0  0.58738     C
N      0.34299   0.0523  0.16311     N
N      0.34299   0.9477  0.83689     N
H      0.35664   0.3452  0.89754     H
H      0.35664   0.6548  0.10246     H
C      0.39032  0.07893  0.30989     C
C      0.39032  0.92107  0.69011     C
H      0.45486  0.29927  0.74878     H
H      0.45486  0.70073  0.25122     H
C      0.46401  0.35759  0.83913     C
C      0.46401  0.64241  0.16087     C
H      0.47863  0.46165  0.81375     H
H      0.47863  0.53835  0.18625     H
Zn         0.5      0.0      0.0    Zn
H      0.52137  0.18625  0.46165     H
H      0.52137  0.81375  0.53835     H
C      0.53599  0.16087  0.35759     C
C      0.53599  0.83913  0.64241     C
H      0.54514  0.25122  0.29927     H
H      0.54514  0.74878  0.70073     H
C      0.60968  0.30989  0.92107     C
C      0.60968  0.69011  0.07893     C
H      0.64336  0.10246   0.3452     H
H      0.64336  0.89754   0.6548     H
N      0.65701  0.16311   0.9477     N
N      0.65701  0.83689   0.0523     N
C         0.75  0.41262      0.0     C
C         0.75  0.58738      0.0     C
N      0.84299  0.16311   0.0523     N
N      0.84299  0.83689   0.9477     N
H      0.85664  0.10246   0.6548     H
H      0.85664  0.89754   0.3452     H
C      0.89032  0.30989  0.07893     C
C      0.89032  0.69011  0.92107     C
H      0.95486  0.25122  0.70073     H
H      0.95486  0.74878  0.29927     H
C      0.96401  0.16087  0.64241     C
C      0.96401  0.83913  0.35759     C
H      0.97863  0.18625  0.53835     H
H      0.97863  0.81375  0.46165     H
