data_I
_chemical_name_common  '/home/zhangsd/repos/MofS-CGCNN/ML/data/WS24/clean_cifs/HIQPAA'
_cell_length_a  9.13264
_cell_length_b  9.13264
_cell_length_c 23.09972
_cell_angle_alpha 90.00000
_cell_angle_beta  90.00000
_cell_angle_gamma 120.00000
_space_group_name_H-M_alt      'P 1'


loop_
_space_group_symop_operation_xyz
  'x, y, z' 

loop_
_atom_site_label
_atom_site_fract_x
_atom_site_fract_y
_atom_site_fract_z
_atom_site_type_symbol
C          0.0 0.3204172 0.16666663     C
C          0.0 0.4890432 0.16666663     C
C          0.0 0.5109568 0.6666667     C
C          0.0 0.6795828 0.6666667     C
N     0.01129187 0.28744387 0.6958493     N
N     0.01129187 0.723848 0.13748403     N
C     0.01827063 0.43256123 0.7138851     C
C     0.01827063 0.5857094 0.11944823     C
C     0.04259178 0.49683008 0.7767404     C
C     0.04259178 0.5457617 0.05659293     C
H     0.05418325 0.4773798 0.53437093     H
H     0.05418325 0.57680345 0.2989624     H
H     0.05732017 0.4498966 0.05607693     H
H     0.05732017 0.60742357 0.7772564     H
N     0.06049464 0.122022 0.97943833     N
N     0.06049464 0.93847264 0.853895     N
N     0.06152736 0.122022 0.18722833     N
N     0.06152736 0.93950536 0.646105     N
Cd    0.062748   0.1255 0.58333333    Cd
Cd    0.062748 0.937248     0.25    Cd
H     0.0632078 0.396134 0.92698102     H
H     0.0632078 0.6670738 0.90635231     H
C     0.09955336 0.282663 0.19993613     C
C     0.09955336 0.81689036 0.6333972     C
N     0.122022 0.06049464 0.02056167     N
N     0.122022 0.06152736 0.81277167     N
Cd      0.1255 0.062752 0.41666667    Cd
H     0.139663 0.4995728 0.7928319     H
H     0.139663 0.6400902 0.04050143     H
C     0.1689571 0.401032 0.9224435     C
C     0.1689571 0.7679251 0.91088983     C
H     0.1770517 0.3664293 0.88436234     H
H     0.1770517 0.8106224 0.94897099     H
C     0.18310964 0.282663 0.96673053     C
C     0.18310964 0.90044664 0.8666028     C
H     0.1893776 0.3664293 0.28230432     H
H     0.1893776 0.8229483 0.55102901     H
C     0.2320749 0.401032 0.24422316     C
C     0.2320749 0.8310429 0.58911017     C
H     0.2557873 0.5136565 0.23803825     H
H     0.2557873 0.7421308 0.59529508     H
H     0.2578692 0.5136565 0.92862841     H
H     0.2578692 0.7442127 0.90470492     H
N     0.276152 0.28744387 0.47081737     N
N     0.276152 0.98870813 0.36251597     N
C     0.282663 0.09955336 0.80006387     C
C     0.282663 0.18310964 0.03326947     C
N     0.28744387 0.01129187 0.3041507     N
N     0.28744387 0.276152 0.52918263     N
C     0.3204172      0.0 0.83333337     C
C     0.3204172 0.3204172 0.99999997     C
H     0.3329262 0.396134 0.23968564     H
H     0.3329262 0.9367922 0.59364769     H
H     0.3599098 0.4995728 0.37383477     H
H     0.3599098 0.860337 0.45949857     H
H     0.3664293 0.1770517 0.11563766     H
H     0.3664293 0.1893776 0.71769568     H
H     0.39257643 0.4498966 0.11058973     H
H     0.39257643 0.94267983 0.7227436     H
H     0.396134 0.0632078 0.07301898     H
H     0.396134 0.3329262 0.76031436     H
C     0.401032 0.1689571 0.0775565     C
C     0.401032 0.2320749 0.75577684     C
C     0.4142906 0.43256123 0.45278157     C
C     0.4142906 0.98172937 0.38055177     C
H     0.42319655 0.4773798 0.63229573     H
H     0.42319655 0.94581675 0.2010376     H
C     0.43256123 0.01827063 0.2861149     C
C     0.43256123 0.4142906 0.54721843     C
H     0.4498966 0.05732017 0.94392307     H
H     0.4498966 0.39257643 0.88941027     H
C     0.4542383 0.49683008 0.38992627     C
C     0.4542383 0.95740822 0.44340707     C
H     0.4773798 0.05418325 0.46562907     H
H     0.4773798 0.42319655 0.36770427     H
H     0.4863435 0.7421308 0.57137159     H
H     0.4863435 0.7442127 0.26196175     H
C     0.4890432      0.0 0.83333337     C
C     0.4890432 0.4890432 0.99999997     C
C     0.49683008 0.04259178 0.2232596     C
C     0.49683008 0.4542383 0.61007373     C
H     0.4995728 0.139663 0.2071681     H
H     0.4995728 0.3599098 0.62616523     H
H     0.5004272 0.6400902 0.12616523     H
H     0.5004272 0.860337 0.7071681     H
C     0.50316992 0.5457617 0.11007373     C
C     0.50316992 0.95740822 0.7232596     C
C     0.5109568 0.5109568 0.50000003     C
C     0.5109568      1.0 0.3333333     C
H     0.5136565 0.2557873 0.76196175     H
H     0.5136565 0.2578692 0.07137159     H
H     0.5226202 0.57680345 0.86770427     H
H     0.5226202 0.94581675 0.96562907     H
C     0.5457617 0.04259178 0.94340707     C
C     0.5457617 0.50316992 0.88992627     C
H     0.5501034 0.60742357 0.38941027     H
H     0.5501034 0.94267983 0.44392307     H
C     0.56743877 0.5857094 0.04721843     C
C     0.56743877 0.98172937 0.7861149     C
H     0.57680345 0.05418325 0.7010376     H
H     0.57680345 0.5226202 0.13229573     H
C     0.5857094 0.01827063 0.88055177     C
C     0.5857094 0.56743877 0.95278157     C
C     0.598968 0.7679251 0.25577684     C
C     0.598968 0.8310429 0.5775565     C
H     0.603866 0.6670738 0.26031436     H
H     0.603866 0.9367922 0.57301898     H
H     0.60742357 0.05732017 0.2227436     H
H     0.60742357 0.5501034 0.61058973     H
H     0.6335707 0.8106224 0.21769568     H
H     0.6335707 0.8229483 0.61563766     H
H     0.6400902 0.139663 0.95949857     H
H     0.6400902 0.5004272 0.87383477     H
H     0.6670738 0.0632078 0.09364769     H
H     0.6670738 0.603866 0.73968564     H
C     0.6795828      0.0 0.3333333     C
C     0.6795828 0.6795828 0.50000003     C
N     0.71255613 0.723848 0.02918263     N
N     0.71255613 0.98870813 0.8041507     N
C     0.717337 0.81689036 0.53326947     C
C     0.717337 0.90044664 0.30006387     C
N     0.723848 0.01129187 0.86251597     N
N     0.723848 0.71255613 0.97081737     N
H     0.7421308 0.2557873 0.40470492     H
H     0.7421308 0.4863435 0.42862841     H
H     0.7442127 0.2578692 0.09529508     H
H     0.7442127 0.4863435 0.73803825     H
C     0.7679251 0.1689571 0.08911017     C
C     0.7679251 0.598968 0.74422316     C
H     0.8106224 0.1770517 0.05102901     H
H     0.8106224 0.6335707 0.78230432     H
C     0.81689036 0.09955336 0.3666028     C
C     0.81689036 0.717337 0.46673053     C
H     0.8229483 0.1893776 0.44897099     H
H     0.8229483 0.6335707 0.38436234     H
C     0.8310429 0.2320749 0.41088983     C
C     0.8310429 0.598968 0.4224435     C
H     0.860337 0.3599098 0.54050143     H
H     0.860337 0.5004272 0.2928319     H
Cd      0.8745 0.937252 0.91666667    Cd
N     0.877978 0.93847264 0.31277167     N
N     0.877978 0.93950536 0.52056167     N
C     0.90044664 0.18310964 0.1333972     C
C     0.90044664 0.717337 0.69993613     C
H     0.9367922 0.3329262 0.40635231     H
H     0.9367922 0.603866 0.42698102     H
Cd    0.937248 0.062748     0.75    Cd
Cd    0.937248   0.8745 0.08333333    Cd
N     0.93847264 0.06049464 0.146105     N
N     0.93847264 0.877978 0.68722833     N
N     0.93950536 0.06152736 0.353895     N
N     0.93950536 0.877978 0.47943833     N
H     0.94267983 0.39257643 0.2772564     H
H     0.94267983 0.5501034 0.55607693     H
H     0.94581675 0.42319655 0.7989624     H
H     0.94581675 0.5226202 0.03437093     H
C     0.95740822 0.4542383 0.55659293     C
C     0.95740822 0.50316992 0.2767404     C
C     0.98172937 0.4142906 0.61944823     C
C     0.98172937 0.56743877 0.2138851     C
N     0.98870813 0.276152 0.63748403     N
N     0.98870813 0.71255613 0.1958493     N
