data_I
_chemical_name_common  '/home/zhangsd/repos/MofS-CGCNN/ML/data/WS24/clean_cifs/HIQRAC'
_cell_length_a 11.65817
_cell_length_b 11.65817
_cell_length_c 11.65817
_cell_angle_alpha 109.47122
_cell_angle_beta  109.47122
_cell_angle_gamma 109.47122
_space_group_name_H-M_alt      'P 1'


loop_
_space_group_symop_operation_xyz
  'x, y, z' 

loop_
_atom_site_label
_atom_site_fract_x
_atom_site_fract_y
_atom_site_fract_z
_atom_site_type_symbol
N          0.0  0.07304  0.29684     N
C          0.0  0.11775  0.42225     C
Cu         0.0  0.17266  0.17266    Cu
C          0.0  0.23578  0.51578     C
N          0.0  0.29684  0.07304     N
C          0.0  0.42225  0.11775     C
C          0.0    0.438      0.0     C
C          0.0  0.48422  0.76422     C
C          0.0  0.51578  0.23578     C
C          0.0    0.562      0.0     C
C          0.0  0.57775  0.88225     C
N          0.0  0.70316  0.92696     N
C          0.0  0.76422  0.48422     C
Cu         0.0  0.82734  0.82734    Cu
C          0.0  0.88225  0.57775     C
N          0.0  0.92696  0.70316     N
C          0.0      1.0    0.438     C
C          0.0      1.0    0.562     C
N      0.07304  0.07304   0.7762     N
N      0.07304  0.29684      0.0     N
N      0.07304   0.7762  0.07304     N
N      0.07304      1.0  0.29684     N
C      0.11775      0.0  0.42225     C
C      0.11775  0.11775   0.6955     C
C      0.11775  0.42225      0.0     C
C      0.11775   0.6955  0.11775     C
Cu     0.17266  0.17266      0.0    Cu
Cu     0.17266      1.0  0.17266    Cu
N       0.2238  0.29684  0.29684     N
N       0.2238  0.92696  0.92696     N
C      0.23578      0.0  0.51578     C
C      0.23578  0.23578     0.72     C
C      0.23578  0.51578      0.0     C
C      0.23578     0.72  0.23578     C
C         0.28  0.51578  0.51578     C
C         0.28  0.76422  0.76422     C
N      0.29684  0.07304      1.0     N
N      0.29684   0.2238  0.29684     N
N      0.29684  0.29684   0.2238     N
N      0.29684      1.0  0.07304     N
C       0.3045  0.42225  0.42225     C
C       0.3045  0.88225  0.88225     C
C      0.42225  0.11775      1.0     C
C      0.42225   0.3045  0.42225     C
C      0.42225  0.42225   0.3045     C
C      0.42225      1.0  0.11775     C
C        0.438    0.438    0.438     C
C        0.438      1.0      1.0     C
C      0.48422      0.0  0.76422     C
C      0.48422  0.48422     0.72     C
C      0.48422     0.72  0.48422     C
C      0.48422  0.76422      1.0     C
C      0.51578      0.0  0.23578     C
C      0.51578  0.23578      0.0     C
C      0.51578     0.28  0.51578     C
C      0.51578  0.51578     0.28     C
C        0.562      0.0      0.0     C
C        0.562    0.562    0.562     C
C      0.57775  0.57775   0.6955     C
C      0.57775   0.6955  0.57775     C
C      0.57775  0.88225      1.0     C
C      0.57775      1.0  0.88225     C
C       0.6955  0.11775  0.11775     C
C       0.6955  0.57775  0.57775     C
N      0.70316  0.70316   0.7762     N
N      0.70316   0.7762  0.70316     N
N      0.70316  0.92696      1.0     N
N      0.70316      1.0  0.92696     N
C         0.72  0.23578  0.23578     C
C         0.72  0.48422  0.48422     C
C      0.76422     0.28  0.76422     C
C      0.76422  0.48422      1.0     C
C      0.76422  0.76422     0.28     C
C      0.76422      1.0  0.48422     C
N       0.7762  0.07304  0.07304     N
N       0.7762  0.70316  0.70316     N
Cu     0.82734  0.82734      0.0    Cu
Cu     0.82734      1.0  0.82734    Cu
C      0.88225   0.3045  0.88225     C
C      0.88225  0.57775      1.0     C
C      0.88225  0.88225   0.3045     C
C      0.88225      1.0  0.57775     C
N      0.92696      0.0  0.70316     N
N      0.92696   0.2238  0.92696     N
N      0.92696  0.70316      0.0     N
N      0.92696  0.92696   0.2238     N
