data_I
_chemical_name_common  '/home/zhangsd/repos/MofS-CGCNN/ML/data/WS24/clean_cifs/HISFUM'
_cell_length_a  6.06160
_cell_length_b 10.91330
_cell_length_c 12.87820
_cell_angle_alpha 72.01700
_cell_angle_beta  79.41800
_cell_angle_gamma 78.14300
_space_group_name_H-M_alt      'P 1'


loop_
_space_group_symop_operation_xyz
  'x, y, z' 

loop_
_atom_site_label
_atom_site_fract_x
_atom_site_fract_y
_atom_site_fract_z
_atom_site_type_symbol
O       0.0134    0.329   0.2922     O
C       0.0281    0.943    0.645     C
H       0.0288   0.3097   0.0868     H
C       0.0546   0.0734    0.603     C
Na      0.0864  0.47174  0.65475    Na
O       0.0911   0.3407   0.5361     O
C       0.1032   0.6877   0.4561     C
C       0.1337   0.8278   0.4016     C
H       0.1529   0.3662   0.8993     H
H       0.1531    0.877   0.6474     H
C       0.1815    0.315   0.0617     C
C       0.1908   0.0862   0.3163     C
H       0.1993   0.0951   0.5775     H
H         0.22   0.6595   0.0391     H
S      0.23315  0.25076  0.27657     S
O       0.2411   0.5779   0.2421     O
C       0.2559   0.3497   0.9492     C
O       0.2722   0.6099   0.4933     O
C        0.332   0.2889   0.1348     C
H       0.3413   0.7204   0.8514     H
C       0.3511   0.8598   0.3589     C
C       0.3723   0.6662   0.0141     C
C        0.379   0.9892   0.3158     C
O       0.4071   0.4308    0.726     O
Na      0.4081  0.42159   0.4248    Na
O       0.4143   0.2573   0.3328     O
C       0.4445   0.7024   0.9014     C
C       0.4452   0.5927   0.2115     C
H       0.4762   0.7941   0.3596     H
H       0.4774    0.989   0.7133     H
C       0.4789   0.3597   0.9117     C
C       0.5211   0.6403   0.0883     C
H       0.5226    0.011   0.2867     H
H       0.5238   0.2059   0.6404     H
C       0.5548   0.4073   0.7885     C
C       0.5555   0.2976   0.0986     C
O       0.5857   0.7427   0.6672     O
Na      0.5919  0.57841   0.5752    Na
O       0.5929   0.5692    0.274     O
C        0.621   0.0108   0.6842     C
C       0.6277   0.3338   0.9859     C
C       0.6489   0.1402   0.6411     C
H       0.6587   0.2796   0.1486     H
C        0.668   0.7111   0.8652     C
O       0.7278   0.3901   0.5067     O
C       0.7441   0.6503   0.0508     C
O       0.7589   0.4221   0.7579     O
S      0.76685  0.74924  0.72343     S
H         0.78   0.3405   0.9609     H
H       0.8007   0.9049   0.4225     H
C       0.8092   0.9138   0.6837     C
C       0.8185    0.685   0.9383     C
H       0.8469    0.123   0.3526     H
H       0.8471   0.6338   0.1007     H
C       0.8663   0.1722   0.5984     C
C       0.8968   0.3123   0.5439     C
O       0.9089   0.6593   0.4639     O
Na      0.9136  0.52826  0.34525    Na
C       0.9454   0.9266    0.397     C
H       0.9712   0.6903   0.9132     H
C       0.9719    0.057    0.355     C
O       0.9866    0.671   0.7078     O
