data_I
_chemical_name_common  '/home/zhangsd/repos/MofS-CGCNN/ML/data/WS24/clean_cifs/HIWKOO'
_cell_length_a  9.72819
_cell_length_b  9.72819
_cell_length_c 12.24900
_cell_angle_alpha 79.98308
_cell_angle_beta  79.98308
_cell_angle_gamma 81.73856
_space_group_name_H-M_alt      'P 1'


loop_
_space_group_symop_operation_xyz
  'x, y, z' 

loop_
_atom_site_label
_atom_site_fract_x
_atom_site_fract_y
_atom_site_fract_z
_atom_site_type_symbol
C      0.01175  0.27005   0.6884     C
C      0.02272  0.53872  0.44319     C
C      0.03649  0.79383  0.67244     C
C      0.04656  0.74234  0.88556     C
N      0.04964  0.33644  0.58466     N
N      0.05185  0.26221   0.0476     N
H       0.0597   0.1829   0.7112     H
N      0.06318   0.1955  0.36791     N
C       0.0957   0.6739   0.2373     C
H       0.1192     0.72   0.1647     H
N      0.13115  0.47759  0.37891     N
C      0.16714  0.54638  0.27532     C
H       0.1829   0.0597   0.2112     H
N       0.1955  0.06318  0.86791     N
C      0.20617  0.96351  0.82756     C
Mn     0.22708  0.25334    0.447    Mn
Nb    0.233111 0.766889     0.75    Nb
C      0.23769  0.53049  0.78765     C
H       0.2421   0.5071   0.2279     H
N      0.24311  0.41131  0.81599     N
Mn     0.25334  0.22708    0.947    Mn
C      0.25766  0.95344  0.61444     C
N      0.26221  0.05185   0.5476     N
C      0.27005  0.01175   0.1884     C
H         0.28   0.8808   0.3353     H
C      0.29546  0.68754  0.58372     C
C      0.31246  0.70454  0.91628     C
C       0.3261   0.9043   0.2627     C
N      0.32842  0.64868  0.49871     N
H       0.3302   0.4466    0.017     H
N      0.33644  0.04964  0.08466     N
H        0.341    0.429    0.536     H
O      0.34103  0.36035  0.04114     O
N      0.35132  0.67158  0.00129     N
O      0.36035  0.34103  0.54114     O
N      0.41131  0.24311  0.31599     N
H        0.429    0.341    0.036     H
H       0.4466   0.3302    0.517     H
C      0.45362  0.83286  0.22468     C
C      0.46128  0.97728  0.05681     C
C      0.46951  0.76231  0.71235     C
N      0.47759  0.13115  0.87891     N
H       0.4929   0.7579   0.2721     H
H       0.5071   0.2421   0.7279     H
N      0.52241  0.86885  0.12109     N
C      0.53049  0.23769  0.28765     C
C      0.53872  0.02272  0.94319     C
C      0.54638  0.16714  0.77532     C
H       0.5534   0.6698    0.483     H
H        0.571    0.659    0.964     H
N      0.58869  0.75689  0.68401     N
O      0.63965  0.65897  0.45886     O
N      0.64868  0.32842  0.99871     N
O      0.65897  0.63965  0.95886     O
H        0.659    0.571    0.464     H
N      0.66356  0.95036  0.91534     N
H       0.6698   0.5534    0.983     H
N      0.67158  0.35132  0.50129     N
C       0.6739   0.0957   0.7373     C
C      0.68754  0.29546  0.08372     C
C      0.70454  0.31246  0.41628     C
H         0.72   0.1192   0.6647     H
C      0.72995  0.98825   0.8116     C
N      0.73779  0.94815   0.4524     N
C      0.74234  0.04656  0.38556     C
Mn     0.74666  0.77292    0.053    Mn
N      0.75689  0.58869  0.18401     N
H       0.7579   0.4929   0.7721     H
C      0.76231  0.46951  0.21235     C
Nb    0.766889 0.233111     0.25    Nb
Mn     0.77292  0.74666    0.553    Mn
C      0.79383  0.03649  0.17244     C
N       0.8045  0.93682  0.13209     N
H       0.8171   0.9403   0.7888     H
C      0.83286  0.45362  0.72468     C
N      0.86885  0.52241  0.62109     N
H       0.8808     0.28   0.8353     H
C       0.9043   0.3261   0.7627     C
N      0.93682   0.8045  0.63209     N
H       0.9403   0.8171   0.2888     H
N      0.94815  0.73779   0.9524     N
N      0.95036  0.66356  0.41534     N
C      0.95344  0.25766  0.11444     C
C      0.96351  0.20617  0.32756     C
C      0.97728  0.46128  0.55681     C
C      0.98825  0.72995   0.3116     C
