data_I
_chemical_name_common  '/home/zhangsd/repos/MofS-CGCNN/ML/data/WS24/clean_cifs/HOHMIB'
_cell_length_a 19.42260
_cell_length_b 19.42260
_cell_length_c 28.94810
_cell_angle_alpha 70.39870
_cell_angle_beta  70.39870
_cell_angle_gamma 89.99990
_space_group_name_H-M_alt      'P 1'


loop_
_space_group_symop_operation_xyz
  'x, y, z' 

loop_
_atom_site_label
_atom_site_fract_x
_atom_site_fract_y
_atom_site_fract_z
_atom_site_type_symbol
C      0.00039  0.16379  0.17702     C
C      0.00039  0.65919  0.17702     C
H       0.0093    0.646   0.4388     H
H       0.0093   0.9152   0.4388     H
C      0.01432  0.03072  0.61216     C
C      0.01432  0.35712  0.61216     C
C       0.0224   0.5224      0.5     C
C       0.0224   0.9776      0.5     C
H       0.0278   0.0429   0.8334     H
H       0.0278   0.1237   0.8334     H
C      0.03814  0.00554  0.57072     C
C      0.03814  0.42374  0.57072     C
H       0.0474   0.0384   0.6274     H
H       0.0474   0.3342   0.6274     H
C       0.0536   0.0925    0.815     C
N      0.05369  0.12159  0.75682     N
H       0.0685   0.0154   0.7518     H
H       0.0685   0.2328   0.7518     H
O       0.0687   0.5687      0.5     O
O       0.0687   0.9313      0.5     O
C      0.07375  0.19205   0.1315     C
C      0.07375  0.67645   0.1315     C
H       0.0842   0.2974   0.1274     H
H       0.0842   0.5752   0.1274     H
H       0.0848   0.4481   0.5612     H
H       0.0848   0.9907   0.5612     H
H       0.0866   0.1001   0.1136     H
H       0.0866   0.7863   0.1136     H
C       0.0952   0.0644   0.7318     C
C       0.0952   0.2038   0.7318     C
H       0.0964   0.0778    0.696     H
H       0.0964   0.2262    0.696     H
C      0.10712  0.26432  0.11216     C
C      0.10712  0.62352  0.11216     C
C      0.10732  0.14832  0.10376     C
C      0.10732  0.74792  0.10376     C
C       0.1314   0.0925    0.815     C
H       0.1388   0.0429   0.8334     H
H       0.1388   0.1237   0.8334     H
C       0.1699   0.1759   0.0626     C
C       0.1699   0.7615   0.0626     C
C        0.173   0.0644   0.7318     C
C        0.173   0.2038   0.7318     C
C      0.17374  0.28814  0.07072     C
C      0.17374  0.64114  0.07072     C
H       0.1797   0.0154   0.7518     H
H       0.1797   0.2328   0.7518     H
N      0.18949  0.12159  0.75682     N
H       0.1899   0.2372    0.955     H
H       0.1899   0.8078    0.955     H
H       0.1922   0.1449    0.045     H
H       0.1922   0.8101    0.045     H
H       0.1981   0.3348   0.0612     H
H       0.1981    0.604   0.0612     H
C      0.20267  0.24477  0.04486     C
C      0.20267  0.71037  0.04486     C
H       0.2076   0.0778    0.696     H
H       0.2076   0.2262    0.696     H
H       0.2137   0.2002   0.8864     H
H       0.2137   0.9134   0.8864     H
C       0.2385   0.2325   0.9374     C
C       0.2385   0.8301   0.9374     C
C      0.25208  0.21108  0.89624     C
C      0.25208  0.89268  0.89624     C
C       0.2724   0.2724      0.0     C
C       0.2724   0.7276      0.0     C
C      0.28963  0.24753  0.95514     C
C      0.28963  0.79733  0.95514     C
O      0.29051  0.02351  0.80958     O
O      0.29051  0.16691  0.80958     O
Zn     0.29562  0.12282  0.75436    Zn
O       0.3187   0.3187      0.0     O
O       0.3187   0.6813      0.0     O
C      0.32355  0.20525   0.8685     C
C      0.32355  0.92625   0.8685     C
H       0.3252   0.0384   0.6274     H
H       0.3252   0.3342   0.6274     H
C      0.34081  0.17741  0.82298     C
C      0.34081  0.99961  0.82298     C
O      0.34131  0.07891  0.69738     O
O      0.34131  0.22371  0.69738     O
H        0.354   0.4481   0.5612     H
H        0.354   0.9907   0.5612     H
C      0.35886  0.24446  0.92928     C
C      0.35886  0.82626  0.92928     C
C      0.37352  0.03072  0.61216     C
C      0.37352  0.35712  0.61216     C
C      0.37648  0.21928  0.88784     C
C      0.37648  0.89288  0.88784     C
C      0.39114  0.00554  0.57072     C
C      0.39114  0.42374  0.57072     C
H        0.396   0.2593   0.9388     H
H        0.396   0.8019   0.9388     H
O      0.40869  0.02629  0.80262     O
O      0.40869  0.17109  0.80262     O
C      0.40919  0.07259  0.67702     C
C      0.40919  0.25039  0.67702     C
H       0.4248   0.2116   0.8726     H
H       0.4248   0.9158   0.8726     H
C      0.42645  0.04475   0.6315     C
C      0.42645  0.32375   0.6315     C
O       0.4313   0.5687      0.5     O
O       0.4313   0.9313      0.5     O
Zn     0.45438  0.12718  0.74564    Zn
O      0.45949  0.08309  0.69042     O
O      0.45949  0.22649  0.69042     O
C      0.46037  0.00247  0.54486     C
C      0.46037  0.45267  0.54486     C
C       0.4776   0.5224      0.5     C
C       0.4776   0.9776      0.5     C
C      0.49792  0.03892  0.60376     C
C      0.49792  0.35732  0.60376     C
C       0.5115   0.0175   0.5626     C
C       0.5115   0.4199   0.5626     C
H       0.5363   0.0498   0.6136     H
H       0.5363   0.3366   0.6136     H
H       0.5424   0.0238    0.804     H
H       0.5424   0.1722    0.804     H
C      0.54733  0.00523  0.45514     C
C      0.54733  0.53963  0.45514     C
H       0.5519    0.646   0.4388     H
H       0.5519   0.9152   0.4388     H
H       0.5578   0.1051    0.455     H
H       0.5578   0.4399    0.455     H
H       0.5601   0.0128    0.545     H
H       0.5601   0.4422    0.545     H
N      0.56051  0.12841  0.74318     N
H       0.5703   0.0172   0.7482     H
H       0.5703   0.2346   0.7482     H
C      0.57626  0.60886  0.42928     C
C      0.57626  0.96186  0.42928     C
C        0.577   0.0462   0.7682     C
C        0.577   0.1856   0.7682     C
C       0.5801   0.0741   0.4374     C
C       0.5801   0.4885   0.4374     C
H       0.6112   0.1263   0.6666     H
H       0.6112   0.2071   0.6666     H
C       0.6186   0.1575    0.685     C
C      0.64268  0.10168  0.39624     C
C      0.64268  0.50208  0.39624     C
C      0.64288  0.62648  0.38784     C
C      0.64288  0.98568  0.38784     C
H       0.6536   0.0238    0.804     H
H       0.6536   0.1722    0.804     H
C       0.6548   0.0462   0.7682     C
C       0.6548   0.1856   0.7682     C
H       0.6634   0.1499   0.3864     H
H       0.6634   0.4637   0.3864     H
H       0.6652   0.2593   0.9388     H
H       0.6652   0.8019   0.9388     H
H       0.6658   0.6748   0.3726     H
H       0.6658   0.9526   0.3726     H
C      0.67625  0.05795   0.3685     C
C      0.67625  0.57355   0.3685     C
O       0.6813   0.3187      0.0     O
O       0.6813   0.6813      0.0     O
H       0.6815   0.0172   0.7482     H
H       0.6815   0.2346   0.7482     H
N      0.69631  0.12841  0.74318     N
C       0.6964   0.1575    0.685     C
H       0.7026   0.2116   0.8726     H
H       0.7026   0.9158   0.8726     H
C      0.71186  0.24446  0.92928     C
C      0.71186  0.82626  0.92928     C
H       0.7222   0.1263   0.6666     H
H       0.7222   0.2071   0.6666     H
C       0.7276   0.2724      0.0     C
C       0.7276   0.7276      0.0     C
C      0.73568  0.21928  0.88784     C
C      0.73568  0.89288  0.88784     C
H       0.7407   0.3348   0.0612     H
H       0.7407    0.604   0.0612     H
C      0.74961  0.08621  0.32298     C
C      0.74961  0.59081  0.32298     C
C      0.75247  0.24477  0.04486     C
C      0.75247  0.71037  0.04486     C
C      0.75523  0.24753  0.95514     C
C      0.75523  0.79733  0.95514     C
C      0.75554  0.28814  0.07072     C
C      0.75554  0.64114  0.07072     C
H       0.7628   0.1449    0.045     H
H       0.7628   0.8101    0.045     H
H       0.7654   0.3185   0.2518     H
H       0.7654   0.4297   0.2518     H
H       0.7672   0.8203   0.2482     H
H       0.7672   0.9315   0.2482     H
C       0.7675   0.1759   0.0626     C
C       0.7675   0.7615   0.0626     C
O      0.77351  0.14991  0.30958     O
O      0.77351  0.54051  0.30958     O
H       0.7738   0.7924    0.304     H
H       0.7738   0.9036    0.304     H
O      0.77629  0.03869  0.30262     O
O      0.77629  0.65869  0.30262     O
C      0.78072  0.26432  0.11216     C
C      0.78072  0.62352  0.11216     C
H       0.7884   0.2974   0.1274     H
H       0.7884   0.5752   0.1274     H
O      0.78869  0.02629  0.80262     O
O      0.78869  0.17109  0.80262     O
C      0.78892  0.14832  0.10376     C
C      0.78892  0.74792  0.10376     C
H       0.7929   0.2778   0.3334     H
H       0.7929   0.3888   0.3334     H
C      0.79475  0.19205   0.1315     C
C      0.79475  0.67645   0.1315     C
C       0.7962    0.827   0.2682     C
C       0.7962   0.9048   0.2682     C
H       0.7998   0.1001   0.1136     H
H       0.7998   0.7863   0.1136     H
Zn     0.79998  0.12718  0.74564    Zn
C      0.80795  0.20525   0.8685     C
C      0.80795  0.92625   0.8685     C
C       0.8144   0.3452   0.2318     C
C       0.8144    0.423   0.2318     C
C      0.82259  0.16379  0.17702     C
C      0.82259  0.65919  0.17702     C
C       0.8241   0.2325   0.9374     C
C       0.8241   0.8301   0.9374     C
H       0.8278   0.3464    0.196     H
H       0.8278   0.4576    0.196     H
O      0.82891  0.21131  0.19738     O
O      0.82891  0.59131  0.19738     O
O      0.83309  0.10009  0.19042     O
O      0.83309  0.70949  0.19042     O
C      0.83621  0.17741  0.82298     C
C      0.83621  0.99961  0.82298     C
C       0.8425   0.3036    0.315     C
C       0.8425   0.3814    0.315     C
O      0.85009  0.08309  0.69042     O
O      0.85009  0.22649  0.69042     O
H       0.8501   0.0498   0.6136     H
H       0.8501   0.3366   0.6136     H
C      0.85168  0.21108  0.89624     C
C      0.85168  0.89268  0.89624     C
H       0.8551   0.2372    0.955     H
H       0.8551   0.8078    0.955     H
N      0.87159  0.30369  0.25682     N
N      0.87159  0.43949  0.25682     N
Zn     0.87282  0.20002  0.25436    Zn
Zn     0.87282  0.54562  0.25436    Zn
H       0.8737   0.2778   0.3334     H
H       0.8737   0.3888   0.3334     H
H       0.8763   0.8612   0.1666     H
H       0.8763   0.9722   0.1666     H
Zn     0.87718  0.04998  0.24564    Zn
Zn     0.87718  0.70438  0.24564    Zn
N      0.87841  0.81051  0.24318     N
N      0.87841  0.94631  0.24318     N
H       0.8949   0.0128    0.545     H
H       0.8949   0.4422    0.545     H
C      0.89832  0.03892  0.60376     C
C      0.89832  0.35732  0.60376     C
H       0.8999   0.2002   0.8864     H
H       0.8999   0.9134   0.8864     H
O      0.89991  0.02351  0.80958     O
O      0.89991  0.16691  0.80958     O
C       0.9075   0.8686    0.185     C
C       0.9075   0.9464    0.185     C
C      0.91379  0.07259  0.67702     C
C      0.91379  0.25039  0.67702     C
O      0.91691  0.14991  0.30958     O
O      0.91691  0.54051  0.30958     O
O      0.92109  0.03869  0.30262     O
O      0.92109  0.65869  0.30262     O
H       0.9222   0.7924    0.304     H
H       0.9222   0.9036    0.304     H
C       0.9259   0.0175   0.5626     C
C       0.9259   0.4199   0.5626     C
C      0.92741  0.08621  0.32298     C
C      0.92741  0.59081  0.32298     C
C       0.9356    0.827   0.2682     C
C       0.9356   0.9048   0.2682     C
C      0.94205  0.04475   0.6315     C
C      0.94205  0.32375   0.6315     C
Zn     0.95002  0.12282  0.75436    Zn
H       0.9502   0.1499   0.3864     H
H       0.9502   0.4637   0.3864     H
C       0.9538   0.3452   0.2318     C
C       0.9538    0.423   0.2318     C
C      0.95525  0.05795   0.3685     C
C      0.95525  0.57355   0.3685     C
H       0.9571   0.8612   0.1666     H
H       0.9571   0.9722   0.1666     H
C      0.96108  0.10168  0.39624     C
C      0.96108  0.50208  0.39624     C
O      0.96131  0.07891  0.69738     O
O      0.96131  0.22371  0.69738     O
H       0.9616   0.6748   0.3726     H
H       0.9616   0.9526   0.3726     H
C      0.96928  0.62648  0.38784     C
C      0.96928  0.98568  0.38784     C
O      0.97371  0.21131  0.19738     O
O      0.97371  0.59131  0.19738     O
H       0.9762   0.3464    0.196     H
H       0.9762   0.4576    0.196     H
O      0.97649  0.10009  0.19042     O
O      0.97649  0.70949  0.19042     O
C       0.9825   0.0741   0.4374     C
C       0.9825   0.4885   0.4374     C
H       0.9828   0.3185   0.2518     H
H       0.9828   0.4297   0.2518     H
H       0.9846   0.8203   0.2482     H
H       0.9846   0.9315   0.2482     H
H       0.9872   0.1051    0.455     H
H       0.9872   0.4399    0.455     H
C      0.99446  0.60886  0.42928     C
C      0.99446  0.96186  0.42928     C
C      0.99477  0.00247  0.54486     C
C      0.99477  0.45267  0.54486     C
C      0.99753  0.00523  0.45514     C
C      0.99753  0.53963  0.45514     C
