data_I
_chemical_name_common  '/home/zhangsd/repos/MofS-CGCNN/ML/data/WS24/clean_cifs/HOMQUW'
_cell_length_a 14.58610
_cell_length_b 16.41180
_cell_length_c 27.35320
_cell_angle_alpha 90.00000
_cell_angle_beta  90.00000
_cell_angle_gamma 90.35000
_space_group_name_H-M_alt      'P 1'


loop_
_space_group_symop_operation_xyz
  'x, y, z' 

loop_
_atom_site_label
_atom_site_fract_x
_atom_site_fract_y
_atom_site_fract_z
_atom_site_type_symbol
H       0.0007   0.7375   0.7443     H
W      0.00096  0.76829  0.13862     W
H        0.001    0.841   0.9227     H
O       0.0052   0.2955   0.9186     O
O       0.0082   0.9762   0.9202     O
C       0.0103   0.3146   0.6968     C
O       0.0128   0.2121   0.3491     O
H       0.0176   0.8526   0.0016     H
W      0.02142  0.30837  0.38648     W
O       0.0244   0.1381   0.8992     O
O       0.0259   0.3291   0.8236     O
H        0.027   0.3502   0.7238     H
N       0.0306   0.7224   0.9186     N
O       0.0325   0.2441   0.4445     O
N       0.0376   0.3862   0.1098     N
Cu     0.03793   0.0924  0.20836    Cu
H       0.0414   0.2632   0.7017     H
N       0.0432    0.312    0.608     N
N       0.0434   0.3515   0.6509     N
H       0.0449   0.7603   0.0041     H
O       0.0461   0.1714   0.8071     O
C       0.0466   0.3061   0.1009     C
C       0.0474   0.5971   0.9066     C
C       0.0483   0.7561    0.764     C
C       0.0502   0.8058   0.9335     C
N       0.0516   0.8277   0.7878     N
O       0.0529   0.0564    0.315     O
O       0.0565   0.0337   0.7486     O
O       0.0596   0.3625    0.328     O
C       0.0602   0.8123   0.9893     C
H       0.0621   0.9669   0.5982     H
O       0.0653   0.4038   0.9882     O
C        0.071   0.4279   0.6463     C
H       0.0726   0.5452   0.9059     H
C       0.0729   0.3691   0.5776     C
O       0.0739   0.4989   0.2675     O
H       0.0758    0.466   0.6714     H
H       0.0803   0.0553   0.5788     H
H       0.0804   0.3602   0.5443     H
O       0.0823   0.3951    0.421     O
O       0.0883   0.6607   0.6105     O
C       0.0891      0.7   0.3016     C
N       0.0904   0.6604   0.9234     N
N       0.0911   0.4404   0.5988     N
O       0.0934   0.1264   0.5074     O
H       0.0935   0.0456   0.6647     H
W      0.09538  0.04555  0.91292     W
H       0.0986   0.2755   0.1075     H
O       0.1032   0.1082   0.4071     O
H       0.1052   0.7185    0.269     H
H       0.1062   0.6117   0.7373     H
H       0.1065   0.8242   0.9181     H
H       0.1089   0.8897    0.693     H
C        0.109   0.0084   0.5939     C
O       0.1099   0.0825   0.9783     O
O       0.1107   0.4688    0.795     O
W      0.11174  0.13593   0.3397     W
O       0.1129   0.0373   0.8447     O
W       0.1151   0.3443  0.94578     W
O       0.1156   0.7763   0.1469     O
H       0.1165   0.8897   0.5227     H
O       0.1167   0.4168   0.8904     O
H       0.1185   0.9292   0.2465     H
O       0.1199    0.561   0.4406     O
H       0.1199   0.6486    0.307     H
N       0.1231   0.8383    0.329     N
N       0.1236   0.7585   0.3365     N
N       0.1251    0.717   0.7739     N
W      0.12639  0.09114  0.78325     W
H       0.1265   0.6168   0.1952     H
N       0.1309   0.0184   0.1964     N
Cu      0.1313  0.45637  0.13344    Cu
O       0.1314    0.242   0.9789     O
H       0.1325   0.5306   0.0202     H
C        0.135   0.8278   0.8108     C
W      0.13703  0.17759  0.46007     W
W      0.14091   0.3846  0.82438     W
H       0.1421   0.9338    0.044     H
O       0.1427   0.1995   0.2837     O
H       0.1432   0.6938   0.5128     H
W      0.14418  0.43055  0.29473     W
C       0.1447   0.0329   0.6434     C
O       0.1486    0.349   0.2438     O
C       0.1505   0.9503   0.2198     C
O       0.1545   0.2681   0.8756     O
N       0.1549   0.8359    0.003     N
Cu      0.1551  0.53227  0.57307    Cu
H       0.1561    0.871   0.8299     H
C       0.1575   0.6406    0.752     C
C        0.163    0.874    0.367     C
C       0.1638   0.7448   0.3791     C
O     0.16666667   0.2478   0.3857     O
O       0.1688   0.4815   0.3557     O
O       0.1691   0.1676   0.7336     O
C         0.17   0.9194   0.5282     C
C       0.1704   0.9023   0.6881     C
H       0.1717   0.9297   0.3712     H
H       0.1733    0.694   0.3933     H
W      0.17653  0.47622  0.42486     W
N       0.1795    0.977   0.5606     N
C       0.1811   0.8948    0.031     C
H        0.182   0.0818   0.6402     H
O       0.1825    0.315    0.773     O
N       0.1826   0.7604   0.8034     N
H       0.1832   0.6061   0.7773     H
C       0.1862   0.6001   0.1892     C
N       0.1881   0.8161    0.398     N
O       0.1914   0.2726     0.49     O
C       0.1947   0.5359   0.0272     C
O       0.1952   0.1506   0.0588     O
C        0.199   0.0242   0.1623     C
N       0.1996   0.9684   0.6658     N
H       0.2003   0.6819   0.6852     H
O       0.2009   0.9779   0.9212     O
C       0.2034   0.6755   0.5145     C
H       0.2049   0.0686   0.1414     H
N       0.2083   0.5303   0.1663     N
W      0.20837  0.15538  0.99763     W
O       0.2097   0.4356    0.489     O
O        0.215     0.22   0.1894     O
Cu     0.22014  0.67514   0.9545    Cu
O       0.2204   0.1308   0.9121     O
N        0.223   0.9172   0.1992     N
N       0.2264   0.7858   0.9931     N
H       0.2267   0.8031   0.2264     H
N       0.2279   0.6071   0.5391     N
C       0.2292   0.6579   0.7137     C
O       0.2311   0.0985   0.3397     O
W       0.2315  0.25716   0.2465     W
N       0.2369   0.4921   0.0602     N
N       0.2374   0.8568   0.7025     N
O        0.238   0.0315   0.7715     O
Si       0.239   0.2061   0.8733    Si
O       0.2415   0.3614   0.9538     O
N       0.2451   0.5371   0.6613     N
O       0.2452   0.1662   0.8185     O
N       0.2483   0.9098   0.5043     N
N       0.2517   0.5902   0.0043     N
O       0.2548   0.3338   0.3185     O
N       0.2549   0.9629   0.1613     N
O       0.2585   0.1386   0.4538     O
Si       0.261   0.2939   0.3733    Si
O        0.262   0.4685   0.2715     O
N       0.2626   0.6432   0.2025     N
N       0.2631   0.0079   0.5602     N
W       0.2685  0.24284   0.7465     W
O       0.2689   0.4015   0.8397     O
C       0.2708   0.8421   0.2137     C
N       0.2721   0.8929   0.0391     N
H       0.2733   0.6969   0.7264     H
N       0.2736   0.7142   0.4931     N
N        0.277   0.5828   0.6992     N
O       0.2796   0.3692   0.4121     O
Cu     0.27986  0.82486   0.4545    Cu
O        0.285     0.28   0.6894     O
O       0.2903   0.0644    0.989     O
W      0.29163  0.34462  0.49763     W
N       0.2917   0.9697   0.6663     N
H       0.2951   0.4314   0.6414     H
C       0.2966   0.8245   0.0145     C
O       0.2991   0.5221   0.4212     O
H       0.2997   0.8181   0.1852     H
N       0.3004   0.5316   0.1658     N
C        0.301   0.4758   0.6623     C
O       0.3048   0.3494   0.5588     O
C       0.3053   0.9641   0.5272     C
O       0.3086   0.2274     0.99     O
N       0.3119   0.6839    0.898     N
C       0.3138   0.8999   0.6892     C
H       0.3168   0.8939   0.2773     H
N       0.3174   0.7396   0.3034     N
O       0.3175    0.185    0.273     O
H        0.318   0.4182   0.1402     H
C       0.3189   0.6052    0.531     C
N       0.3205    0.523   0.0606     N
W      0.32347  0.02378  0.92486     W
H       0.3267    0.806   0.8933     H
H       0.3283   0.5703   0.8712     H
C       0.3296   0.5977   0.1881     C
C         0.33   0.5806   0.0282     C
O       0.3309   0.3324   0.2336     O
O       0.3312   0.0185   0.8557     O
O     0.33333333   0.2522   0.8857     O
C       0.3362   0.7552   0.8791     C
C        0.337    0.626    0.867     C
C       0.3425   0.8594    0.252     C
H       0.3439    0.629   0.3299     H
Cu      0.3449  0.96773  0.07307    Cu
N       0.3451   0.6641    0.503     N
O       0.3455   0.2319   0.3756     O
C       0.3495   0.5497   0.7198     C
O       0.3514    0.151   0.7438     O
C       0.3553   0.4671   0.1434     C
W      0.35582  0.06945  0.79473     W
H       0.3568   0.8062   0.0128     H
O       0.3573   0.3005   0.7837     O
H       0.3579   0.5662    0.544     H
W      0.35909   0.1154  0.32438     W
W      0.36297  0.32241  0.96007     W
C        0.365   0.6722   0.3108     C
H       0.3675   0.9694   0.5202     H
O       0.3686    0.258   0.4789     O
Cu      0.3687  0.04363  0.63344    Cu
N       0.3691   0.4816   0.6964     N
H       0.3735   0.8832   0.6952     H
W      0.37361  0.40886  0.28325     W
N       0.3749    0.783   0.2739     N
N       0.3764   0.7415   0.8365     N
N       0.3769   0.6617    0.829     N
H       0.3801   0.8514    0.807     H
O       0.3801    0.939   0.9406     O
H       0.3815   0.5708   0.7465     H
O       0.3833   0.0832   0.3904     O
H       0.3835   0.6103   0.0227     H
O       0.3844   0.7237   0.6469     O
W       0.3849   0.1557  0.44578     W
O       0.3871   0.4627   0.3447     O
W      0.38826  0.36407   0.8397     W
O       0.3893   0.0312    0.295     O
O       0.3901   0.4175   0.4783     O
C        0.391   0.4916   0.0939     C
H       0.3911   0.6103    0.193     H
H       0.3935   0.6758   0.4181     H
H       0.3938   0.8883   0.2373     H
H       0.3948   0.7815    0.769     H
O       0.3968   0.3918   0.9071     O
H       0.4014   0.2245   0.6075     H
W      0.40462  0.45445  0.41292     W
H       0.4065   0.4544   0.1647     H
O       0.4066   0.3736   0.0074     O
N       0.4089   0.0596   0.0988     N
N       0.4096   0.8396   0.4234     N
C       0.4109      0.8   0.8016     C
O       0.4117   0.8393   0.1105     O
O       0.4177   0.1049    0.921     O
H       0.4196   0.1398   0.0443     H
H       0.4197   0.4447   0.0788     H
H       0.4242    0.034   0.1714     H
O       0.4261   0.0011   0.7675     O
C       0.4271   0.1309   0.0776     C
H       0.4274   0.9548   0.4059     H
C        0.429   0.0721   0.1463     C
O       0.4347   0.0962   0.4882     O
H       0.4379   0.5331   0.0982     H
C       0.4398   0.6877   0.4893     C
O       0.4404   0.1375    0.828     O
O       0.4435   0.4663   0.2486     O
O       0.4471   0.4436    0.815     O
N       0.4484   0.6723   0.2878     N
C       0.4498   0.6942   0.4335     C
C       0.4517   0.7439    0.264     C
C       0.4526   0.9029   0.4066     C
C       0.4534   0.1939   0.6009     C
O       0.4539   0.3286   0.3071     O
H       0.4551   0.7397   0.5041     H
N       0.4566   0.1485   0.1509     N
N       0.4568    0.188    0.108     N
H       0.4586   0.2368   0.2017     H
Cu     0.46207   0.4076  0.70836    Cu
N       0.4624   0.1138   0.6098     N
O       0.4675   0.2559   0.9445     O
N       0.4694   0.7776   0.4186     N
H        0.473   0.1498   0.2238     H
O       0.4741   0.1709   0.3236     O
O       0.4756   0.3619   0.3992     O
W      0.47858  0.19163  0.88648     W
H       0.4824   0.6474   0.5016     H
O       0.4872   0.2879   0.8491     O
C       0.4897   0.1854   0.1968     C
O       0.4918   0.5238   0.4202     O
O       0.4948   0.2045   0.4186     O
H        0.499    0.659   0.4227     H
W      0.49904  0.73171  0.63862     W
H       0.4993   0.7625   0.2443     H
H       0.5007   0.2375   0.7557     H
W      0.50096  0.26829  0.36138     W
H        0.501    0.341   0.5773     H
O       0.5052   0.7955   0.5814     O
O       0.5082   0.4762   0.5798     O
C       0.5103   0.8146   0.8032     C
O       0.5128   0.7121   0.1509     O
H       0.5176   0.3526   0.4984     H
W      0.52142  0.80837  0.11352     W
O       0.5244   0.6381   0.6008     O
O       0.5259   0.8291   0.6764     O
H        0.527   0.8502   0.7762     H
N       0.5306   0.2224   0.5814     N
O       0.5325   0.7441   0.0555     O
N       0.5376   0.8862   0.3902     N
Cu     0.53793   0.5924  0.29164    Cu
H       0.5414   0.7632   0.7983     H
N       0.5432    0.812    0.892     N
N       0.5434   0.8515   0.8491     N
H       0.5449   0.2603   0.4959     H
O       0.5461   0.6714   0.6929     O
C       0.5466   0.8061   0.3991     C
C       0.5474   0.0971   0.5934     C
C       0.5483   0.2561    0.736     C
C       0.5502   0.3058   0.5665     C
N       0.5516   0.3277   0.7122     N
O       0.5529   0.5564    0.185     O
O       0.5565   0.5337   0.7514     O
O       0.5596   0.8625    0.172     O
C       0.5602   0.3123   0.5107     C
H       0.5621   0.4669   0.9018     H
O       0.5653   0.9038   0.5118     O
C        0.571   0.9279   0.8537     C
H       0.5726   0.0452   0.5941     H
C       0.5729   0.8691   0.9224     C
O       0.5739   0.9989   0.2325     O
H       0.5758    0.966   0.8286     H
H       0.5803   0.5553   0.9212     H
H       0.5804   0.8602   0.9557     H
O       0.5823   0.8951    0.079     O
O       0.5883   0.1607   0.8895     O
C       0.5891      0.2   0.1984     C
N       0.5904   0.1604   0.5766     N
N       0.5911   0.9404   0.9012     N
O       0.5934   0.6264   0.9926     O
H       0.5935   0.5456   0.8353     H
W      0.59538  0.54555  0.58708     W
H       0.5986   0.7755   0.3925     H
O       0.6032   0.6082   0.0929     O
H       0.6052   0.2185    0.231     H
H       0.6062   0.1117   0.7627     H
H       0.6065   0.3242   0.5819     H
H       0.6089   0.3897    0.807     H
C        0.609   0.5084   0.9061     C
O       0.6099   0.5825   0.5217     O
O       0.6107   0.9688    0.705     O
W      0.61174  0.63593   0.1603     W
O       0.6129   0.5373   0.6553     O
W       0.6151   0.8443  0.55422     W
O       0.6156   0.2763   0.3531     O
H       0.6165   0.3897   0.9773     H
O       0.6167   0.9168   0.6096     O
H       0.6185   0.4292   0.2535     H
O       0.6199    0.061   0.0594     O
H       0.6199   0.1486    0.193     H
N       0.6231   0.3383    0.171     N
N       0.6236   0.2585   0.1635     N
N       0.6251    0.217   0.7261     N
W      0.62639  0.59114  0.71675     W
H       0.6265   0.1168   0.3048     H
N       0.6309   0.5184   0.3036     N
Cu      0.6313  0.95637  0.36656    Cu
O       0.6314    0.742   0.5211     O
H       0.6325   0.0306   0.4798     H
C        0.635   0.3278   0.6892     C
W      0.63703  0.67759  0.03993     W
W      0.64091   0.8846  0.67562     W
H       0.6421   0.4338    0.456     H
O       0.6427   0.6995   0.2163     O
H       0.6432   0.1938   0.9872     H
W      0.64418  0.93055  0.20527     W
C       0.6447   0.5329   0.8566     C
O       0.6486    0.849   0.2562     O
C       0.6505   0.4503   0.2802     C
O       0.6545   0.7681   0.6244     O
N       0.6549   0.3359    0.497     N
Cu      0.6551  0.03227  0.92693    Cu
H       0.6561    0.371   0.6701     H
C       0.6575   0.1406    0.748     C
C        0.663    0.374    0.133     C
C       0.6638   0.2448   0.1209     C
O     0.66666667   0.7478   0.1143     O
O       0.6688   0.9815   0.1443     O
O       0.6691   0.6676   0.7664     O
C         0.67   0.4194   0.9718     C
C       0.6704   0.4023   0.8119     C
H       0.6717   0.4297   0.1288     H
H       0.6733    0.194   0.1067     H
W      0.67653  0.97622  0.07514     W
N       0.6795    0.477   0.9394     N
C       0.6811   0.3948    0.469     C
H        0.682   0.5818   0.8598     H
O       0.6825    0.815    0.727     O
N       0.6826   0.2604   0.6966     N
H       0.6832   0.1061   0.7227     H
C       0.6862   0.1001   0.3108     C
N       0.6881   0.3161    0.102     N
O       0.6914   0.7726     0.01     O
C       0.6947   0.0359   0.4728     C
O       0.6952   0.6506   0.4412     O
C        0.699   0.5242   0.3377     C
N       0.6996   0.4684   0.8342     N
H       0.7003   0.1819   0.8148     H
O       0.7009   0.4779   0.5788     O
C       0.7034   0.1755   0.9855     C
H       0.7049   0.5686   0.3586     H
N       0.7083   0.0303   0.3337     N
W      0.70837  0.65538  0.50237     W
O       0.7097   0.9356    0.011     O
O        0.715     0.72   0.3106     O
Cu     0.72014  0.17514   0.5455    Cu
O       0.7204   0.6308   0.5879     O
N        0.723   0.4172   0.3008     N
N       0.7264   0.2858   0.5069     N
H       0.7267   0.3031   0.2736     H
N       0.7279   0.1071   0.9609     N
C       0.7292   0.1579   0.7863     C
O       0.7311   0.5985   0.1603     O
W       0.7315  0.75716   0.2535     W
N       0.7369   0.9921   0.4398     N
N       0.7374   0.3568   0.7975     N
O        0.738   0.5315   0.7285     O
Si       0.739   0.7061   0.6267    Si
O       0.7415   0.8614   0.5462     O
N       0.7451   0.0371   0.8387     N
O       0.7452   0.6662   0.6815     O
N       0.7483   0.4098   0.9957     N
N       0.7517   0.0902   0.4957     N
O       0.7548   0.8338   0.1815     O
N       0.7549   0.4629   0.3387     N
O       0.7585   0.6386   0.0462     O
Si       0.761   0.7939   0.1267    Si
O        0.762   0.9685   0.2285     O
N       0.7626   0.1432   0.2975     N
N       0.7631   0.5079   0.9398     N
W       0.7685  0.74284   0.7535     W
O       0.7689   0.9015   0.6603     O
C       0.7708   0.3421   0.2863     C
N       0.7721   0.3929   0.4609     N
H       0.7733   0.1969   0.7736     H
N       0.7736   0.2142   0.0069     N
N        0.777   0.0828   0.8008     N
O       0.7796   0.8692   0.0879     O
Cu     0.77986  0.32486   0.0455    Cu
O        0.785     0.78   0.8106     O
O       0.7903   0.5644    0.511     O
W      0.79163  0.84462  0.00237     W
N       0.7917   0.4697   0.8337     N
H       0.7951   0.9314   0.8586     H
C       0.7966   0.3245   0.4855     C
O       0.7991   0.0221   0.0788     O
H       0.7997   0.3181   0.3148     H
N       0.8004   0.0316   0.3342     N
C        0.801   0.9758   0.8377     C
O       0.8048   0.8494   0.9412     O
C       0.8053   0.4641   0.9728     C
O       0.8086   0.7274     0.51     O
N       0.8119   0.1839    0.602     N
C       0.8138   0.3999   0.8108     C
H       0.8168   0.3939   0.2227     H
N       0.8174   0.2396   0.1966     N
O       0.8175    0.685    0.227     O
H        0.818   0.9182   0.3598     H
C       0.8189   0.1052    0.969     C
N       0.8205    0.023   0.4394     N
W      0.82347  0.52378  0.57514     W
H       0.8267    0.306   0.6067     H
H       0.8283   0.0703   0.6288     H
C       0.8296   0.0977   0.3119     C
C         0.83   0.0806   0.4718     C
O       0.8309   0.8324   0.2664     O
O       0.8312   0.5185   0.6443     O
O     0.83333333   0.7522   0.6143     O
C       0.8362   0.2552   0.6209     C
C        0.837    0.126    0.633     C
C       0.8425   0.3594    0.248     C
H       0.8439    0.129   0.1701     H
Cu      0.8449  0.46773  0.42693    Cu
N       0.8451   0.1641    0.997     N
O       0.8455   0.7319   0.1244     O
C       0.8495   0.0497   0.7802     C
O       0.8514    0.651   0.7562     O
C       0.8553   0.9671   0.3566     C
W      0.85582  0.56945  0.70527     W
H       0.8568   0.3062   0.4872     H
O       0.8573   0.8005   0.7163     O
H       0.8579   0.0662    0.956     H
W      0.85909   0.6154  0.17562     W
W      0.86297  0.82241  0.53993     W
C        0.865   0.1722   0.1892     C
H       0.8675   0.4694   0.9798     H
O       0.8686    0.758   0.0211     O
Cu      0.8687  0.54363  0.86656    Cu
N       0.8691   0.9816   0.8036     N
H       0.8735   0.3832   0.8048     H
W      0.87361  0.90886  0.21675     W
N       0.8749    0.283   0.2261     N
N       0.8764   0.2415   0.6635     N
N       0.8769   0.1617    0.671     N
H       0.8801   0.3514    0.693     H
O       0.8801    0.439   0.5594     O
H       0.8815   0.0708   0.7535     H
O       0.8833   0.5832   0.1096     O
H       0.8835   0.1103   0.4773     H
O       0.8844   0.2237   0.8531     O
W       0.8849   0.6557  0.05422     W
O       0.8871   0.9627   0.1553     O
W      0.88826  0.86407   0.6603     W
O       0.8893   0.5312    0.205     O
O       0.8901   0.9175   0.0217     O
C        0.891   0.9916   0.4061     C
H       0.8911   0.1103    0.307     H
H       0.8935   0.1758   0.0819     H
H       0.8938   0.3883   0.2627     H
H       0.8948   0.2815    0.731     H
O       0.8968   0.8918   0.5929     O
H       0.9014   0.7245   0.8925     H
W      0.90462  0.95445  0.08708     W
H       0.9065   0.9544   0.3353     H
O       0.9066   0.8736   0.4926     O
N       0.9089   0.5596   0.4012     N
N       0.9096   0.3396   0.0766     N
C       0.9109      0.3   0.6984     C
O       0.9117   0.3393   0.3895     O
O       0.9177   0.6049    0.579     O
H       0.9196   0.6398   0.4557     H
H       0.9197   0.9447   0.4212     H
H       0.9242    0.534   0.3286     H
O       0.9261   0.5011   0.7325     O
C       0.9271   0.6309   0.4224     C
H       0.9274   0.4548   0.0941     H
C        0.929   0.5721   0.3537     C
O       0.9347   0.5962   0.0118     O
H       0.9379   0.0331   0.4018     H
C       0.9398   0.1877   0.0107     C
O       0.9404   0.6375    0.672     O
O       0.9435   0.9663   0.2514     O
O       0.9471   0.9436    0.685     O
N       0.9484   0.1723   0.2122     N
C       0.9498   0.1942   0.0665     C
C       0.9517   0.2439    0.236     C
C       0.9526   0.4029   0.0934     C
C       0.9534   0.6939   0.8991     C
O       0.9539   0.8286   0.1929     O
H       0.9551   0.2397   0.9959     H
N       0.9566   0.6485   0.3491     N
N       0.9568    0.688    0.392     N
H       0.9586   0.7368   0.2983     H
Cu     0.96207   0.9076  0.79164    Cu
N       0.9624   0.6138   0.8902     N
O       0.9675   0.7559   0.5555     O
N       0.9694   0.2776   0.0814     N
H        0.973   0.6498   0.2762     H
O       0.9741   0.6709   0.1764     O
O       0.9756   0.8619   0.1008     O
W      0.97858  0.69163  0.61352     W
H       0.9824   0.1474   0.9984     H
O       0.9872   0.7879   0.6509     O
C       0.9897   0.6854   0.3032     C
O       0.9918   0.0238   0.0798     O
O       0.9948   0.7045   0.0814     O
H        0.999    0.159   0.0773     H
W      0.99904  0.23171  0.86138     W
H       0.9993   0.2625   0.2557     H
