data_I
_chemical_name_common  '/home/zhangsd/repos/MofS-CGCNN/ML/data/WS24/clean_cifs/HOMREH'
_cell_length_a 11.48700
_cell_length_b 11.59770
_cell_length_c 11.65410
_cell_angle_alpha 98.90800
_cell_angle_beta  107.60000
_cell_angle_gamma 109.72800
_space_group_name_H-M_alt      'P 1'


loop_
_space_group_symop_operation_xyz
  'x, y, z' 

loop_
_atom_site_label
_atom_site_fract_x
_atom_site_fract_y
_atom_site_fract_z
_atom_site_type_symbol
O         0.02     0.44    0.234     O
C        0.031    0.198    0.997     C
N        0.037    0.206    0.887     N
H       0.0585   0.6895    0.588     H
N        0.074    0.786    0.182     N
N        0.084      0.8    0.003     N
H       0.0958   0.1916   0.0638     H
O        0.104    0.056    0.363     O
Cu      0.1113   0.7787   0.3541    Cu
H       0.1285   0.2252   0.7653     H
H       0.1312   0.0324   0.8073     H
C        0.132    0.768    0.614     C
O        0.147     0.43    0.704     O
C        0.149     0.79    0.114     C
C        0.152    0.223    0.852     C
Cu      0.1543    0.791   0.8712    Cu
O        0.155    0.289    0.309     O
O        0.172    0.479    0.484     O
N        0.172    0.817     0.53     N
W      0.17487  0.46118  0.31892     W
N        0.193    0.826    0.728     N
C        0.199    0.113    0.867     C
H       0.2141   0.1037   0.9513     H
O        0.216    0.282    0.539     O
O        0.225    0.457    0.167     O
H       0.2251   0.3041   0.9044     H
W      0.22791  0.19772  0.40414     W
H       0.2321    0.786   0.1399     H
W      0.25776  0.45389  0.63583     W
O        0.269    0.643    0.371     O
C        0.273    0.926    0.606     C
N        0.283    0.936    0.724     N
O        0.301    0.179     0.28     O
O        0.313    0.726    0.952     O
H        0.319   0.1702   0.7635     H
H       0.3285   0.9864     0.58     H
C        0.333     0.15    0.843     C
O        0.356    0.429    0.489     O
O        0.362     0.63    0.705     O
O        0.366    0.166    0.511     O
C        0.377    0.041    0.839     C
H       0.3778   0.0119   0.9126     H
O        0.381    0.525    0.039     O
O        0.391    0.431    0.755     O
O        0.399    0.342    0.166     O
H       0.4022   0.2247   0.9089     H
O        0.406    0.541    0.385     O
O        0.417    0.886    0.384     O
W      0.41961  0.51521  0.18688     W
W        0.443  0.76307   0.4225     W
O        0.445    0.347    0.439     O
O        0.451    0.126    0.151     O
O        0.453    0.686    0.275     O
O        0.459    0.801    0.599     O
O        0.463    0.534    0.612     O
W      0.46633  0.24652   0.2637     W
H       0.4665   0.0705   0.8392     H
Si         0.5      0.5      0.5    Si
H       0.5335   0.9295   0.1608     H
W      0.53367  0.75348   0.7363     W
O        0.537    0.466    0.388     O
O        0.541    0.199    0.401     O
O        0.547    0.314    0.725     O
O        0.549    0.874    0.849     O
O        0.555    0.653    0.561     O
W        0.557  0.23693   0.5775     W
W      0.58039  0.48479  0.81312     W
O        0.583    0.114    0.616     O
O        0.594    0.459    0.615     O
H       0.5978   0.7753   0.0911     H
O        0.601    0.658    0.834     O
O        0.609    0.569    0.245     O
O        0.619    0.475    0.961     O
H       0.6222   0.9881   0.0874     H
C        0.623    0.959    0.161     C
O        0.634    0.834    0.489     O
O        0.638     0.37    0.295     O
O        0.644    0.571    0.511     O
C        0.667     0.85    0.157     C
H       0.6715   0.0136     0.42     H
H        0.681   0.8298   0.2365     H
O        0.687    0.274    0.048     O
O        0.699    0.821     0.72     O
N        0.717    0.064    0.276     N
C        0.727    0.074    0.394     C
O        0.731    0.357    0.629     O
W      0.74224  0.54611  0.36417     W
H       0.7679    0.214   0.8601     H
W      0.77209  0.80228  0.59586     W
H       0.7749   0.6959   0.0956     H
O        0.775    0.543    0.833     O
O        0.784    0.718    0.461     O
H       0.7859   0.8963   0.0487     H
C        0.801    0.887    0.133     C
N        0.807    0.174    0.272     N
W      0.82513  0.53882  0.68108     W
N        0.828    0.183     0.47     N
O        0.828    0.521    0.516     O
O        0.845    0.711    0.691     O
Cu      0.8457    0.209   0.1288    Cu
C        0.848    0.777    0.148     C
C        0.851     0.21    0.886     C
O        0.853     0.57    0.296     O
C        0.868    0.232    0.386     C
H       0.8688   0.9676   0.1927     H
H       0.8715   0.7748   0.2347     H
Cu      0.8887   0.2213   0.6459    Cu
O        0.896    0.944    0.637     O
H       0.9042   0.8084   0.9362     H
N        0.916      0.2    0.997     N
N        0.926    0.214    0.818     N
H       0.9415   0.3105    0.412     H
N        0.963    0.794    0.113     N
C        0.969    0.802    0.003     C
O         0.98     0.56    0.766     O
