data_I
_chemical_name_common  '/home/zhangsd/repos/MofS-CGCNN/ML/data/WS24/clean_cifs/HOMRAD'
_cell_length_a 13.46000
_cell_length_b 15.16900
_cell_length_c 16.74500
_cell_angle_alpha 90.00000
_cell_angle_beta  90.00000
_cell_angle_gamma 109.66000
_space_group_name_H-M_alt      'P 1'


loop_
_space_group_symop_operation_xyz
  'x, y, z' 

loop_
_atom_site_label
_atom_site_fract_x
_atom_site_fract_y
_atom_site_fract_z
_atom_site_type_symbol
Si         0.0      0.5      0.5    Si
H       0.0027   0.8443   0.3055     H
C       0.0076    0.244   0.1257     C
N       0.0092   0.8248   0.8219     N
W      0.01557  0.42455  0.69703     W
O       0.0168   0.5877   0.4517     O
O       0.0202   0.3875   0.7892     O
O       0.0243    0.531   0.5969     O
N       0.0285   0.1499   0.8257     N
C        0.029   0.1987   0.8894     C
O       0.0292   0.3853   0.9683     O
H       0.0313   0.8002   0.0841     H
H       0.0316   0.7161   0.8792     H
H       0.0545   0.9856   0.2318     H
N       0.0551   0.9971   0.3855     N
O       0.0569   0.7495   0.4565     O
H       0.0617   0.8253   0.7102     H
N       0.0626   0.1349   0.1664     N
O       0.0656   0.6679    0.666     O
H        0.066   0.9672   0.7394     H
O       0.0673   0.4971    0.288     O
C         0.07    0.929    0.221     C
C        0.073   0.8819   0.2874     C
O        0.079   0.3113   0.4226     O
O       0.0849   0.3579   0.6405     O
W      0.08562  0.39505  0.33993     W
O       0.0861    0.446   0.4806     O
H        0.087   0.0855   0.4737     H
W      0.08887  0.31018  0.53564     W
N       0.0899   0.2462   0.0817     N
C         0.09    0.858    0.759     C
O       0.1024   0.9534   0.9693     O
C       0.1144   0.0572   0.4342     C
O       0.1146   0.6632   0.3403     O
O       0.1156   0.5778   0.5043     O
H       0.1166   0.8431   0.2822     H
N       0.1229   0.2449    0.911     N
C       0.1239   0.1787   0.1068     C
C        0.125    0.945    0.745     C
N       0.1257   0.9723   0.3436     N
N       0.1272   0.1662   0.7973     N
O       0.1273   0.3423   0.2673     O
O       0.1339   0.2221   0.5523     O
H       0.1353   0.9438   0.1912     H
O       0.1375   0.5318    0.697     O
H       0.1498   0.8384   0.7744     H
H       0.1668    0.977   0.7902     H
Cu      0.1678  0.33993   0.9975    Cu
H       0.1715   0.5465   0.0432     H
W      0.17886   0.7162  0.43471     W
C       0.1797   0.2195    0.853     C
H       0.1809   0.1646   0.0862     H
W      0.18402  0.64578  0.63406     W
N       0.1911   0.9712   0.6724     N
H       0.1966   0.1024   0.6594     H
O       0.2011    0.727   0.5479     O
O        0.209   0.4714   0.3793     O
C        0.214   0.5277   0.0786     C
H       0.2169   0.4867   0.8437     H
C       0.2179   0.0539   0.6407     C
O       0.2182   0.4123   0.5279     O
N       0.2189   0.0766   0.4245     N
N       0.2207   0.4403   0.0784     N
C       0.2221   0.0192   0.3657     C
O       0.2283   0.7879   0.1979     O
N        0.229   0.9186   0.6316     N
W      0.23016  0.97009  0.98079     W
O       0.2302   0.9131   0.0768     O
O       0.2356   0.8566   0.9318     O
O       0.2387   0.6802   0.9048     O
H        0.247     0.26   0.3541     H
H        0.253     0.24   0.8541     H
O       0.2613   0.8198   0.4048     O
O       0.2644   0.6434   0.4318     O
O       0.2698   0.5869   0.5768     O
W      0.26984  0.52991  0.48079     W
N        0.271   0.5814   0.1316     N
O       0.2717   0.7121   0.6979     O
C       0.2779   0.4808   0.8657     C
N       0.2793   0.0597   0.5784     N
N       0.2811   0.4234   0.9245     N
O       0.2818   0.0877   0.0279     O
C       0.2821   0.4461   0.1407     C
H       0.2831   0.0133   0.3437     H
C        0.286   0.9723   0.5786     C
O        0.291   0.0286   0.8793     O
O       0.2989    0.773   0.0479     O
H       0.3034   0.3976   0.1594     H
N       0.3089   0.5288   0.1724     N
W      0.31598  0.85422  0.13406     W
H       0.3191   0.3354   0.5862     H
C       0.3203   0.2805    0.353     C
W      0.32114   0.7838  0.93471     W
H       0.3285   0.9535   0.5432     H
Cu      0.3322  0.16007   0.4975    Cu
H       0.3332    0.523   0.2902     H
H       0.3502   0.6616   0.2744     H
O       0.3625   0.9682    0.197     O
H       0.3647   0.5562   0.6912     H
O       0.3661   0.2779   0.0523     O
O       0.3727   0.1577   0.7673     O
N       0.3728   0.3338   0.2973     N
N       0.3743   0.5277   0.8436     N
C        0.375    0.555    0.245     C
C       0.3761   0.3213   0.6068     C
N       0.3771   0.2551    0.411     N
H       0.3834   0.6569   0.7822     H
O       0.3844   0.9222   0.0043     O
O       0.3854   0.8368   0.8403     O
C       0.3856   0.4428   0.9342     C
O       0.3976   0.5466   0.4693     O
C         0.41    0.642    0.259     C
N       0.4101   0.2538   0.5817     N
W      0.41113  0.18982  0.03564     W
H        0.413   0.4145   0.9737     H
O       0.4139    0.054   0.9806     O
W      0.41438  0.10495  0.83993     W
O       0.4151   0.1421   0.1405     O
O        0.421   0.1887   0.9226     O
C        0.427   0.6181   0.7874     C
C         0.43    0.571    0.721     C
O       0.4327   0.0029    0.788     O
H        0.434   0.5328   0.2394     H
O       0.4344   0.8321    0.166     O
N       0.4374   0.3651   0.6664     N
H       0.4383   0.6747   0.2102     H
O       0.4431   0.7505   0.9565     O
N       0.4449   0.5029   0.8855     N
H       0.4455   0.5144   0.7318     H
H       0.4684   0.7839   0.3792     H
H       0.4687   0.6998   0.5841     H
O       0.4708   0.1147   0.4683     O
C        0.471   0.3013   0.3894     C
N       0.4715   0.3501   0.3257     N
O       0.4757    0.969   0.0969     O
O       0.4798   0.1125   0.2892     O
O       0.4832   0.9123   0.9517     O
W      0.48443  0.07545  0.19703     W
N       0.4908   0.6752   0.3219     N
C       0.4924    0.256   0.6257     C
H       0.4973   0.6557   0.8055     H
Si         0.5      0.0      0.0    Si
H       0.5027   0.3443   0.1945     H
C       0.5076    0.744   0.3743     C
N       0.5092   0.3248   0.6781     N
W      0.51557  0.92455  0.80297     W
O       0.5168   0.0877   0.0483     O
O       0.5202   0.8875   0.7108     O
O       0.5243    0.031   0.9031     O
N       0.5285   0.6499   0.6743     N
C        0.529   0.6987   0.6106     C
O       0.5292   0.8853   0.5317     O
H       0.5313   0.3002   0.4159     H
H       0.5316   0.2161   0.6208     H
H       0.5545   0.4856   0.2682     H
N       0.5551   0.4971   0.1145     N
O       0.5569   0.2495   0.0435     O
H       0.5617   0.3253   0.7898     H
N       0.5626   0.6349   0.3336     N
O       0.5656   0.1679    0.834     O
H        0.566   0.4672   0.7606     H
O       0.5673   0.9971    0.212     O
C         0.57    0.429    0.279     C
C        0.573   0.3819   0.2126     C
O        0.579   0.8113   0.0774     O
O       0.5849   0.8579   0.8595     O
W      0.58562  0.89505  0.16007     W
O       0.5861    0.946   0.0194     O
H        0.587   0.5855   0.0263     H
W      0.58887  0.81018  0.96436     W
N       0.5899   0.7462   0.4183     N
C         0.59    0.358    0.741     C
O       0.6024   0.4534   0.5307     O
C       0.6144   0.5572   0.0658     C
O       0.6146   0.1632   0.1597     O
O       0.6156   0.0778   0.9957     O
H       0.6166   0.3431   0.2178     H
N       0.6229   0.7449    0.589     N
C       0.6239   0.6787   0.3932     C
C        0.625    0.445    0.755     C
N       0.6257   0.4723   0.1564     N
N       0.6272   0.6662   0.7027     N
O       0.6273   0.8423   0.2327     O
O       0.6339   0.7221   0.9477     O
H       0.6353   0.4438   0.3088     H
O       0.6375   0.0318    0.803     O
H       0.6498   0.3384   0.7256     H
H       0.6668    0.477   0.7098     H
Cu      0.6678  0.83993   0.5025    Cu
H       0.6715   0.0465   0.4568     H
W      0.67886   0.2162  0.06529     W
C       0.6797   0.7195    0.647     C
H       0.6809   0.6646   0.4138     H
W      0.68402  0.14578  0.86594     W
N       0.6911   0.4712   0.8276     N
H       0.6966   0.6024   0.8406     H
O       0.7011    0.227   0.9521     O
O        0.709   0.9714   0.1207     O
C        0.714   0.0277   0.4214     C
H       0.7169   0.9867   0.6563     H
C       0.7179   0.5539   0.8593     C
O       0.7182   0.9123   0.9721     O
N       0.7189   0.5766   0.0755     N
N       0.7207   0.9403   0.4216     N
C       0.7221   0.5192   0.1343     C
O       0.7283   0.2879   0.3021     O
N        0.729   0.4186   0.8684     N
W      0.73016  0.47009  0.51921     W
O       0.7302   0.4131   0.4232     O
O       0.7356   0.3566   0.5682     O
O       0.7387   0.1802   0.5952     O
H        0.747     0.76   0.1459     H
H        0.753     0.74   0.6459     H
O       0.7613   0.3198   0.0952     O
O       0.7644   0.1434   0.0682     O
O       0.7698   0.0869   0.9232     O
W      0.76984  0.02991  0.01921     W
N        0.771   0.0814   0.3684     N
O       0.7717   0.2121   0.8021     O
C       0.7779   0.9808   0.6343     C
N       0.7793   0.5597   0.9216     N
N       0.7811   0.9234   0.5755     N
O       0.7818   0.5877   0.4721     O
C       0.7821   0.9461   0.3593     C
H       0.7831   0.5133   0.1563     H
C        0.786   0.4723   0.9214     C
O        0.791   0.5286   0.6207     O
O       0.7989    0.273   0.4521     O
H       0.8034   0.8976   0.3406     H
N       0.8089   0.0288   0.3276     N
W      0.81598  0.35422  0.36594     W
H       0.8191   0.8354   0.9138     H
C       0.8203   0.7805    0.147     C
W      0.82114   0.2838  0.56529     W
H       0.8285   0.4535   0.9568     H
Cu      0.8322  0.66007   0.0025    Cu
H       0.8332    0.023   0.2098     H
H       0.8502   0.1616   0.2256     H
O       0.8625   0.4682    0.303     O
H       0.8647   0.0562   0.8088     H
O       0.8661   0.7779   0.4477     O
O       0.8727   0.6577   0.7327     O
N       0.8728   0.8338   0.2027     N
N       0.8743   0.0277   0.6564     N
C        0.875    0.055    0.255     C
C       0.8761   0.8213   0.8932     C
N       0.8771   0.7551    0.089     N
H       0.8834   0.1569   0.7178     H
O       0.8844   0.4222   0.4957     O
O       0.8854   0.3368   0.6597     O
C       0.8856   0.9428   0.5658     C
O       0.8976   0.0466   0.0307     O
C         0.91    0.142    0.241     C
N       0.9101   0.7538   0.9183     N
W      0.91113  0.68982  0.46436     W
H        0.913   0.9145   0.5263     H
O       0.9139    0.554   0.5194     O
W      0.91438  0.60495  0.66007     W
O       0.9151   0.6421   0.3595     O
O        0.921   0.6887   0.5774     O
C        0.927   0.1181   0.7126     C
C         0.93    0.071    0.779     C
O       0.9327   0.5029    0.712     O
H        0.934   0.0328   0.2606     H
O       0.9344   0.3321    0.334     O
N       0.9374   0.8651   0.8336     N
H       0.9383   0.1747   0.2898     H
O       0.9431   0.2505   0.5435     O
N       0.9449   0.0029   0.6145     N
H       0.9455   0.0144   0.7682     H
H       0.9684   0.2839   0.1208     H
H       0.9687   0.1998   0.9159     H
O       0.9708   0.6147   0.0317     O
C        0.971   0.8013   0.1106     C
N       0.9715   0.8501   0.1743     N
O       0.9757    0.469   0.4031     O
O       0.9798   0.6125   0.2108     O
O       0.9832   0.4123   0.5483     O
W      0.98443  0.57545  0.30297     W
N       0.9908   0.1752   0.1781     N
C       0.9924    0.756   0.8743     C
H       0.9973   0.1557   0.6945     H
