data_I
_chemical_name_common  '/home/zhangsd/repos/MofS-CGCNN/ML/data/WS24/clean_cifs/HOWRES'
_cell_length_a  7.79620
_cell_length_b 10.27790
_cell_length_c 19.56500
_cell_angle_alpha 92.17896
_cell_angle_beta  90.00000
_cell_angle_gamma 112.28847
_space_group_name_H-M_alt      'P 1'


loop_
_space_group_symop_operation_xyz
  'x, y, z' 

loop_
_atom_site_label
_atom_site_fract_x
_atom_site_fract_y
_atom_site_fract_z
_atom_site_type_symbol
C       0.0044   0.9246     0.35     C
C       0.0117   0.7004   0.2979     C
O        0.017   0.9016   0.4128     O
H       0.0172    0.529   0.2462     H
O       0.0651    0.991     0.67     O
C       0.0657   0.6268   0.2472     C
H       0.0693   0.3476   0.6684     H
O       0.0741    0.009     0.83     O
C       0.0798   0.0754     0.15     C
C         0.08   0.8478   0.2982     C
H       0.1005    0.751   0.7124     H
O       0.1154   0.0984   0.0872     O
H       0.1175   0.7556   0.7805     H
O       0.1476    0.786   0.7513     O
H       0.1823   0.8596   0.9628     H
H       0.1869   0.8342   0.4548     H
C       0.1901   0.6964   0.1982     C
C        0.208   0.9206   0.2496     C
H       0.2235   0.6456   0.1639     H
C       0.2322   0.1522   0.2018     C
Mg      0.2468      0.0     0.75    Mg
O         0.25   0.9368   0.9495     O
C       0.2661   0.8438   0.2003     C
H       0.2666     0.93   0.9067     H
H       0.2783   0.3476   0.1684     H
O       0.2851   0.8176   0.4595     O
C       0.2874   0.0794   0.2504     C
H       0.2954   0.7666   0.4378     H
C       0.3113   0.2996   0.2021     C
O       0.3132   0.0632   0.5505     O
H       0.3227   0.1404   0.5372     H
H       0.3366     0.07   0.5933     H
H       0.3495    0.249   0.7876     H
H       0.3527   0.1658   0.0452     H
O       0.3616    0.214   0.7487     O
H       0.3619   0.2444   0.7195     H
O       0.3647   0.8946   0.0861     O
C        0.411    0.918   0.1486     C
H       0.4221   0.6456   0.6639     H
C       0.4223   0.1562   0.2997     C
O       0.4288    0.998   0.6705     O
O       0.4308    0.002   0.8295     O
C       0.4389   0.3732   0.2528     C
O       0.4675   0.1824   0.0405     O
O       0.4701   0.1054   0.4139     O
H       0.4712   0.7666   0.9378     H
H       0.4882    0.471   0.2538     H
C        0.493    0.082   0.3514     C
C       0.4937   0.3036   0.3018     C
Mg         0.5      0.0      0.0    Mg
Mg         0.5      0.0      0.5    Mg
C       0.5063   0.6964   0.6982     C
C        0.507    0.918   0.6486     C
H       0.5118    0.529   0.7462     H
H       0.5288   0.2334   0.0622     H
O       0.5299   0.8946   0.5861     O
O       0.5325   0.8176   0.9595     O
C       0.5611   0.6268   0.7472     C
O       0.5692    0.998   0.1705     O
O       0.5712    0.002   0.3295     O
C       0.5777   0.8438   0.7003     C
H       0.5779   0.3544   0.3361     H
C        0.589    0.082   0.8514     C
O       0.6353   0.1054   0.9139     O
H       0.6381   0.7556   0.2805     H
O       0.6384    0.786   0.2513     O
H       0.6473   0.8342   0.9548     H
H       0.6505    0.751   0.2124     H
H       0.6634     0.93   0.4067     H
H       0.6773   0.8596   0.4628     H
O       0.6868   0.9368   0.4495     O
C       0.6887   0.7004   0.7979     C
H       0.7046   0.2334   0.5622     H
C       0.7126   0.9206   0.7496     C
O       0.7149   0.1824   0.5405     O
H       0.7217   0.6524   0.8316     H
H       0.7334     0.07   0.0933     H
C       0.7339   0.1562   0.7997     C
O         0.75   0.0632   0.0505     O
Mg      0.7532      0.0     0.25    Mg
C       0.7678   0.8478   0.7982     C
H       0.7765   0.3544   0.8361     H
C        0.792   0.0794   0.7504     C
C       0.8099   0.3036   0.8018     C
H       0.8131   0.1658   0.5452     H
H       0.8177   0.1404   0.0372     H
O       0.8524    0.214   0.2487     O
H       0.8825   0.2444   0.2195     H
O       0.8846   0.9016   0.9128     O
H       0.8995    0.249   0.2876     H
C         0.92   0.1522   0.7018     C
C       0.9202   0.9246     0.85     C
O       0.9259    0.991     0.17     O
H       0.9307   0.6524   0.3316     H
C       0.9343   0.3732   0.7528     C
O       0.9349    0.009     0.33     O
H       0.9828    0.471   0.7538     H
O        0.983   0.0984   0.5872     O
C       0.9883   0.2996   0.7021     C
C       0.9956   0.0754     0.65     C
