data_I
_chemical_name_common  '/home/zhangsd/repos/MofS-CGCNN/ML/data/WS24/clean_cifs/HOWSET'
_cell_length_a 12.47360
_cell_length_b 12.47360
_cell_length_c 70.28840
_cell_angle_alpha 90.00000
_cell_angle_beta  90.00000
_cell_angle_gamma 90.00000
_space_group_name_H-M_alt      'P 1'


loop_
_space_group_symop_operation_xyz
  'x, y, z' 

loop_
_atom_site_label
_atom_site_fract_x
_atom_site_fract_y
_atom_site_fract_z
_atom_site_type_symbol
O       0.0007   0.4642  0.25123     O
C       0.0019    0.458  0.40149     C
H       0.0038    0.459   0.4153     H
N       0.0064   0.2149  0.35259     N
C       0.0067   0.7048    0.001     C
O       0.0069   0.1364  0.82366     O
O        0.007   0.7447  0.39182     O
H       0.0102   0.8519   0.8791     H
N       0.0168   0.4347  0.89397     N
O       0.0177   0.0884  0.65458     O
C       0.0205    0.341  0.06456     C
C        0.021   0.8741  0.86589     C
H       0.0245   0.6363   0.4369     H
C       0.0257   0.0416  0.63842     C
H       0.0259    0.626   0.6099     H
O       0.0316   0.7128  0.75513     O
O       0.0317     0.67  0.52682     O
C       0.0322   0.6558  0.39879     C
H        0.034   0.8403   0.6362     H
O       0.0351   0.9539  0.37404     O
Cu      0.0352  0.66398  0.49928    Cu
O       0.0358   0.5007  0.50123     O
C       0.0408   0.3515  0.08415     C
H        0.041   0.5038   0.6653     H
C        0.041   0.6313  0.59702     C
C       0.0416   0.0257  0.36158     C
C        0.042   0.5019  0.65149     C
C       0.0424   0.1129  0.50118     C
C       0.0431   0.8179   0.0004     C
C       0.0443   0.6085   0.7537     C
O       0.0461   0.9649  0.12596     O
H       0.0519   0.7744   0.8254     H
C       0.0529   0.3772  0.62537     C
O       0.0601   0.8146  0.49802     O
O       0.0607   0.1986  0.85222     O
O       0.0608   0.6461  0.47187     O
N       0.0653   0.5168  0.14397     N
H       0.0666   0.3028   0.6222     H
C       0.0673   0.6039  0.12983     C
H       0.0691   0.4292   0.3968     H
H       0.0702   0.6819   0.8924     H
H       0.0708   0.5691   0.6468     H
H       0.0738   0.8588   0.6641     H
H        0.076   0.3288    0.056     H
H        0.077   0.4225    0.615     H
H       0.0775    0.577    0.865     H
Cu     0.07762   0.8119  0.36676    Cu
C       0.0786   0.1659  0.83577     C
C       0.0787   0.7677  0.83831     C
H       0.0825   0.3932   0.8684     H
C       0.0842   0.6506  0.55848     C
C       0.0844   0.3171   0.5015     C
O       0.0884   0.0177  0.34542     O
C       0.0913    0.608  0.89446     C
C       0.0951   0.6422  0.43281     C
C       0.0956   0.2649  0.35501     C
O        0.102   0.7218  0.15547     O
C       0.1039   0.4327  0.87983     C
H       0.1062   0.3497   0.6534     H
H       0.1068   0.5825   0.1184     H
C       0.1071   0.6509  0.53759     C
C        0.108   0.4087  0.64446     C
C       0.1084   0.8595   0.6383     C
C       0.1085   0.4557   0.5037     C
C       0.1117   0.7086  0.13809     C
C       0.1129   0.0424  0.49882     C
H       0.1135   0.6987   0.8399     H
Cu     0.11748  0.86155  0.16729    Cu
Cu      0.1175  0.26736  0.25471    Cu
C       0.1195   0.6493  0.41339     C
O       0.1202   0.6709  0.35762     O
C       0.1218    0.353  0.34055     C
O       0.1221   0.2664  0.22741     O
C       0.1228   0.5529  0.87537     C
H       0.1242   0.2617    0.317     H
C       0.1259    0.979  0.63411     C
H        0.126   0.4741   0.3599     H
C        0.131   0.3317  0.32138     C
C       0.1313    0.459  0.34702     C
O        0.134   0.2993   0.2821     O
C       0.1346   0.1346      0.5     C
C       0.1349   0.8442  0.65599     C
H       0.1363   0.4755   0.1869     H
O       0.1364   0.0069  0.17634     O
C       0.1382   0.3449  0.21704     C
Cu     0.13845  0.88252  0.33271    Cu
C       0.1405   0.8916   0.8617     C
H       0.1412   0.9262   0.8359     H
C       0.1422   0.4049  0.18281     C
C       0.1442   0.3209  0.19577     C
C       0.1452   0.6553  0.34082     C
O       0.1461   0.4392  0.22187     O
C        0.147   0.6218  0.59055     C
H       0.1481   0.9898   0.6209     H
H       0.1482   0.1604   0.1988     H
C       0.1485   0.5408  0.33415     C
C       0.1493   0.3805  0.16339     C
C       0.1502   0.2154  0.18994     C
H       0.1503   0.6062   0.9034     H
O       0.1505    0.774  0.12619     O
C       0.1506   0.4158  0.30848     C
C       0.1509   0.3929  0.28759     C
H       0.1528    0.816     0.63     H
C       0.1551   0.6382  0.46704     C
C       0.1553   0.3548  0.09082     C
C       0.1558   0.4678  0.14879     C
H       0.1558     0.77   0.6578     H
C       0.1558   0.8651  0.84401     C
O       0.1574     0.25  0.36838     O
C        0.158   0.8359  0.50149     C
C        0.159   0.5205  0.31456     C
C       0.1594   0.1921  0.17075     C
H       0.1597    0.966   0.8638     H
H       0.1604   0.1482   0.8012     H
C        0.162   0.2736  0.15752     C
O       0.1629   0.7279  0.32828     O
Cu     0.16398   0.4648  0.24928    Cu
C       0.1641    0.842  0.99851     C
C       0.1656   0.2382  0.50374     C
C       0.1659   0.0786  0.16423     C
C       0.1683    0.631  0.57138     C
O         0.17   0.4683  0.27682     O
O       0.1709   0.3798  0.10762     O
H       0.1712    0.576    0.306     H
H       0.1722   0.2578   0.1447     H
C       0.1791   0.6442  0.44577     C
H       0.1819   0.4298   0.6424     H
C       0.1821   0.9569   0.4996     C
C       0.1829   0.5844   0.7515     C
H        0.184   0.8472     0.87     H
O       0.1854   0.9399  0.00198     O
Cu      0.1881  0.92238  0.13324    Cu
C       0.1921   0.1594  0.82925     C
H       0.1972   0.5666   0.8722     H
O       0.1986   0.0607  0.14778     O
H       0.1987   0.3865   0.5899     H
O       0.2007    0.634   0.5321     O
C       0.2048   0.4933    0.751     C
C       0.2086   0.3883  0.88809     C
O       0.2128   0.4684  0.50513     O
N       0.2149   0.0064  0.64741     N
C       0.2154   0.1502  0.81006     C
O       0.2173   0.7552  0.99498     O
O       0.2218    0.398  0.90547     O
H       0.2256   0.9481   0.6746     H
O        0.226   0.8495  0.37381     O
C       0.2264    0.662  0.40752     C
O       0.2279   0.3371  0.07828     O
H         0.23   0.8442   0.8422     H
C       0.2323   0.9213  0.66169     C
Cu     0.23264   0.6175  0.50471    Cu
O       0.2336   0.6221  0.47741     O
C       0.2351   0.5956  0.60501     C
C       0.2382   0.1656  0.49626     C
H       0.2383   0.6242    0.567     H
H       0.2422   0.6722   0.3947     H
O       0.2447    0.493  0.14182     O
O       0.2448   0.7827  0.50502     O
O         0.25   0.1574  0.63162     O
O         0.25   0.6574  0.61838     O
O       0.2552   0.2827  0.74498     O
O       0.2553    0.993  0.10818     O
H       0.2578   0.1722   0.8553     H
H       0.2617   0.1242    0.683     H
C       0.2618   0.6656  0.75374     C
C       0.2649   0.0956  0.64499     C
O       0.2664   0.1221  0.77259     O
Cu     0.26736   0.1175  0.74529    Cu
C       0.2677   0.4213  0.58831     C
H         0.27   0.3442   0.4078     H
O       0.2721   0.8371  0.17172     O
C       0.2736    0.162  0.84248     C
O        0.274   0.3495  0.87619     O
H       0.2744   0.4481   0.5754     H
O       0.2782    0.898  0.34453     O
O       0.2827   0.2552  0.25502     O
C       0.2846   0.6502  0.43994     C
N       0.2851   0.5064  0.60259     N
O       0.2872   0.9684  0.74487     O
C       0.2914   0.8883  0.36191     C
C       0.2952   0.9933    0.499     C
O       0.2993    0.134   0.7179     O
H       0.3013   0.8865   0.6601     H
O       0.3014   0.5607  0.10222     O
H       0.3028   0.0666   0.3778     H
C       0.3079   0.6594  0.42075     C
Cu      0.3119  0.42238  0.11676    Cu
O       0.3146   0.4399  0.24802     O
H        0.316   0.3472     0.38     H
C       0.3171   0.0844   0.4985     C
C       0.3179   0.4569   0.7504     C
H       0.3181   0.9298   0.6076     H
C       0.3209   0.1442  0.80423     C
H       0.3278   0.7578   0.1053     H
H       0.3288    0.076    0.944     H
O       0.3291   0.8798  0.14238     O
O         0.33   0.9683  0.97318     O
C       0.3317    0.131  0.67862     C
C       0.3341   0.5786  0.08577     C
C       0.3344   0.7382  0.74626     C
C       0.3359    0.342  0.25149     C
Cu     0.33602   0.9648  0.00072    Cu
O       0.3371   0.2279  0.92172     O
C        0.338   0.7736  0.09248     C
H       0.3396   0.6482   0.4488     H
H       0.3403    0.466   0.3862     H
C       0.3406   0.6921  0.07925     C
C        0.341   0.0205  0.93544     C
C        0.342   0.3359  0.74851     C
O       0.3426     0.75  0.88162     O
H       0.3442     0.27   0.5922     H
C       0.3442   0.3651  0.40599     C
C       0.3442   0.9678  0.10121     C
C       0.3447   0.8548  0.15918     C
C       0.3449   0.1382  0.78296     C
H       0.3472    0.316     0.62     H
C       0.3491   0.8929  0.96241     C
C       0.3494   0.9158  0.94152     C
O       0.3495    0.274  0.12381     O
H       0.3497   0.1062   0.3466     H
C       0.3498   0.7154  0.06006     C
C       0.3507   0.8805  0.08661     C
C       0.3515   0.0408  0.91585     C
H       0.3518   0.6604   0.0512     H
H       0.3519   0.4898   0.6291     H
C        0.353   0.1218  0.65945     C
O       0.3539   0.9392  0.02813     O
C       0.3548   0.1553  0.90918     C
C       0.3558   0.8209  0.05423     C
C       0.3578   0.9049  0.06719     C
H       0.3588   0.4262   0.4141     H
C       0.3595   0.3916   0.3883     C
Cu     0.36155  0.38252  0.91729    Cu
C       0.3618   0.8449  0.03296     C
O       0.3636   0.5069  0.07366     O
H       0.3637   0.9755   0.0631     H
C       0.3651   0.3442  0.59401     C
C       0.3654   0.6346     0.75     C
O        0.366   0.7993   0.9679     O
C       0.3687    0.959  0.90298     C
C        0.369   0.8317  0.92862     C
H        0.374   0.9741   0.8901     H
C       0.3741    0.479  0.61589     C
H       0.3758   0.7617    0.933     H
C       0.3772   0.0529  0.37463     C
O       0.3779   0.7664  0.02259     O
C       0.3782    0.853  0.90945     C
O       0.3798   0.1709  0.89238     O
C       0.3805   0.1493  0.83661     C
Cu      0.3825  0.76736  0.99529    Cu
Cu     0.38252  0.36155  0.08271    Cu
H       0.3865   0.1987   0.4101     H
C       0.3871   0.5424  0.75118     C
C       0.3883   0.2086  0.11191     C
C       0.3915   0.9557   0.7463     C
C       0.3916   0.3595   0.6117     C
C        0.392   0.9087  0.60554     C
C       0.3929   0.1509  0.71241     C
H       0.3932   0.0825   0.1316     H
H       0.3938   0.8497   0.5966     H
C       0.3961   0.9327  0.37017     C
O        0.398   0.2218  0.09453     O
C       0.4044   0.7649  0.89499     C
C       0.4049   0.1422  0.81719     C
C       0.4087    0.108  0.35554     C
O       0.4116   0.5177  0.90458     O
C       0.4156   0.8171   0.7485     C
C       0.4158   0.1506  0.69152     C
H       0.4175   0.8932   0.3816     H
C       0.4213   0.2677  0.41169     C
C       0.4214   0.6659  0.41423     C
Cu     0.42238   0.3119  0.88324    Cu
H       0.4225    0.077    0.385     H
H        0.423   0.9225    0.635     H
H        0.424   0.8288    0.194     H
H       0.4262   0.3588   0.5859     H
H       0.4292   0.0691   0.6032     H
H       0.4298   0.1819   0.3576     H
H       0.4309   0.9292   0.8532     H
C       0.4327   0.1039  0.12017     C
H       0.4334   0.8028   0.6278     H
N       0.4347   0.0168  0.10603     N
O       0.4392   0.1461  0.77813     O
O       0.4393   0.6986  0.39778     O
O       0.4399   0.3146  0.75198     O
C       0.4471   0.8772  0.62463     C
H       0.4481   0.2744   0.4246     H
O       0.4539   0.4649  0.12404     O
C       0.4557   0.1085   0.4963     C
C       0.4569   0.3179   0.2496     C
C       0.4576   0.6129  0.74882     C
C        0.458   0.0019  0.59851     C
C       0.4584   0.5257  0.88842     C
H        0.459   0.0038   0.5847     H
C        0.459   0.1313  0.65298     C
C       0.4592   0.8515  0.16585     C
O       0.4642   0.0007  0.74877     O
Cu      0.4648  0.16398  0.75072    Cu
O       0.4649   0.4539  0.87596     O
H        0.466   0.3403   0.6138     H
C       0.4678   0.1558  0.85121     C
O       0.4683     0.17  0.72318     O
O       0.4684   0.2128  0.49487     O
H       0.4741    0.126   0.6401     H
C       0.4743   0.5416  0.61158     C
H       0.4755   0.1363   0.8131     H
C        0.479   0.3741  0.38411     C
C       0.4795    0.841  0.18544     C
O       0.4823   0.5884  0.59542     O
N       0.4832   0.9347  0.35603     N
H       0.4898   0.3519   0.3709     H
O        0.493   0.2447  0.85818     O
O       0.4931   0.6364  0.42634     O
C       0.4933   0.2048    0.249     C
N       0.4936   0.7149  0.89741     N
H       0.4962    0.959   0.8347     H
C       0.4981    0.958  0.84851     C
O       0.4993   0.9642  0.99877     O
O       0.5007   0.0358  0.49877     O
C       0.5019    0.042  0.34851     C
H       0.5038    0.041   0.3347     H
N       0.5064   0.2851  0.39741     N
C       0.5067   0.7952    0.749     C
O       0.5069   0.3636  0.92634     O
O        0.507   0.7553  0.35818     O
H       0.5102   0.6481   0.8709     H
N       0.5168   0.0653  0.85603     N
O       0.5177   0.4116  0.09542     O
C       0.5205    0.159  0.68544     C
C        0.521   0.6259  0.88411     C
H       0.5245   0.8637   0.3131     H
C       0.5257   0.4584  0.11158     C
H       0.5259    0.874   0.1401     H
O       0.5316   0.7872  0.99487     O
O       0.5317     0.83  0.22318     O
C       0.5322   0.8442  0.35121     C
H        0.534   0.6597   0.1138     H
O       0.5351   0.5461  0.37596     O
Cu      0.5352  0.83602  0.25072    Cu
O       0.5358   0.9993  0.24877     O
C       0.5408   0.1485  0.66585     C
C        0.541   0.8687  0.15298     C
H        0.541   0.9962   0.0847     H
C       0.5416   0.4743  0.38842     C
C        0.542   0.9981  0.09851     C
C       0.5424   0.3871  0.24882     C
C       0.5431   0.6821   0.7496     C
C       0.5443   0.8915   0.9963     C
O       0.5461   0.5351  0.62404     O
H       0.5519   0.7256   0.9246     H
C       0.5529   0.1228  0.12463     C
O       0.5601   0.6854  0.25198     O
O       0.5607   0.3014  0.89778     O
O       0.5608   0.8539  0.27813     O
N       0.5653   0.9832  0.60603     N
H       0.5666   0.1972   0.1278     H
C       0.5673   0.8961  0.62017     C
H       0.5691   0.0708   0.3532     H
H       0.5702   0.8181   0.8576     H
H       0.5708   0.9309   0.1032     H
H       0.5738   0.6412   0.0859     H
H        0.576   0.1712    0.694     H
H        0.577   0.0775    0.135     H
H       0.5775    0.923    0.885     H
Cu     0.57762   0.6881  0.38324    Cu
C       0.5786   0.3341  0.91423     C
C       0.5787   0.7323  0.91169     C
H       0.5825   0.1068   0.8816     H
C       0.5842   0.8494  0.19152     C
C       0.5844   0.1829   0.2485     C
O       0.5884   0.4823  0.40458     O
C       0.5913    0.892  0.85554     C
C       0.5951   0.8578  0.31719     C
C       0.5956   0.2351  0.39499     C
O        0.602   0.7782  0.59453     O
C       0.6039   0.0673  0.87017     C
H       0.6062   0.1503   0.0966     H
H       0.6068   0.9175   0.6316     H
C       0.6071   0.8491  0.21241     C
C        0.608   0.0913  0.10554     C
C       0.6084   0.6405   0.1117     C
C       0.6085   0.0443   0.2463     C
C       0.6117   0.7914  0.61191     C
C       0.6129   0.4576  0.25118     C
H       0.6135   0.8013   0.9101     H
Cu     0.61748  0.63845  0.58271    Cu
Cu      0.6175  0.23264  0.49529    Cu
C       0.6195   0.8507  0.33661     C
O       0.6202   0.8291  0.39238     O
C       0.6218    0.147  0.40945     C
O       0.6221   0.2336  0.52259     O
C       0.6228   0.9471  0.87463     C
H       0.6242   0.2383    0.433     H
C       0.6259    0.521  0.11589     C
H        0.626   0.0259   0.3901     H
C        0.631   0.1683  0.42862     C
C       0.6313    0.041  0.40298     C
O        0.634   0.2007   0.4679     O
C       0.6346   0.3654     0.25     C
C       0.6349   0.6558  0.09401     C
H       0.6363   0.0245   0.5631     H
O       0.6364   0.4931  0.57366     O
C       0.6382   0.1551  0.53296     C
Cu     0.63845  0.61748  0.41729    Cu
C       0.6405   0.6084   0.8883     C
H       0.6412   0.5738   0.9141     H
C       0.6422   0.0951  0.56719     C
C       0.6442   0.1791  0.55423     C
C       0.6452   0.8447  0.40918     C
O       0.6461   0.0608  0.52813     O
C        0.647   0.8782  0.15945     C
H       0.6481   0.5102   0.1291     H
H       0.6482   0.3396   0.5512     H
C       0.6485   0.9592  0.41585     C
C       0.6493   0.1195  0.58661     C
C       0.6502   0.2846  0.56006     C
H       0.6503   0.8938   0.8466     H
O       0.6505    0.726  0.62381     O
C       0.6506   0.0842  0.44152     C
C       0.6509   0.1071  0.46241     C
H       0.6528    0.684     0.12     H
C       0.6551   0.8618  0.28296     C
C       0.6553   0.1452  0.65918     C
C       0.6558   0.0322  0.60121     C
C       0.6558   0.6349  0.90599     C
H       0.6558     0.73   0.0922     H
O       0.6574     0.25  0.38162     O
C        0.658   0.6641  0.24851     C
C        0.659   0.9795  0.43544     C
C       0.6594   0.3079  0.57925     C
H       0.6597    0.534   0.8862     H
H       0.6604   0.3518   0.9488     H
C        0.662   0.2264  0.59248     C
O       0.6629   0.7721  0.42172     O
Cu     0.66398   0.0352  0.50072    Cu
C       0.6641    0.658  0.75149     C
C       0.6656   0.2618  0.24626     C
C       0.6659   0.4214  0.58577     C
C       0.6683    0.869  0.17862     C
O         0.67   0.0317  0.47318     O
O       0.6709   0.1202  0.64238     O
H       0.6712    0.924    0.444     H
H       0.6722   0.2422   0.6053     H
C       0.6791   0.8558  0.30423     C
H       0.6819   0.0702   0.1076     H
C       0.6821   0.5431   0.2504     C
C       0.6829   0.9156   0.9985     C
H        0.684   0.6528     0.88     H
O       0.6854   0.5601  0.74802     O
Cu      0.6881  0.57762  0.61676    Cu
C       0.6921   0.3406  0.92075     C
H       0.6972   0.9334   0.8778     H
O       0.6986   0.4393  0.60222     O
H       0.6987   0.1135   0.1601     H
O       0.7007    0.866   0.2179     O
C       0.7048   0.0067    0.999     C
C       0.7086   0.1117  0.86191     C
O       0.7128   0.0316  0.24487     O
N       0.7149   0.4936  0.10259     N
C       0.7154   0.3498  0.93994     C
O       0.7173   0.7448  0.75502     O
O       0.7218    0.102  0.84453     O
H       0.7256   0.5519   0.0754     H
O        0.726   0.6505  0.37619     O
C       0.7264    0.838  0.34248     C
O       0.7279   0.1629  0.67172     O
H         0.73   0.6558   0.9078     H
C       0.7323   0.5787  0.08831     C
Cu     0.73264   0.8825  0.24529    Cu
O       0.7336   0.8779  0.27259     O
C       0.7351   0.9044  0.14499     C
C       0.7382   0.3344  0.25374     C
H       0.7383   0.8758    0.183     H
H       0.7422   0.8278   0.3553     H
O       0.7447    0.007  0.60818     O
O       0.7448   0.7173  0.24498     O
O         0.75   0.3426  0.11838     O
O         0.75   0.8426  0.13162     O
O       0.7552   0.2173  0.00502     O
O       0.7553    0.507  0.64182     O
H       0.7578   0.3278   0.8947     H
H       0.7617   0.3758    0.067     H
C       0.7618   0.8344  0.99626     C
C       0.7649   0.4044  0.10501     C
O       0.7664   0.3779  0.97741     O
Cu     0.76736   0.3825  0.00471    Cu
C       0.7677   0.0787  0.16169     C
H         0.77   0.1558   0.3422     H
O       0.7721   0.6629  0.57828     O
C       0.7736    0.338  0.90752     C
O        0.774   0.1505  0.87381     O
H       0.7744   0.0519   0.1746     H
O       0.7782    0.602  0.40547     O
O       0.7827   0.2448  0.49498     O
C       0.7846   0.8498  0.31006     C
N       0.7851   0.9936  0.14741     N
O       0.7872   0.5316  0.00513     O
C       0.7914   0.6117  0.38809     C
C       0.7952   0.5067    0.251     C
O       0.7993    0.366   0.0321     O
H       0.8013   0.6135   0.0899     H
O       0.8014   0.9393  0.64778     O
H       0.8028   0.4334   0.3722     H
C       0.8079   0.8406  0.32925     C
Cu      0.8119  0.07762  0.63324    Cu
O       0.8146   0.0601  0.50198     O
H        0.816   0.1528     0.37     H
C       0.8171   0.4156   0.2515     C
C       0.8179   0.0431   0.9996     C
H       0.8181   0.5702   0.1424     H
C       0.8209   0.3558  0.94577     C
H       0.8278   0.7422   0.6447     H
H       0.8288    0.424    0.806     H
O       0.8291   0.6202  0.60762     O
O         0.83   0.5317  0.77682     O
C       0.8317    0.369  0.07138     C
C       0.8341   0.9214  0.66423     C
C       0.8344   0.7618  0.00374     C
C       0.8359    0.158  0.49851     C
Cu     0.83602   0.5352  0.74928    Cu
O       0.8371   0.2721  0.82828     O
C        0.838   0.7264  0.65752     C
H       0.8396   0.8518   0.3012     H
H       0.8403    0.034   0.3638     H
C       0.8406   0.8079  0.67075     C
C        0.841   0.4795  0.81456     C
C        0.842   0.1641  0.00149     C
O       0.8426     0.75  0.86838     O
C       0.8442   0.1349  0.34401     C
H       0.8442     0.23   0.1578     H
C       0.8442   0.5322  0.64879     C
C       0.8447   0.6452  0.59082     C
C       0.8449   0.3618  0.96704     C
H       0.8472    0.184     0.13     H
C       0.8491   0.6071  0.78759     C
C       0.8494   0.5842  0.80848     C
O       0.8495    0.226  0.62619     O
H       0.8497   0.3938   0.4034     H
C       0.8498   0.7846  0.68994     C
C       0.8507   0.6195  0.66339     C
C       0.8515   0.4592  0.83415     C
H       0.8518   0.8396   0.6988     H
H       0.8519   0.0102   0.1209     H
C        0.853   0.3782  0.09055     C
O       0.8539   0.5608  0.72187     O
C       0.8548   0.3447  0.84082     C
C       0.8558   0.6791  0.69577     C
C       0.8578   0.5951  0.68281     C
H       0.8588   0.0738   0.3359     H
C       0.8595   0.1084   0.3617     C
Cu     0.86155  0.11748  0.83271    Cu
C       0.8618   0.6551  0.71704     C
O       0.8636   0.9931  0.67634     O
H       0.8637   0.5245   0.6869     H
C       0.8651   0.1558  0.15599     C
C       0.8654   0.8654      0.0     C
O        0.866   0.7007   0.7821     O
C       0.8687    0.541  0.84702     C
C        0.869   0.6683  0.82138     C
H        0.874   0.5259   0.8599     H
C       0.8741    0.021  0.13411     C
H       0.8758   0.7383    0.817     H
C       0.8772   0.4471  0.37537     C
O       0.8779   0.7336  0.72741     O
C       0.8782    0.647  0.84055     C
O       0.8798   0.3291  0.85762     O
C       0.8805   0.3507  0.91339     C
Cu      0.8825  0.73264  0.75471    Cu
Cu     0.88252  0.13845  0.66729    Cu
H       0.8865   0.3013   0.3399     H
C       0.8871   0.9576  0.99882     C
C       0.8883   0.2914  0.63809     C
C       0.8915   0.5443   0.0037     C
C       0.8916   0.1405   0.1383     C
C        0.892   0.5913  0.14446     C
C       0.8929   0.3491  0.03759     C
H       0.8932   0.4175   0.6184     H
H       0.8938   0.6503   0.1534     H
C       0.8961   0.5673  0.37983     C
O        0.898   0.2782  0.65547     O
C       0.9044   0.7351  0.85501     C
C       0.9049   0.3578  0.93281     C
C       0.9087    0.392  0.39446     C
O       0.9116   0.9823  0.84542     O
C       0.9156   0.6829   0.0015     C
C       0.9158   0.3494  0.05848     C
H       0.9175   0.6068   0.3684     H
C       0.9213   0.2323  0.33831     C
C       0.9214   0.8341  0.33577     C
Cu     0.92238   0.1881  0.86676    Cu
H       0.9225    0.423    0.365     H
H        0.923   0.5775    0.115     H
H        0.924   0.6712    0.556     H
H       0.9262   0.1412   0.1641     H
H       0.9292   0.4309   0.1468     H
H       0.9298   0.3181   0.3924     H
H       0.9309   0.5708   0.8968     H
C       0.9327   0.3961  0.62983     C
H       0.9334   0.6972   0.1222     H
N       0.9347   0.4832  0.64397     N
O       0.9392   0.3539  0.97187     O
O       0.9393   0.8014  0.35222     O
O       0.9399   0.1854  0.99802     O
C       0.9471   0.6228  0.12537     C
H       0.9481   0.2256   0.3254     H
O       0.9539   0.0351  0.62596     O
C       0.9557   0.3915   0.2537     C
C       0.9569   0.1821   0.5004     C
C       0.9576   0.8871  0.00118     C
C        0.958   0.4981  0.15149     C
C       0.9584   0.9743  0.86158     C
C        0.959   0.3687  0.09702     C
H        0.959   0.4962   0.1653     H
C       0.9592   0.6485  0.58415     C
O       0.9642   0.4993  0.00123     O
Cu      0.9648  0.33602  0.99928    Cu
O       0.9649   0.0461  0.87404     O
H        0.966   0.1597   0.1362     H
C       0.9678   0.3442  0.89879     C
O       0.9683     0.33  0.02682     O
O       0.9684   0.2872  0.25513     O
H       0.9741    0.374   0.1099     H
C       0.9743   0.9584  0.13842     C
H       0.9755   0.3637   0.9369     H
C        0.979   0.1259  0.36589     C
C       0.9795    0.659  0.56456     C
O       0.9823   0.9116  0.15458     O
N       0.9832   0.5653  0.39397     N
H       0.9898   0.1481   0.3791     H
O        0.993   0.2553  0.89182     O
O       0.9931   0.8636  0.32366     O
C       0.9933   0.2952    0.501     C
N       0.9936   0.7851  0.85259     N
H       0.9962    0.541   0.9153     H
C       0.9981    0.542  0.90149     C
O       0.9993   0.5358  0.75123     O
