data_I
_chemical_name_common  '/home/zhangsd/repos/MofS-CGCNN/ML/data/WS24/clean_cifs/HUVHIR'
_cell_length_a 10.13700
_cell_length_b 11.80200
_cell_length_c 13.76800
_cell_angle_alpha 86.89900
_cell_angle_beta  89.52300
_cell_angle_gamma 88.34300
_space_group_name_H-M_alt      'P 1'


loop_
_space_group_symop_operation_xyz
  'x, y, z' 

loop_
_atom_site_label
_atom_site_fract_x
_atom_site_fract_y
_atom_site_fract_z
_atom_site_type_symbol
H       0.0055   0.4493   0.1793     H
C       0.0112   0.3234   0.0817     C
O       0.0145    0.775   0.9153     O
O       0.0321   0.4685   0.6279     O
H       0.0401   0.6864   0.6879     H
C       0.0584   0.5868     0.86     C
H       0.0983    0.529   0.9041     H
O       0.1033   0.3673   0.0267     O
C       0.1312   0.6597   0.6939     C
H       0.1462   0.3164   0.0018     H
P      0.15593  0.53845  0.62071     P
Zn     0.15736  0.51598  0.39554    Zn
N       0.1606    0.637   0.7968     N
O       0.1818   0.5869   0.5184     O
H       0.1866   0.7202   0.6684     H
O       0.1931   0.0418   0.1759     O
O       0.2179   0.6099   0.2846     O
H       0.2256   0.2153   0.2637     H
O       0.2294   0.3604   0.4049     O
O       0.2432   0.2162   0.9455     O
H       0.2694   0.2555   0.1585     H
O       0.2699   0.4657    0.663     O
H       0.2763   0.5712   0.0927     H
C       0.2809   0.6568   0.8325     C
O       0.2841   0.7842   0.1897     O
C       0.2941   0.2068   0.2148     C
C       0.2978   0.0853   0.1856     C
N       0.2986   0.6354    0.929     N
P       0.3293   0.6648  0.22994     P
H       0.3581   0.3957   0.9599     H
C       0.3595   0.5835   0.1242     C
C       0.3637   0.2293   0.9284     C
N       0.3703   0.6969    0.769     N
P        0.375    0.344  0.42563     P
Zn     0.37743  0.88991  0.11254    Zn
H       0.3976   0.1581   0.3808     H
H       0.3979   0.5099   0.1446     H
H       0.4004   0.3775   0.8521     H
O       0.4009    0.307   0.5301     O
O       0.4079   0.0364    0.173     O
C       0.4122   0.3486   0.9188     C
N       0.4166   0.2462   0.2528     N
C       0.4189   0.6579   0.9581     C
C       0.4394   0.2275   0.3576     C
O       0.4405   0.1451    0.915     O
O       0.4443   0.4517   0.3927     O
Zn     0.44533  0.42505  0.62167    Zn
N       0.4484   0.6409   0.0547     N
O       0.4552   0.6751   0.2845     O
H       0.4666    0.782   0.6309     H
N       0.4835   0.2998   0.0982     N
C       0.4857   0.7169    0.807     C
C       0.5143   0.2831    0.193     C
N       0.5165   0.7002   0.9018     N
H       0.5334    0.218   0.3691     H
O       0.5448   0.3249   0.7155     O
N       0.5516   0.3591   0.9453     N
Zn     0.55467  0.57495  0.37833    Zn
O       0.5557   0.5483   0.6073     O
O       0.5595   0.8549    0.085     O
C       0.5606   0.7725   0.6424     C
C       0.5811   0.3421   0.0419     C
N       0.5834   0.7538   0.7472     N
C       0.5878   0.6514   0.0812     C
O       0.5921   0.9636    0.827     O
O       0.5991    0.693   0.4699     O
H       0.5996   0.6225   0.1479     H
H       0.6021   0.4901   0.8554     H
H       0.6024   0.8419   0.6192     H
Zn     0.62257  0.11009  0.88746    Zn
P        0.625    0.656  0.57437     P
N       0.6297   0.3031    0.231     N
C       0.6363   0.7707   0.0716     C
C       0.6405   0.4165   0.8758     C
H       0.6419   0.6043   0.0401     H
P       0.6707   0.3352  0.77006     P
N       0.7014   0.3646    0.071     N
C       0.7022   0.9147   0.8144     C
C       0.7059   0.7932   0.7852     C
O       0.7159   0.2158   0.8103     O
C       0.7191   0.3432   0.1675     C
H       0.7237   0.4288   0.9073     H
O       0.7301   0.5343    0.337     O
H       0.7306   0.7445   0.8415     H
O       0.7568   0.7838   0.0545     O
O       0.7706   0.6396   0.5951     O
H       0.7744   0.7847   0.7363     H
O       0.7821   0.3901   0.7154     O
O       0.8069   0.9582   0.8241     O
H       0.8134   0.2798   0.3316     H
O       0.8182   0.4131   0.4816     O
N       0.8394    0.363   0.2032     N
Zn     0.84264  0.48402  0.60446    Zn
P      0.84407  0.46155  0.37929     P
H       0.8538   0.6836   0.9982     H
C       0.8688   0.3403   0.3061     C
O       0.8967   0.6327   0.9733     O
H       0.9017    0.471   0.0959     H
C       0.9416   0.4132     0.14     C
H       0.9599   0.3136   0.3121     H
O       0.9679   0.5315   0.3721     O
O       0.9855    0.225   0.0847     O
C       0.9888   0.6766   0.9183     C
H       0.9945   0.5507   0.8207     H
