data_I
_chemical_name_common  '/home/zhangsd/repos/MofS-CGCNN/ML/data/WS24/clean_cifs/HUWHOY'
_cell_length_a 15.08100
_cell_length_b 14.53800
_cell_length_c 17.93500
_cell_angle_alpha 90.00000
_cell_angle_beta  95.95100
_cell_angle_gamma 90.00000
_space_group_name_H-M_alt      'P 1'


loop_
_space_group_symop_operation_xyz
  'x, y, z' 

loop_
_atom_site_label
_atom_site_fract_x
_atom_site_fract_y
_atom_site_fract_z
_atom_site_type_symbol
C       0.0013   0.7915   0.1314     C
O       0.0077   0.7456   0.1896     O
O       0.0091   0.0632    0.732     O
H       0.0171    0.899   0.0105     H
N       0.0396   0.4337   0.3757     N
H        0.041   0.1252   0.3941     H
O       0.0412   0.0247   0.9199     O
C        0.046   0.9315   0.5221     C
H       0.0475   0.8653   0.5155     H
C       0.0506   0.4679   0.4491     C
H       0.0554   0.5344   0.4503     H
C       0.0571   0.9181   0.0505     C
O       0.0577   0.2625   0.9185     O
C       0.0579   0.8714   0.1203     C
C       0.0587   0.9393   0.6556     C
H       0.0599   0.9621   0.4767     H
H       0.0615   0.0791   0.2618     H
H       0.0683    0.001   0.3232     H
C       0.0699   0.0069   0.7217     C
H       0.0785   0.8782   0.6735     H
O       0.0866   0.3569   0.2743     O
Cd     0.09343  0.13285    0.835    Cd
C        0.094   0.1293    0.368     C
C       0.0946    0.058   0.3079     C
H       0.0992    0.191   0.3483     H
H       0.1018    0.441   0.4783     H
C       0.1025   0.3992   0.3347     C
H       0.1043   0.8834   0.2288     H
C       0.1052   0.9635   0.5912     C
C       0.1085   0.9076   0.1813     C
C       0.1114    0.039   0.9634     C
C       0.1126   0.9894   0.0403     C
H       0.1145   0.0294   0.5893     H
O       0.1427   0.0083   0.7585     O
H       0.1627   0.9331    0.594     H
H       0.1657   0.0521   0.4536     H
C       0.1664    0.981   0.1721     C
C       0.1709   0.0208   0.1018     C
O       0.1755   0.0857   0.9522     O
H       0.1794   0.5578   0.3619     H
C       0.1796   0.0999    0.419     C
N       0.1865    0.045   0.2977     N
C       0.1964   0.4204   0.3683     C
H       0.2049   0.1521   0.4475     H
H       0.2118   0.0674   0.0955     H
C       0.2206   0.5117   0.3757     C
C       0.2245   0.0139   0.2368     C
H       0.2378   0.2901   0.3764     H
C       0.2436   0.0649   0.3667     C
C       0.2547   0.3509   0.3855     C
O         0.26    0.902   0.3839     O
H       0.2746     0.02   0.7008     H
O       0.2773   0.6944   0.3934     O
H       0.2867    0.113   0.3576     H
H       0.2884   0.0374   0.5679     H
C       0.2927   0.9782   0.3977     C
H       0.2931     0.56   0.7122     H
C       0.3065   0.5339   0.4039     C
O       0.3069   0.0135    0.237     O
H       0.3095   0.0671   0.8238     H
C       0.3253   0.0374   0.6788     C
H       0.3255   0.5734   0.5817     H
C       0.3312   0.6337   0.4179     C
C       0.3343   0.0476   0.6057     C
H       0.3382   0.5018   0.8376     H
C        0.345   0.3733   0.4186     C
C       0.3487   0.5614   0.6941     C
H       0.3501   0.0596   0.9499     H
C       0.3653   0.4639   0.4287     C
O       0.3677   0.9892   0.4378     O
C       0.3684   0.5681   0.6226     C
C       0.3692   0.0609    0.842     C
H       0.3722   0.4937   0.9664     H
O       0.3787   0.2171    0.439     O
H       0.3927   0.0962    0.055     H
C        0.394   0.5213   0.8587     C
C       0.3942   0.0571   0.9175     C
H       0.3945   0.5341   0.0841     H
O        0.407    0.652   0.4535     O
C       0.4075   0.2995   0.4469     C
N       0.4105   0.0593   0.7147     N
C       0.4139   0.5174   0.9368     C
N        0.418   0.0743   0.5928     N
H       0.4206   0.4797   0.4532     H
H       0.4245   0.1177   0.1817     H
H       0.4305   0.5374   0.2099     H
N       0.4335   0.5571   0.7343     N
C       0.4358   0.0553   0.7918     C
H        0.444   0.0621    0.303     H
C       0.4489   0.0793    0.077     C
C       0.4521   0.5519   0.8137     C
C       0.4539   0.5414   0.1028     C
N       0.4559   0.5662   0.6165     N
C       0.4614   0.0802   0.6593     C
C       0.4648    0.089   0.1534     C
Cd     0.46582  0.10405  0.47998    Cd
C        0.475   0.5436   0.1781     C
H       0.4789    0.597   0.3323     H
O       0.4812   0.3231   0.4749     O
C       0.4822   0.0496   0.9478     C
C       0.4929   0.5477    0.969     C
C       0.4946   0.5619   0.6843     C
C       0.5054   0.0619   0.3157     C
C       0.5071   0.0477    0.031     C
C       0.5178   0.5496   0.0522     C
O       0.5188   0.8231   0.5251     O
H       0.5211    0.097   0.6677     H
C        0.525   0.0436   0.8219     C
Cd     0.53418  0.60405  0.52002    Cd
C       0.5352    0.589   0.8466     C
C       0.5386   0.5802   0.3407     C
N       0.5441   0.0662   0.3835     N
C       0.5461   0.0414   0.8972     C
C       0.5479   0.0519   0.1863     C
C       0.5511   0.5793    0.923     C
H        0.556   0.5621    0.697     H
C       0.5642   0.5553   0.2082     C
N       0.5665   0.0571   0.2657     N
H       0.5695   0.0374   0.7901     H
H       0.5755   0.6177   0.8183     H
H       0.5794   0.9797   0.5468     H
N        0.582   0.5743   0.4072     N
C       0.5861   0.0174   0.0632     C
N       0.5895   0.5593   0.2853     N
C       0.5925   0.7995   0.5531     C
O        0.593    0.152   0.5465     O
H       0.6055   0.0341   0.9159     H
C       0.6058   0.5571   0.0825     C
C        0.606   0.0213   0.1413     C
H       0.6073   0.5962    0.945     H
O       0.6213   0.7171    0.561     O
H       0.6278   0.9937   0.0336     H
C       0.6308   0.5609    0.158     C
C       0.6316   0.0681   0.3774     C
O       0.6323   0.4892   0.5622     O
C       0.6347   0.9639   0.5713     C
H       0.6499   0.5596   0.0501     H
C       0.6513   0.0614   0.3059     C
C        0.655   0.8733   0.5814     C
H       0.6618   0.0018   0.1624     H
C       0.6657   0.5476   0.3943     C
C       0.6688   0.1337   0.5821     C
H       0.6745   0.0734   0.4183     H
C       0.6747   0.5374   0.3212     C
H       0.6905   0.5671   0.1762     H
O       0.6931   0.5135    0.763     O
C       0.6935   0.0339   0.5961     C
H       0.7069     0.06   0.2878     H
C       0.7073   0.4782   0.6023     C
H       0.7116   0.5374   0.4321     H
H       0.7133    0.613   0.6424     H
O       0.7227   0.1944   0.6066     O
H       0.7254     0.52   0.2992     H
O         0.74    0.402   0.6161     O
C       0.7453   0.8509   0.6145     C
C       0.7564   0.5649   0.6333     C
H       0.7622   0.7901   0.6236     H
C       0.7755   0.5139   0.7632     C
C       0.7794   0.0117   0.6243     C
H       0.7882   0.5674   0.9045     H
H       0.7951   0.6521   0.5525     H
C       0.8036   0.9204   0.6317     C
N       0.8135    0.545   0.7023     N
C       0.8204   0.5999    0.581     C
H       0.8206   0.0578   0.6381     H
O       0.8245   0.5857   0.0478     O
C       0.8291   0.5208   0.8982     C
C       0.8336    0.481   0.8279     C
H       0.8343   0.5521   0.5464     H
H       0.8373   0.4331    0.406     H
O       0.8573   0.5083   0.2415     O
H       0.8855   0.5294   0.4107     H
C       0.8874   0.4894   0.9597     C
C       0.8886    0.539   0.0366     C
C       0.8915   0.4076   0.8187     C
C       0.8948   0.4635   0.4088     C
H       0.8957   0.3834   0.7712     H
C       0.8975   0.8992   0.6653     C
H       0.8982    0.941   0.5217     H
H       0.9008    0.691   0.6517     H
C       0.9054    0.558   0.6921     C
C        0.906   0.6293    0.632     C
Cd     0.90657  0.63285    0.165    Cd
O       0.9134   0.8569   0.7257     O
H       0.9215   0.3782   0.3265     H
C       0.9301   0.5069   0.2783     C
H       0.9317    0.501   0.6768     H
H       0.9385   0.5791   0.7382     H
H       0.9401   0.4621   0.5233     H
C       0.9413   0.4393   0.3444     C
C       0.9421   0.3714   0.8797     C
O       0.9423   0.7625   0.0815     O
C       0.9429   0.4181   0.9495     C
H       0.9446   0.0344   0.5497     H
C       0.9494   0.9679   0.5509     C
H       0.9525   0.3653   0.4845     H
C        0.954   0.4315   0.4779     C
O       0.9588   0.5247   0.0801     O
H        0.959   0.6252   0.6059     H
N       0.9604   0.9337   0.6243     N
H       0.9829    0.399   0.9895     H
O       0.9909   0.5632    0.268     O
O       0.9923   0.2456   0.8104     O
C       0.9987   0.2915   0.8686     C
