data_I
_chemical_name_common  '/home/zhangsd/repos/MofS-CGCNN/ML/data/WS24/clean_cifs/HUWHUE'
_cell_length_a 15.72640
_cell_length_b 20.80720
_cell_length_c 13.97740
_cell_angle_alpha 90.00000
_cell_angle_beta  90.00000
_cell_angle_gamma 90.00000
_space_group_name_H-M_alt      'P 1'


loop_
_space_group_symop_operation_xyz
  'x, y, z' 

loop_
_atom_site_label
_atom_site_fract_x
_atom_site_fract_y
_atom_site_fract_z
_atom_site_type_symbol
C          0.0      0.0   0.0397     C
N          0.0      0.0   0.2382     N
Cd         0.0      0.0  0.40313    Cd
N          0.0      0.0    0.569     N
C          0.0      0.0    0.774     C
O        0.001   0.8892   0.4224     O
C        0.006   0.9762   0.8826     C
C       0.0222   0.0487     0.73     C
C       0.0244   0.2383   0.4942     C
C       0.0318   0.3001   0.5355     C
H       0.0324    0.086    0.765     H
C       0.0337   0.0504    0.622     C
C       0.0382   0.9536   0.1903     C
C       0.0389   0.9515   0.0911     C
H       0.0468   0.6246   0.5748     H
C       0.0477   0.6649    0.546     C
C       0.0516   0.7838   0.4586     C
C       0.0608     0.85   0.4098     C
H       0.0623   0.0841   0.5924     H
H       0.0655   0.9177   0.0594     H
H       0.0655   0.9211   0.2242     H
H       0.0722   0.2119   0.4912     H
O       0.1089   0.3882   0.5924     O
C       0.1096   0.3287   0.5711     C
H       0.1112   0.1335   0.2518     H
C       0.1218   0.6887   0.5157     C
C       0.1247   0.7471    0.468     C
O       0.1255   0.8586   0.3631     O
H       0.1441   0.1236   0.4063     H
O       0.1475   0.0021   0.3915     O
H       0.1574   0.6596   0.7332     H
C       0.1719   0.1277   0.2602     C
H       0.1758   0.7617   0.4423     H
O       0.1778   0.2956   0.5767     O
H       0.1807   0.7264   0.6859     H
H       0.1838   0.2258   0.2505     H
H       0.1903   0.0931   0.2185     H
C       0.1913   0.1103    0.365     C
H       0.1942    0.482   0.9658     H
C       0.2021    0.684   0.7021     C
C        0.203   0.6518   0.5262     C
C       0.2082     0.04    0.377     C
H       0.2089   0.8276   0.5791     H
H       0.2135   0.8026   0.0524     H
C       0.2162   0.4478    0.931     C
H        0.217   0.4903   0.8028     H
O       0.2173   0.5196   0.6326     O
C       0.2175   0.1882   0.2348     C
H       0.2231   0.8339   0.7428     H
C        0.224   0.4509   0.8332     C
C       0.2243   0.8665   0.6068     C
C       0.2296   0.8713   0.7071     C
H        0.232   0.1893   0.1674     H
H       0.2333    0.811   0.2186     H
C       0.2338   0.8404   0.0797     C
O       0.2345   0.6229    0.461     O
N       0.2348   0.6502    0.617     N
H       0.2403   0.5063   0.4353     H
N       0.2405   0.9153   0.5527     N
N       0.2411   0.3996    0.781     N
C       0.2415   0.8469   0.1802     C
H       0.2419   0.3425   0.1078     H
C       0.2425   0.3917    0.976     C
H       0.2426   0.0158   0.7212     H
C       0.2437   0.9278   0.7555     C
H       0.2438   0.4697   0.1215     H
C        0.244   0.3844   0.0846     C
C        0.245   0.9745    0.696     C
C       0.2477   0.4286   0.1471     C
Cd     0.24934   0.4099  0.61241    Cd
C       0.2495   0.9691   0.5998     C
C       0.2505   0.4691   0.4002     C
Cd     0.25066   0.9099  0.38759    Cd
C       0.2523   0.9286   0.8529     C
C        0.255   0.4745    0.304     C
C        0.256   0.8844   0.9154     C
H       0.2562   0.9697   0.8785     H
C       0.2563   0.4278   0.2445     C
H       0.2574   0.5158   0.2788     H
C       0.2575   0.8917    0.024     C
H       0.2581   0.8425   0.8922     H
C       0.2585   0.3469   0.8198     C
N       0.2589   0.8996    0.219     N
N       0.2595   0.4153   0.4473     N
H       0.2597   0.0063   0.5647     H
N       0.2652   0.1502    0.383     N
O       0.2655   0.1229    0.539     O
C       0.2662   0.3404   0.9203     C
H       0.2667    0.311   0.7814     H
H        0.268   0.6893   0.8326     H
C       0.2704   0.3713   0.2929     C
C       0.2757   0.3665   0.3932     C
C        0.276   0.9509   0.1668     C
H       0.2769   0.3339   0.2572     H
C       0.2825   0.6882   0.7652     C
O       0.2827   0.0196   0.3674     O
H        0.283   0.9903   0.1972     H
C       0.2838   0.9478    0.069     C
H       0.2865   0.3026   0.9476     H
H       0.2911   0.3276   0.4209     H
C       0.2918     0.54    0.623     C
C        0.297   0.1518   0.4738     C
C       0.2979    0.184   0.2979     C
H       0.3058    0.982   0.0342     H
C       0.3087   0.6103    0.635     C
H       0.3097   0.5931   0.7815     H
H       0.3162   0.7258   0.7495     H
H       0.3193   0.2264   0.3141     H
O       0.3222   0.7956   0.4233     O
H       0.3242   0.2617   0.5577     H
C       0.3281   0.6277   0.7398     C
H       0.3426   0.1596   0.2668     H
O       0.3525   0.5021   0.6085     O
H       0.3559   0.6236   0.5937     H
O       0.3745   0.3586   0.6369     O
C       0.3753   0.2471    0.532     C
C       0.3782   0.1887   0.4843     C
H       0.3888   0.6335   0.7482     H
C       0.3904   0.8287   0.4289     C
O       0.3911   0.8882   0.4076     O
H       0.4278   0.7119   0.5088     H
H       0.4345   0.4177   0.9406     H
H       0.4345   0.4211   0.7758     H
H       0.4377   0.5841   0.4076     H
C       0.4392     0.35   0.5902     C
C       0.4484   0.2838   0.5414     C
C       0.4523   0.1649    0.454     C
H       0.4532   0.1246   0.4252     H
C       0.4611   0.4515   0.9089     C
C       0.4618   0.4536   0.8097     C
C       0.4663   0.5504    0.378     C
H       0.4676    0.586    0.235     H
C       0.4682   0.8001   0.4645     C
C       0.4756   0.7383   0.5058     C
C       0.4778   0.5487     0.27     C
C        0.494   0.4762   0.1174     C
O        0.499   0.3892   0.5776     O
C          0.5      0.5    0.226     C
N          0.5      0.5    0.431     N
Cd         0.5      0.5  0.59687    Cd
N          0.5      0.5   0.7618     N
C          0.5      0.5   0.9603     C
O        0.501   0.6108   0.5776     O
C        0.506   0.5238   0.1174     C
C       0.5222   0.4513     0.27     C
C       0.5244   0.2617   0.5058     C
C       0.5318   0.1999   0.4645     C
H       0.5324    0.414    0.235     H
C       0.5337   0.4496    0.378     C
C       0.5382   0.5464   0.8097     C
C       0.5389   0.5485   0.9089     C
H       0.5468   0.8754   0.4252     H
C       0.5477   0.8351    0.454     C
C       0.5516   0.7162   0.5414     C
C       0.5608     0.65   0.5902     C
H       0.5623   0.4159   0.4076     H
H       0.5655   0.5789   0.7758     H
H       0.5655   0.5823   0.9406     H
H       0.5722   0.2881   0.5088     H
O       0.6089   0.1118   0.4076     O
C       0.6096   0.1713   0.4289     C
H       0.6112   0.3665   0.7482     H
C       0.6218   0.8113   0.4843     C
C       0.6247   0.7529    0.532     C
O       0.6255   0.6414   0.6369     O
H       0.6441   0.3764   0.5937     H
O       0.6475   0.4979   0.6085     O
H       0.6574   0.8404   0.2668     H
C       0.6719   0.3723   0.7398     C
H       0.6758   0.7383   0.5577     H
O       0.6778   0.2044   0.4233     O
H       0.6807   0.7736   0.3141     H
H       0.6838   0.2742   0.7495     H
H       0.6903   0.4069   0.7815     H
C       0.6913   0.3897    0.635     C
H       0.6942    0.018   0.0342     H
C       0.7021    0.816   0.2979     C
C        0.703   0.8482   0.4738     C
C       0.7082     0.46    0.623     C
H       0.7089   0.6724   0.4209     H
H       0.7135   0.6974   0.9476     H
C       0.7162   0.0522    0.069     C
H        0.717   0.0097   0.1972     H
O       0.7173   0.9804   0.3674     O
C       0.7175   0.3118   0.7652     C
H       0.7231   0.6661   0.2572     H
C        0.724   0.0491   0.1668     C
C       0.7243   0.6335   0.3932     C
C       0.7296   0.6287   0.2929     C
H        0.732   0.3107   0.8326     H
H       0.7333    0.689   0.7814     H
C       0.7338   0.6596   0.9203     C
O       0.7345   0.8771    0.539     O
N       0.7348   0.8498    0.383     N
H       0.7403   0.9937   0.5647     H
N       0.7405   0.5847   0.4473     N
N       0.7411   0.1004    0.219     N
C       0.7415   0.6531   0.8198     C
H       0.7419   0.1575   0.8922     H
C       0.7425   0.1083    0.024     C
H       0.7426   0.4842   0.2788     H
C       0.7437   0.5722   0.2445     C
H       0.7438   0.0303   0.8785     H
C        0.744   0.1156   0.9154     C
C        0.745   0.5255    0.304     C
C       0.7477   0.0714   0.8529     C
Cd     0.74934   0.0901  0.38759    Cd
C       0.7495   0.5309   0.4002     C
C       0.7505   0.0309   0.5998     C
Cd     0.75066   0.5901  0.61241    Cd
C       0.7523   0.5714   0.1471     C
C        0.755   0.0255    0.696     C
C        0.756   0.6156   0.0846     C
H       0.7562   0.5303   0.1215     H
C       0.7563   0.0722   0.7555     C
H       0.7574   0.9842   0.7212     H
C       0.7575   0.6083    0.976     C
H       0.7581   0.6575   0.1078     H
C       0.7585   0.1531   0.1802     C
N       0.7589   0.6004    0.781     N
N       0.7595   0.0847   0.5527     N
H       0.7597   0.4937   0.4353     H
N       0.7652   0.3498    0.617     N
O       0.7655   0.3771    0.461     O
C       0.7662   0.1596   0.0797     C
H       0.7667    0.189   0.2186     H
H        0.768   0.8107   0.1674     H
C       0.7704   0.1287   0.7071     C
C       0.7757   0.1335   0.6068     C
C        0.776   0.5491   0.8332     C
H       0.7769   0.1661   0.7428     H
C       0.7825   0.8118   0.2348     C
O       0.7827   0.4804   0.6326     O
H        0.783   0.5097   0.8028     H
C       0.7838   0.5522    0.931     C
H       0.7865   0.1974   0.0524     H
H       0.7911   0.1724   0.5791     H
C       0.7918     0.96    0.377     C
C        0.797   0.3482   0.5262     C
C       0.7979    0.316   0.7021     C
H       0.8058    0.518   0.9658     H
C       0.8087   0.8897    0.365     C
H       0.8097   0.9069   0.2185     H
H       0.8162   0.7742   0.2505     H
H       0.8193   0.2736   0.6859     H
O       0.8222   0.7044   0.5767     O
H       0.8242   0.2383   0.4423     H
C       0.8281   0.8723   0.2602     C
H       0.8426   0.3404   0.7332     H
O       0.8525   0.9979   0.3915     O
H       0.8559   0.8764   0.4063     H
O       0.8745   0.1414   0.3631     O
C       0.8753   0.2529    0.468     C
C       0.8782   0.3113   0.5157     C
H       0.8888   0.8665   0.2518     H
C       0.8904   0.6713   0.5711     C
O       0.8911   0.6118   0.5924     O
H       0.9278   0.7881   0.4912     H
H       0.9345   0.0789   0.2242     H
H       0.9345   0.0823   0.0594     H
H       0.9377   0.9159   0.5924     H
C       0.9392     0.15   0.4098     C
C       0.9484   0.2162   0.4586     C
C       0.9523   0.3351    0.546     C
H       0.9532   0.3754   0.5748     H
C       0.9611   0.0485   0.0911     C
C       0.9618   0.0464   0.1903     C
C       0.9663   0.9496    0.622     C
H       0.9676    0.914    0.765     H
C       0.9682   0.6999   0.5355     C
C       0.9756   0.7617   0.4942     C
C       0.9778   0.9513     0.73     C
C        0.994   0.0238   0.8826     C
O        0.999   0.1108   0.4224     O
