data_I
_chemical_name_common  '/home/zhangsd/repos/MofS-CGCNN/ML/data/WS24/clean_cifs/HUXHUF01'
_cell_length_a 15.91330
_cell_length_b 20.95950
_cell_length_c 13.91430
_cell_angle_alpha 90.00000
_cell_angle_beta  90.00000
_cell_angle_gamma 90.00000
_space_group_name_H-M_alt      'P 1'


loop_
_space_group_symop_operation_xyz
  'x, y, z' 

loop_
_atom_site_label
_atom_site_fract_x
_atom_site_fract_y
_atom_site_fract_z
_atom_site_type_symbol
Cd         0.0      0.5  0.08258    Cd
N          0.0      0.5    0.249     N
C          0.0      0.5   0.7183     C
N          0.0      0.5   0.9192     N
O       0.0031  0.61146   0.0665     O
C        0.005    0.525    0.618     C
C       0.0217   0.2595    0.003     C
C       0.0225    0.482   0.4415     C
C       0.0285   0.1972   0.9644     C
C       0.0295    0.469   0.5746     C
C       0.0345   0.4523   0.8702     C
C       0.0373   0.4525    0.767     C
C       0.0496   0.8369   0.9558     C
H       0.0499   0.8765   0.9259     H
C       0.0509   0.5387   0.2948     C
C       0.0528    0.717   0.0376     C
C       0.0536   0.5403   0.3897     C
H       0.0574   0.4179   0.9035     H
C       0.0613   0.6503   0.0818     C
H       0.0647   0.4199   0.7342     H
H       0.0693   0.2852    0.005     H
H       0.0857   0.5657   0.2597     H
H        0.104    0.368   0.2301     H
O       0.1073   0.1092   0.9157     O
C        0.109   0.1682   0.9334     C
C       0.1214   0.8133   0.9894     C
C       0.1261   0.7538   0.0309     C
O       0.1262     0.64   0.1299     O
H       0.1437   0.3795    0.083     H
O       0.1452   0.4979    0.093     O
H       0.1549   0.0302   0.5471     H
H       0.1564   0.0895   0.4038     H
H       0.1616   0.8471   0.7736     H
C       0.1638   0.3768   0.2277     C
H       0.1695   0.5962   0.6069     H
O       0.1735   0.1996   0.9294     O
H       0.1753   0.4129   0.2692     H
H        0.177   0.7383    0.054     H
H       0.1819   0.2791    0.252     H
H       0.1834   0.0171   0.7082     H
H       0.1836   0.7794   0.8168     H
C       0.1851   0.0611   0.5803     C
C       0.1892   0.3923   0.1264     C
C       0.1995   0.0548   0.6782     C
C       0.2036   0.8508   0.9799     C
C       0.2053   0.8217   0.8035     C
C       0.2057   0.4621   0.1131     C
H       0.2068   0.1536   0.3994     H
C       0.2087   0.1098   0.4222     C
C       0.2131   0.3183   0.2627     C
H       0.2138   0.6828   0.2854     H
C       0.2143   0.1107   0.5357     C
H       0.2198   0.6887   0.4471     H
O       0.2208   0.9822   0.8774     O
H       0.2218   0.5327   0.6068     H
C       0.2225   0.5772   0.6259     C
H       0.2227    0.676   0.9102     H
H       0.2273   0.3218   0.3302     H
H       0.2279    0.675   0.7471     H
C       0.2293   0.6368   0.8795     C
C       0.2297   0.6367   0.7808     C
O       0.2312   0.8792    0.046     O
C       0.2326    0.582   0.7341     C
N       0.2354   0.1002   0.7312     N
C       0.2366   0.5288   0.7892     C
N       0.2374   0.5861   0.9337     N
H       0.2376   0.4886   0.7608     H
N       0.2376   0.8532   0.8939     N
C       0.2384   0.6491   0.3188     C
C        0.239   0.5347   0.8864     C
H       0.2421   0.4971   0.9217     H
C       0.2445   0.6544   0.4154     C
Cd     0.24856  0.09081  0.89891    Cd
Cd     0.25144  0.59081  0.10109    Cd
C       0.2555   0.1544   0.5846     C
H       0.2579   0.9971   0.0783     H
C        0.261   0.0347   0.1136     C
C       0.2616   0.1491   0.6812     C
N       0.2624   0.3532   0.1061     N
H       0.2624   0.9886   0.2392     H
N       0.2626   0.0861   0.0663     N
C       0.2634   0.0288   0.2108     C
N       0.2646   0.6002   0.2688     N
C       0.2674    0.082   0.2659     C
O       0.2688   0.3792    0.954     O
C       0.2703   0.1367   0.2192     C
C       0.2707   0.1368   0.1205     C
H       0.2721    0.175   0.2529     H
H       0.2727   0.8218   0.6698     H
H       0.2773    0.176   0.0898     H
C       0.2775   0.0772   0.3741     C
H       0.2782   0.0327   0.3932     H
O       0.2792   0.4822   0.1226     O
H       0.2802   0.1887   0.5529     H
C       0.2857   0.6107   0.4643     C
H       0.2862   0.1828   0.7146     H
C       0.2869   0.8183   0.7373     C
C       0.2913   0.6098   0.5778     C
H       0.2932   0.6536   0.6006     H
C       0.2943   0.9621   0.8869     C
C       0.2947   0.3217   0.1965     C
C       0.2964   0.3508   0.0201     C
C       0.3005   0.5548   0.3218     C
C       0.3108   0.8923   0.8736     C
C       0.3149   0.5611   0.4197     C
H       0.3164   0.2794   0.1832     H
H       0.3166   0.5171   0.2918     H
H       0.3181   0.7791    0.748     H
H        0.323   0.2383    0.946     H
H       0.3247   0.9129   0.7308     H
O       0.3265   0.6996   0.0706     O
H       0.3305   0.0962   0.3931     H
C       0.3362   0.8768   0.7723     C
H       0.3384   0.3471   0.2264     H
H       0.3436   0.5895   0.5962     H
H       0.3451   0.5302   0.4529     H
O       0.3548   0.9979    0.907     O
H       0.3563   0.8795    0.917     H
O       0.3738     0.14   0.8701     O
C       0.3739   0.2538   0.9691     C
C       0.3786   0.3133   0.0106     C
C        0.391   0.6682   0.0666     C
O       0.3927   0.6092   0.0843     O
H        0.396    0.868   0.7699     H
H       0.4143   0.0657   0.7403     H
H       0.4307   0.7852    0.995     H
H       0.4353   0.9199   0.2658     H
C       0.4387   0.1503   0.9182     C
H       0.4426   0.9179   0.0965     H
C       0.4464   0.0403   0.6103     C
C       0.4472    0.217   0.9624     C
C       0.4491   0.0387   0.7052     C
H       0.4501   0.3765   0.0741     H
C       0.4504   0.3369   0.0442     C
C       0.4627   0.9525    0.233     C
C       0.4655   0.9523   0.1298     C
C       0.4705    0.969   0.4254     C
C       0.4715   0.6972   0.0356     C
C       0.4775    0.982   0.5585     C
C       0.4783   0.7595    0.997     C
C        0.495    0.025    0.382     C
O       0.4969  0.11146   0.9335     O
N          0.5      0.0   0.0808     N
C          0.5      0.0   0.2817     C
N          0.5      0.0    0.751     N
Cd         0.5      0.0  0.91742    Cd
O       0.5031  0.88854   0.9335     O
C        0.505    0.975    0.382     C
C       0.5217   0.2405    0.997     C
C       0.5225    0.018   0.5585     C
C       0.5285   0.3028   0.0356     C
C       0.5295    0.031   0.4254     C
C       0.5345   0.0477   0.1298     C
C       0.5373   0.0475    0.233     C
C       0.5496   0.6631   0.0442     C
H       0.5499   0.6235   0.0741     H
C       0.5509   0.9613   0.7052     C
C       0.5528    0.783   0.9624     C
C       0.5536   0.9597   0.6103     C
H       0.5574   0.0821   0.0965     H
C       0.5613   0.8497   0.9182     C
H       0.5647   0.0801   0.2658     H
H       0.5693   0.2148    0.995     H
H       0.5857   0.9343   0.7403     H
H        0.604    0.132   0.7699     H
O       0.6073   0.3908   0.0843     O
C        0.609   0.3318   0.0666     C
C       0.6214   0.6867   0.0106     C
C       0.6261   0.7462   0.9691     C
O       0.6262     0.86   0.8701     O
H       0.6437   0.1205    0.917     H
O       0.6452   0.0021    0.907     O
H       0.6549   0.4698   0.4529     H
H       0.6564   0.4105   0.5962     H
H       0.6616   0.6529   0.2264     H
C       0.6638   0.1232   0.7723     C
H       0.6695   0.9038   0.3931     H
O       0.6735   0.3004   0.0706     O
H       0.6753   0.0871   0.7308     H
H        0.677   0.7617    0.946     H
H       0.6819   0.2209    0.748     H
H       0.6834   0.4829   0.2918     H
H       0.6836   0.7206   0.1832     H
C       0.6851   0.4389   0.4197     C
C       0.6892   0.1077   0.8736     C
C       0.6995   0.4452   0.3218     C
C       0.7036   0.6492   0.0201     C
C       0.7053   0.6783   0.1965     C
C       0.7057   0.0379   0.8869     C
H       0.7068   0.3464   0.6006     H
C       0.7087   0.3902   0.5778     C
C       0.7131   0.1817   0.7373     C
H       0.7138   0.8172   0.7146     H
C       0.7143   0.3893   0.4643     C
H       0.7198   0.8113   0.5529     H
O       0.7208   0.5178   0.1226     O
H       0.7218   0.9673   0.3932     H
C       0.7225   0.9228   0.3741     C
H       0.7227    0.824   0.0898     H
H       0.7273   0.1782   0.6698     H
H       0.7279    0.825   0.2529     H
C       0.7293   0.8632   0.1205     C
C       0.7297   0.8633   0.2192     C
O       0.7312   0.6208    0.954     O
C       0.7326    0.918   0.2659     C
N       0.7354   0.3998   0.2688     N
C       0.7366   0.9712   0.2108     C
N       0.7374   0.9139   0.0663     N
H       0.7376   0.0114   0.2392     H
N       0.7376   0.6468   0.1061     N
C       0.7384   0.8509   0.6812     C
C        0.739   0.9653   0.1136     C
H       0.7421   0.0029   0.0783     H
C       0.7445   0.8456   0.5846     C
Cd     0.74856  0.40919  0.10109    Cd
Cd     0.75144  0.90919  0.89891    Cd
C       0.7555   0.3456   0.4154     C
H       0.7579   0.5029   0.9217     H
C        0.761   0.4653   0.8864     C
C       0.7616   0.3509   0.3188     C
N       0.7624   0.1468   0.8939     N
H       0.7624   0.5114   0.7608     H
N       0.7626   0.4139   0.9337     N
C       0.7634   0.4712   0.7892     C
N       0.7646   0.8998   0.7312     N
C       0.7674    0.418   0.7341     C
O       0.7688   0.1208    0.046     O
C       0.7703   0.3633   0.7808     C
C       0.7707   0.3632   0.8795     C
H       0.7721    0.325   0.7471     H
H       0.7727   0.6782   0.3302     H
H       0.7773    0.324   0.9102     H
C       0.7775   0.4228   0.6259     C
H       0.7782   0.4673   0.6068     H
O       0.7792   0.0178   0.8774     O
H       0.7802   0.3113   0.4471     H
C       0.7857   0.8893   0.5357     C
H       0.7862   0.3172   0.2854     H
C       0.7869   0.6817   0.2627     C
C       0.7913   0.8902   0.4222     C
H       0.7932   0.8464   0.3994     H
C       0.7943   0.5379   0.1131     C
C       0.7947   0.1783   0.8035     C
C       0.7964   0.1492   0.9799     C
C       0.8005   0.9452   0.6782     C
C       0.8108   0.6077   0.1264     C
C       0.8149   0.9389   0.5803     C
H       0.8164   0.2206   0.8168     H
H       0.8166   0.9829   0.7082     H
H       0.8181   0.7209    0.252     H
H        0.823   0.2617    0.054     H
H       0.8247   0.5871   0.2692     H
O       0.8265   0.8004   0.9294     O
H       0.8305   0.4038   0.6069     H
C       0.8362   0.6232   0.2277     C
H       0.8384   0.1529   0.7736     H
H       0.8436   0.9105   0.4038     H
H       0.8451   0.9698   0.5471     H
O       0.8548   0.5021    0.093     O
H       0.8563   0.6205    0.083     H
O       0.8738     0.36   0.1299     O
C       0.8739   0.2462   0.0309     C
C       0.8786   0.1867   0.9894     C
C        0.891   0.8318   0.9334     C
O       0.8927   0.8908   0.9157     O
H        0.896    0.632   0.2301     H
H       0.9143   0.4343   0.2597     H
H       0.9307   0.7148    0.005     H
H       0.9353   0.5801   0.7342     H
C       0.9387   0.3497   0.0818     C
H       0.9426   0.5821   0.9035     H
C       0.9464   0.4597   0.3897     C
C       0.9472    0.283   0.0376     C
C       0.9491   0.4613   0.2948     C
H       0.9501   0.1235   0.9259     H
C       0.9504   0.1631   0.9558     C
C       0.9627   0.5475    0.767     C
C       0.9655   0.5477   0.8702     C
C       0.9705    0.531   0.5746     C
C       0.9715   0.8028   0.9644     C
C       0.9775    0.518   0.4415     C
C       0.9783   0.7405    0.003     C
C        0.995    0.475    0.618     C
O       0.9969  0.38854   0.0665     O
