data_I
_chemical_name_common  '/home/zhangsd/repos/MofS-CGCNN/ML/data/WS24/clean_cifs/HUXHOZ'
_cell_length_a 15.84540
_cell_length_b 20.99470
_cell_length_c 13.98090
_cell_angle_alpha 90.00000
_cell_angle_beta  90.00000
_cell_angle_gamma 90.00000
_space_group_name_H-M_alt      'P 1'


loop_
_space_group_symop_operation_xyz
  'x, y, z' 

loop_
_atom_site_label
_atom_site_fract_x
_atom_site_fract_y
_atom_site_fract_z
_atom_site_type_symbol
C          0.0      0.5   0.0562     C
N          0.0      0.5   0.2534     N
Cd         0.0      0.5  0.41985    Cd
N          0.0      0.5   0.5862     N
C          0.0      0.5   0.7866     C
O       0.0001  0.61026   0.4365     O
C        0.003    0.469    0.928     C
C        0.019    0.528    0.867     C
C       0.0273   0.2611   0.5002     C
C       0.0304   0.4487   0.6335     C
C       0.0324   0.4513   0.7377     C
C       0.0335   0.5469   0.1093     C
C       0.0346   0.1992   0.5354     C
C       0.0356   0.5467   0.2073     C
H       0.0391   0.8782   0.5622     H
C       0.0406    0.837    0.538     C
C       0.0485   0.7161   0.4648     C
H       0.0493   0.4129   0.6007     H
H       0.0568   0.5816   0.0776     H
C       0.0572   0.6489   0.4219     C
H       0.0622   0.5794   0.2404     H
H       0.0744   0.2876   0.5005     H
H        0.106   0.3573    0.284     H
C       0.1147    0.813   0.5059     C
C       0.1149   0.1709    0.567     C
O       0.1153   0.1123   0.5826     O
C       0.1197   0.7553   0.4689     C
O       0.1233   0.6398   0.3749     O
O       0.1444    0.496   0.4079     O
H       0.1486   0.3767   0.4301     H
H       0.1582    0.841    0.724     H
C       0.1645   0.3709   0.2832     C
H       0.1692   0.4073   0.2408     H
H       0.1711   0.7406   0.4454     H
O       0.1791   0.2043    0.572     O
H       0.1857   0.7759   0.6769     H
H         0.19   0.2773   0.2527     H
C       0.1913   0.3899   0.3835     C
C       0.1944   0.8526   0.5139     C
C       0.2039   0.8188   0.6923     C
C       0.2064   0.4603   0.3902     C
H        0.213    0.023    0.958     H
C       0.2189   0.3178    0.247     C
O       0.2205   0.9823   0.6204     O
H       0.2218   0.7008   0.0653     H
O       0.2222   0.8812   0.4477     O
H       0.2239   0.6888   0.2285     H
H       0.2247   0.6812   0.5895     H
H        0.226   0.0121   0.7982     H
H       0.2279   0.6757   0.7552     H
C        0.229   0.6419   0.6197     C
C       0.2301   0.0578   0.9216     C
C       0.2309   0.6386    0.719     C
N       0.2321   0.8544   0.6025     N
H       0.2334   0.3246   0.1803     H
N       0.2336   0.5864   0.5657     N
C       0.2337   0.0522   0.8251     C
C       0.2339   0.6612   0.0917     C
C       0.2357   0.6533   0.1909     C
H       0.2369   0.5366   0.8932     H
C       0.2373   0.5798   0.7642     C
C       0.2392   0.5777   0.8684     C
C         0.24  0.52767   0.6109     C
C       0.2418   0.5244   0.7102     C
H        0.242   0.6593   0.9052     H
H        0.243   0.4906   0.5748     H
C       0.2432   0.6177    0.928     C
H       0.2461   0.4851   0.7405     H
Cd     0.24697  0.58997  0.39889    Cd
N       0.2479   0.1015   0.7665     N
C       0.2498   0.6114   0.0351     C
C       0.2502   0.1114   0.9649     C
N       0.2521   0.6015   0.2335     N
Cd     0.25303  0.08997  0.60111    Cd
H       0.2539   0.9851   0.2595     H
C       0.2568   0.1177    0.072     C
H        0.257   0.9906   0.4252     H
H        0.258   0.1593   0.0948     H
C       0.2582   0.0244   0.2898     C
C         0.26  0.02767   0.3891     C
C       0.2608   0.0777   0.1316     C
C       0.2627   0.0798   0.2358     C
H       0.2631   0.0366   0.1068     H
C       0.2643   0.1533   0.8091     C
C       0.2661   0.1612   0.9083     C
C       0.2663   0.5522   0.1749     C
N       0.2664   0.0864   0.4343     N
H       0.2666   0.8246   0.8197     H
N       0.2679   0.3544   0.3975     N
C       0.2691   0.1386    0.281     C
C       0.2699   0.5578   0.0784     C
C        0.271   0.1419   0.3803     C
H       0.2721   0.1757   0.2448     H
H        0.274   0.5121   0.2018     H
H       0.2753   0.1812   0.4105     H
H       0.2761   0.1888   0.7715     H
O       0.2778   0.3812   0.5523     O
H       0.2782   0.2008   0.9347     H
O       0.2795   0.4823   0.3796     O
C       0.2811   0.8178    0.753     C
H        0.287    0.523    0.042     H
C       0.2936   0.9603   0.6098     C
C       0.2961   0.3188   0.3077     C
C       0.3056   0.3526   0.4861     C
C       0.3087   0.8899   0.6165     C
H         0.31   0.7773   0.7473     H
H       0.3143   0.2759   0.3231     H
O       0.3209   0.7043    0.428     O
H       0.3289   0.2406   0.5546     H
H       0.3308   0.9073   0.7592     H
C       0.3355   0.8709   0.7168     C
H       0.3418    0.341    0.276     H
H       0.3514   0.8767   0.5699     H
O       0.3556    0.996   0.5921     O
O       0.3767   0.1398   0.6251     O
C       0.3803   0.2553   0.5311     C
O       0.3847   0.6123   0.4174     O
C       0.3851   0.6709    0.433     C
C       0.3853    0.313   0.4941     C
H        0.394   0.8573    0.716     H
H       0.4256   0.7876   0.4995     H
H       0.4378   0.0794   0.7596     H
C       0.4428   0.1489   0.5781     C
H       0.4432   0.0816   0.9224     H
H       0.4507   0.9129   0.3993     H
C       0.4515   0.2161   0.5352     C
C       0.4594    0.337    0.462     C
H       0.4609   0.3782   0.4378     H
C       0.4644   0.0467   0.7927     C
C       0.4654   0.6992   0.4646     C
C       0.4665   0.0469   0.8907     C
C       0.4676   0.9513   0.2623     C
C       0.4696   0.9487   0.3665     C
C       0.4727   0.7611   0.4998     C
C        0.481    0.028    0.133     C
C        0.497    0.969    0.072     C
O       0.4999  0.11026   0.5635     O
C          0.5      0.0   0.2134     C
N          0.5      0.0   0.4138     N
Cd         0.5      0.0  0.58015    Cd
N          0.5      0.0   0.7466     N
C          0.5      0.0   0.9438     C
O       0.5001  0.88974   0.5635     O
C        0.503    0.031    0.072     C
C        0.519    0.972    0.133     C
C       0.5273   0.2389   0.4998     C
C       0.5304   0.0513   0.3665     C
C       0.5324   0.0487   0.2623     C
C       0.5335   0.9531   0.8907     C
C       0.5346   0.3008   0.4646     C
C       0.5356   0.9533   0.7927     C
H       0.5391   0.6218   0.4378     H
C       0.5406    0.663    0.462     C
C       0.5485   0.7839   0.5352     C
H       0.5493   0.0871   0.3993     H
H       0.5568   0.9184   0.9224     H
C       0.5572   0.8511   0.5781     C
H       0.5622   0.9206   0.7596     H
H       0.5744   0.2124   0.4995     H
H        0.606   0.1427    0.716     H
C       0.6147    0.687   0.4941     C
C       0.6149   0.3291    0.433     C
O       0.6153   0.3877   0.4174     O
C       0.6197   0.7447   0.5311     C
O       0.6233   0.8602   0.6251     O
O       0.6444    0.004   0.5921     O
H       0.6486   0.1233   0.5699     H
H       0.6582    0.659    0.276     H
C       0.6645   0.1291   0.7168     C
H       0.6692   0.0927   0.7592     H
H       0.6711   0.7594   0.5546     H
O       0.6791   0.2957    0.428     O
H       0.6857   0.7241   0.3231     H
H         0.69   0.2227   0.7473     H
C       0.6913   0.1101   0.6165     C
C       0.6944   0.6474   0.4861     C
C       0.7039   0.6812   0.3077     C
C       0.7064   0.0397   0.6098     C
H        0.713    0.477    0.042     H
C       0.7189   0.1822    0.753     C
O       0.7205   0.5177   0.3796     O
H       0.7218   0.7992   0.9347     H
O       0.7222   0.6188   0.5523     O
H       0.7239   0.8112   0.7715     H
H       0.7247   0.8188   0.4105     H
H        0.726   0.4879   0.2018     H
H       0.7279   0.8243   0.2448     H
C        0.729   0.8581   0.3803     C
C       0.7301   0.4422   0.0784     C
C       0.7309   0.8614    0.281     C
N       0.7321   0.6456   0.3975     N
H       0.7334   0.1754   0.8197     H
N       0.7336   0.9136   0.4343     N
C       0.7337   0.4478   0.1749     C
C       0.7339   0.8388   0.9083     C
C       0.7357   0.8467   0.8091     C
H       0.7369   0.9634   0.1068     H
C       0.7373   0.9202   0.2358     C
C       0.7392   0.9223   0.1316     C
C         0.74  0.97233   0.3891     C
C       0.7418   0.9756   0.2898     C
H        0.742   0.8407   0.0948     H
H        0.743   0.0094   0.4252     H
C       0.7432   0.8823    0.072     C
H       0.7461   0.0149   0.2595     H
Cd     0.74697  0.91004  0.60111    Cd
N       0.7479   0.3985   0.2335     N
C       0.7498   0.8886   0.9649     C
C       0.7502   0.3886   0.0351     C
N       0.7521   0.8985   0.7665     N
Cd     0.75303  0.41003  0.39889    Cd
H       0.7539   0.5149   0.7405     H
C       0.7568   0.3823    0.928     C
H        0.757   0.5094   0.5748     H
H        0.758   0.3407   0.9052     H
C       0.7582   0.4756   0.7102     C
C         0.76  0.47233   0.6109     C
C       0.7608   0.4223   0.8684     C
C       0.7627   0.4202   0.7642     C
H       0.7631   0.4634   0.8932     H
C       0.7643   0.3467   0.1909     C
C       0.7661   0.3388   0.0917     C
C       0.7663   0.9478   0.8251     C
N       0.7664   0.4136   0.5657     N
H       0.7666   0.6754   0.1803     H
N       0.7679   0.1456   0.6025     N
C       0.7691   0.3614    0.719     C
C       0.7699   0.9422   0.9216     C
C        0.771   0.3581   0.6197     C
H       0.7721   0.3243   0.7552     H
H        0.774   0.9879   0.7982     H
H       0.7753   0.3188   0.5895     H
H       0.7761   0.3112   0.2285     H
O       0.7778   0.1188   0.4477     O
H       0.7782   0.2992   0.0653     H
O       0.7795   0.0177   0.6204     O
C       0.7811   0.6822    0.247     C
H        0.787    0.977    0.958     H
C       0.7936   0.5397   0.3902     C
C       0.7961   0.1812   0.6923     C
C       0.8056   0.1474   0.5139     C
C       0.8087   0.6101   0.3835     C
H         0.81   0.7227   0.2527     H
H       0.8143   0.2241   0.6769     H
O       0.8209   0.7957    0.572     O
H       0.8289   0.2594   0.4454     H
H       0.8308   0.5927   0.2408     H
C       0.8355   0.6291   0.2832     C
H       0.8418    0.159    0.724     H
H       0.8514   0.6233   0.4301     H
O       0.8556    0.504   0.4079     O
O       0.8767   0.3602   0.3749     O
C       0.8803   0.2447   0.4689     C
O       0.8847   0.8877   0.5826     O
C       0.8851   0.8291    0.567     C
C       0.8853    0.187   0.5059     C
H        0.894   0.6427    0.284     H
H       0.9256   0.7124   0.5005     H
H       0.9378   0.4206   0.2404     H
C       0.9428   0.3511   0.4219     C
H       0.9432   0.4184   0.0776     H
H       0.9507   0.5871   0.6007     H
C       0.9515   0.2839   0.4648     C
C       0.9594    0.163    0.538     C
H       0.9609   0.1218   0.5622     H
C       0.9644   0.4533   0.2073     C
C       0.9654   0.8008   0.5354     C
C       0.9665   0.4531   0.1093     C
C       0.9676   0.5487   0.7377     C
C       0.9696   0.5513   0.6335     C
C       0.9727   0.7389   0.5002     C
C        0.981    0.472    0.867     C
C        0.997    0.531    0.928     C
O       0.9999  0.38974   0.4365     O
