data_I
_chemical_name_common  '/home/zhangsd/repos/MofS-CGCNN/ML/data/WS24/clean_cifs/HUXHEP'
_cell_length_a 22.81560
_cell_length_b  6.99550
_cell_length_c 14.40430
_cell_angle_alpha 90.00000
_cell_angle_beta  106.69400
_cell_angle_gamma 90.00000
_space_group_name_H-M_alt      'P 1'


loop_
_space_group_symop_operation_xyz
  'x, y, z' 

loop_
_atom_site_label
_atom_site_fract_x
_atom_site_fract_y
_atom_site_fract_z
_atom_site_type_symbol
Cd         0.0  0.01178      0.0    Cd
N          0.0     0.31      0.0     N
O       0.0056   0.8722   0.7674     O
N       0.0061    0.703   0.0382     N
N       0.0071    0.349    0.065     N
H       0.0481    0.935   0.6231     H
C       0.0501    0.426   0.9727     C
C       0.0514   0.9752   0.8108     C
C       0.0537    0.598   0.9935     C
C       0.0598    0.443    0.048     C
O       0.0624   0.0265   0.8962     O
O       0.0712   0.9052    0.459     O
C       0.0844   0.9947   0.6569     C
Cd     0.08854  0.97942  0.30818    Cd
O       0.0916   0.0092   0.1291     O
C       0.0955   0.0353   0.7552     C
C       0.1149   0.0111   0.5034     C
C       0.1268   0.0426   0.6095     C
O       0.1477   0.0876   0.4599     O
C       0.1479   0.0382   0.1669     C
C       0.1489   0.1282   0.8051     C
H       0.1557   0.1585   0.8702     H
H       0.1639   0.4958   0.8464     H
H       0.1703   0.9701    0.041     H
O       0.1705   0.0599    0.256     O
C       0.1816   0.1327   0.6613     C
H       0.1861   0.2867   0.0252     H
H       0.1876   0.6261   0.7749     H
C       0.1904   0.0327   0.1028     C
C       0.1925   0.1764   0.7581     C
C       0.1989   0.5647   0.8379     C
O       0.1995   0.6748   0.1801     O
H       0.2009   0.8289    0.907     H
H       0.2108   0.1631   0.6299     H
H       0.2109    0.319   0.1381     H
C        0.212   0.2341   0.0854     C
H       0.2225   0.6592   0.9818     H
C       0.2235   0.7096   0.9196     C
C       0.2469   0.7621   0.1891     C
N       0.2487   0.9395   0.1502     N
N       0.2513   0.4395   0.8498     N
C       0.2531   0.2621   0.8109     C
C       0.2765   0.2096   0.0804     C
H       0.2775   0.1592   0.0182     H
C        0.288   0.7341   0.9146     C
H       0.2891    0.819   0.8619     H
H       0.2892   0.6631   0.3701     H
H       0.2991   0.3289    0.093     H
O       0.3005   0.1748   0.8199     O
C       0.3011   0.0647   0.1621     C
C       0.3075   0.6764   0.2419     C
C       0.3096   0.5327   0.8972     C
H       0.3124   0.1261   0.2251     H
H       0.3139   0.7867   0.9748     H
C       0.3184   0.6327   0.3387     C
O       0.3295   0.5599    0.744     O
H       0.3297   0.4701    0.959     H
H       0.3361   0.9958   0.1536     H
H       0.3443   0.6585   0.1298     H
C       0.3511   0.6282   0.1949     C
C       0.3521   0.5382   0.8331     C
O       0.3523   0.5876   0.5401     O
C       0.3732   0.5426   0.3905     C
C       0.3851   0.5111   0.4966     C
C       0.4045   0.5353   0.2448     C
O       0.4084   0.5092   0.8709     O
Cd     0.41146  0.47942  0.69182    Cd
C       0.4156   0.4947   0.3431     C
O       0.4288   0.4052    0.541     O
O       0.4376   0.5265   0.1038     O
C       0.4402    0.943    0.952     C
C       0.4463    0.098   0.0065     C
C       0.4486   0.4752   0.1892     C
C       0.4499    0.926   0.0273     C
H       0.4519    0.435   0.3769     H
N       0.4929    0.849    0.935     N
N       0.4939    0.203   0.9618     N
O       0.4944   0.3722   0.2326     O
Cd         0.5  0.51178      0.0    Cd
N          0.5     0.81      0.0     N
O       0.5056   0.3722   0.7674     O
N       0.5061    0.203   0.0382     N
N       0.5071    0.849    0.065     N
H       0.5481    0.435   0.6231     H
C       0.5501    0.926   0.9727     C
C       0.5514   0.4752   0.8108     C
C       0.5537    0.098   0.9935     C
C       0.5598    0.943    0.048     C
O       0.5624   0.5265   0.8962     O
O       0.5712   0.4052    0.459     O
C       0.5844   0.4947   0.6569     C
Cd     0.58854  0.47942  0.30818    Cd
O       0.5916   0.5092   0.1291     O
C       0.5955   0.5353   0.7552     C
C       0.6149   0.5111   0.5034     C
C       0.6268   0.5426   0.6095     C
O       0.6477   0.5876   0.4599     O
C       0.6479   0.5382   0.1669     C
C       0.6489   0.6282   0.8051     C
H       0.6557   0.6585   0.8702     H
H       0.6639   0.9958   0.8464     H
H       0.6703   0.4701    0.041     H
O       0.6705   0.5599    0.256     O
C       0.6816   0.6327   0.6613     C
H       0.6861   0.7867   0.0252     H
H       0.6876   0.1261   0.7749     H
C       0.6904   0.5327   0.1028     C
C       0.6925   0.6764   0.7581     C
C       0.6989   0.0647   0.8379     C
O       0.6995   0.1748   0.1801     O
H       0.7009   0.3289    0.907     H
H       0.7108   0.6631   0.6299     H
H       0.7109    0.819   0.1381     H
C        0.712   0.7341   0.0854     C
H       0.7225   0.1592   0.9818     H
C       0.7235   0.2096   0.9196     C
C       0.7469   0.2621   0.1891     C
N       0.7487   0.4395   0.1502     N
N       0.7513   0.9395   0.8498     N
C       0.7531   0.7621   0.8109     C
C       0.7765   0.7096   0.0804     C
H       0.7775   0.6592   0.0182     H
C        0.788   0.2341   0.9146     C
H       0.7891    0.319   0.8619     H
H       0.7892   0.1631   0.3701     H
H       0.7991   0.8289    0.093     H
O       0.8005   0.6748   0.8199     O
C       0.8011   0.5647   0.1621     C
C       0.8075   0.1764   0.2419     C
C       0.8096   0.0327   0.8972     C
H       0.8124   0.6261   0.2251     H
H       0.8139   0.2867   0.9748     H
C       0.8184   0.1327   0.3387     C
O       0.8295   0.0599    0.744     O
H       0.8297   0.9701    0.959     H
H       0.8361   0.4958   0.1536     H
H       0.8443   0.1585   0.1298     H
C       0.8511   0.1282   0.1949     C
C       0.8521   0.0382   0.8331     C
O       0.8523   0.0876   0.5401     O
C       0.8732   0.0426   0.3905     C
C       0.8851   0.0111   0.4966     C
C       0.9045   0.0353   0.2448     C
O       0.9084   0.0092   0.8709     O
Cd     0.91146  0.97942  0.69182    Cd
C       0.9156   0.9947   0.3431     C
O       0.9288   0.9052    0.541     O
O       0.9376   0.0265   0.1038     O
C       0.9402    0.443    0.952     C
C       0.9463    0.598   0.0065     C
C       0.9486   0.9752   0.1892     C
C       0.9499    0.426   0.0273     C
H       0.9519    0.935   0.3769     H
N       0.9929    0.349    0.935     N
N       0.9939    0.703   0.9618     N
O       0.9944   0.8722   0.2326     O
