data_I
_chemical_name_common  '/home/zhangsd/repos/MofS-CGCNN/ML/data/WS24/clean_cifs/HUXHIT'
_cell_length_a 13.46170
_cell_length_b 19.99560
_cell_length_c 17.27340
_cell_angle_alpha 90.00000
_cell_angle_beta  110.77700
_cell_angle_gamma 90.00000
_space_group_name_H-M_alt      'P 1'


loop_
_space_group_symop_operation_xyz
  'x, y, z' 

loop_
_atom_site_label
_atom_site_fract_x
_atom_site_fract_y
_atom_site_fract_z
_atom_site_type_symbol
H       0.0066   0.2226   0.0121     H
H       0.0096   0.1861   0.6713     H
C        0.011   0.2805   0.1145     C
O       0.0114   0.9053   0.8346     O
O       0.0129   0.9777   0.5997     O
N       0.0184   0.2415   0.7679     N
H       0.0277   0.2708   0.1728     H
H        0.041   0.1802   0.0946     H
O       0.0467   0.0782   0.2708     O
C       0.0475   0.2233    0.071     C
C        0.052   0.3979    0.127     C
C       0.0571   0.2049   0.7195     C
H       0.0574   0.0276   0.7643     H
H       0.0628   0.2884   0.8733     H
H       0.0648   0.7883   0.9112     H
O       0.0715   0.9861    0.573     O
N       0.0722   0.3383   0.1032     N
H        0.075   0.0886   0.3196     H
C       0.0882   0.2646    0.838     C
H       0.0884    0.326   0.6591     H
C       0.0904   0.9412   0.6432     C
H       0.0929   0.4172   0.7456     H
H       0.0984   0.8188   0.7064     H
C       0.1008   0.4598   0.1073     C
H       0.1013   0.4318   0.9925     H
H       0.1061   0.2831   0.5328     H
H       0.1075    0.335   0.4651     H
C       0.1087   0.8167    0.656     C
C       0.1088    0.368   0.6473     C
H         0.11    0.918   0.2506     H
C       0.1108    0.424    0.699     C
H        0.112   0.0115    0.175     H
C       0.1121    0.468   0.0284     C
O       0.1121   0.6367   0.6344     O
C        0.113   0.8742   0.6148     C
H       0.1142   0.5092   0.2125     H
H       0.1143   0.0611   0.7084     H
C       0.1181   0.6911   0.6695     C
H       0.1194   0.0177   0.9779     H
C       0.1194   0.7557   0.6231     C
C       0.1198   0.5143   0.1606     C
C        0.121   0.0272   0.7501     C
C        0.124   0.9133   0.2019     C
H        0.126   0.0632   0.0534     H
C       0.1262   0.9698   0.1575     C
C       0.1281    0.871   0.5394     C
H       0.1285   0.9103   0.5107     H
O       0.1286   0.6959   0.7451     O
C       0.1351   0.7504   0.5478     C
Cd     0.13605  0.57691  0.76428    Cd
N       0.1366   0.4842   0.6841     N
C       0.1383    0.378   0.5784     C
N       0.1386   0.9605   0.7206     N
C       0.1391     0.53   0.0056     C
H       0.1404   0.7088   0.5256     H
N       0.1414   0.8506   0.1783     N
C       0.1427   0.8097   0.5059     C
C       0.1432   0.3216   0.5223     C
C       0.1445   0.5408   0.9205     C
O       0.1448   0.4905   0.8762     O
O       0.1462      0.6   0.8981     O
H       0.1473   0.3313   0.0216     H
C       0.1475   0.5769   0.1372     C
C       0.1501   0.9638   0.0854     C
C       0.1558   0.5837    0.059     C
C       0.1586   0.0255   0.0362     C
C       0.1597   0.8054   0.4248     C
O        0.161   0.8589   0.3852     O
C       0.1612   0.3186   0.0793     C
C       0.1613   0.8453   0.1085     C
C       0.1619   0.1944   0.7384     C
C       0.1623   0.6367   0.1918     C
Cd     0.16379  0.75827  0.26866    Cd
O       0.1642   0.6935   0.1581     O
C        0.165   0.2407   0.0876     C
C       0.1663   0.4412   0.5651     C
C       0.1665   0.4931    0.617     C
C       0.1668   0.9005   0.0599     C
O        0.168   0.6316   0.2656     O
O       0.1719   0.7482   0.4017     O
H       0.1723   0.8029   0.0909     H
H       0.1729   0.6251   0.0427     H
H       0.1812   0.8947   0.0115     H
H       0.1849   0.1701    0.702     H
H       0.1859   0.4494   0.5195     H
H       0.1874   0.5354   0.6063     H
H       0.1899   0.2201   0.0469     H
C       0.1984   0.2551   0.8618     C
H       0.2001    0.066   0.8643     H
H       0.2042   0.8831   0.7992     H
H       0.2103   0.2268   0.1426     H
C       0.2171   0.0386   0.8244     C
H       0.2184   0.9585    0.896     H
C       0.2289    0.926   0.7854     C
C       0.2362    0.219   0.8107     C
H       0.2446   0.2728   0.9112     H
C       0.2547   0.9727   0.8593     C
C       0.2605   0.3018   0.5356     C
H       0.2615   0.2734   0.4903     H
C       0.2684   0.3464   0.1346     C
H       0.2714   0.0613   0.8093     H
C       0.2725   0.0429   0.0479     C
H       0.2725   0.0765   0.0074     H
O       0.2807    0.363   0.2091     O
H       0.2858   0.2191    0.612     H
H       0.2932   0.2864   0.6605     H
H       0.3011   0.3418   0.5354     H
H       0.3074   0.0034   0.0373     H
H       0.3101   0.1131   0.1406     H
C       0.3124   0.2647   0.6176     C
H       0.3191   0.6694    0.632     H
H       0.3209   0.4784   0.4615     H
H       0.3247   0.4546   0.3308     H
C       0.3254   0.9143   0.7617     C
H       0.3255   0.0397   0.1749     H
N       0.3255   0.5796   0.8126     N
H       0.3305   0.9735   0.8901     H
O        0.335   0.9457   0.7018     O
C       0.3361   0.0691   0.1337     C
H        0.339   0.4815   0.8174     H
O       0.3421   0.3502   0.1058     O
N       0.3467   0.7661   0.3124     N
H       0.3497   0.6747   0.8222     H
C       0.3541   0.2087   0.8299     C
H       0.3545   0.7698      0.7     H
H       0.3554   0.8234   0.2236     H
H       0.3626   0.5821   0.5599     H
H       0.3634     0.17   0.7993     H
H       0.3684   0.2771    0.321     H
H       0.3747   0.7053   0.4063     H
H       0.3775   0.9172    0.442     H
C       0.3779   0.5208   0.8225     C
H       0.3792   0.9018   0.5752     H
H       0.3815   0.2473   0.8098     H
C       0.3828   0.4623   0.4559     C
C        0.384   0.6903   0.6414     C
C       0.3841   0.6338   0.8262     C
C       0.3857   0.4481    0.377     C
H       0.3916   0.1614   0.9414     H
O       0.3928   0.8747   0.8081     O
C       0.3965   0.7998   0.2704     C
H       0.3973   0.1773   0.3867     H
H       0.4025   0.4632   0.6119     H
C       0.4062    0.751   0.6824     C
C       0.4077   0.7295   0.3762     C
H       0.4152   0.2384   0.9508     H
H       0.4185   0.0479   0.3648     H
C         0.42   0.1987     0.92     C
H        0.421   0.6853   0.0079     H
H       0.4293   0.5505    0.266     H
C       0.4318   0.2635   0.6428     C
C       0.4324   0.2552   0.3295     C
C        0.435   0.5528   0.2139     C
H       0.4355   0.7205   0.0924     H
C       0.4366   0.5943   0.5734     C
H       0.4375   0.6532   0.2121     H
N       0.4382   0.4946   0.1754     N
C       0.4382   0.9268   0.4874     C
C       0.4395   0.6148   0.1824     C
C       0.4407   0.9162   0.5675     C
H       0.4425   0.4594   0.0703     H
C       0.4425   0.4986   0.0992     C
H       0.4449   0.1981   0.5561     H
C        0.447   0.5608   0.0615     C
C       0.4474   0.6189   0.1028     C
C       0.4497   0.1953   0.3696     C
H       0.4497    0.562   0.0085     H
H       0.4518   0.5956   0.5226     H
C       0.4529   0.0734   0.1483     C
C       0.4576   0.6614   0.6149     C
C       0.4621    0.685   0.0667     C
H       0.4639   0.3285    0.737     H
Cd     0.46804  0.38949  0.23787    Cd
H         0.47   0.1751   0.1448     H
C       0.4707   0.4522   0.5236     C
N       0.4724   0.4259   0.3667     N
C        0.473   0.4694   0.6097     C
H        0.479   0.9391   0.3505     H
C       0.4837   0.2255   0.5999     C
H       0.4842   0.9739   0.1564     H
C       0.4845   0.5158   0.8397     C
H       0.4903   0.0512   0.3105     H
C       0.4906   0.0425   0.3659     C
C        0.493   0.6348   0.8459     C
C       0.4947   0.3016   0.7078     C
N        0.497   0.7842   0.6982     N
N        0.503   0.2842   0.3018     N
C       0.5053   0.8016   0.2922     C
C        0.507   0.1348   0.1541     C
C       0.5094   0.5425   0.6341     C
H       0.5097   0.5512   0.6895     H
C       0.5155   0.0158   0.1603     C
H       0.5158   0.4739   0.8436     H
C       0.5163   0.7255   0.4001     C
H        0.521   0.4391   0.6495     H
C        0.527   0.9694   0.3903     C
N       0.5276   0.9259   0.6333     N
C       0.5293   0.9522   0.4764     C
H         0.53   0.6751   0.8552     H
Cd     0.53196  0.88949  0.76213    Cd
H       0.5361   0.8285    0.263     H
C       0.5379    0.185   0.9333     C
C       0.5424   0.1614   0.3851     C
C       0.5471   0.5734   0.8517     C
H       0.5482   0.0956   0.4774     H
H       0.5503    0.062   0.9915     H
C       0.5503   0.6953   0.6304     C
C       0.5526   0.1189   0.8972     C
C        0.553   0.0608   0.9385     C
H       0.5551   0.6981   0.4439     H
H       0.5575   0.9594   0.9297     H
C       0.5575   0.9986   0.9008     C
C       0.5593   0.4162   0.4325     C
C       0.5605   0.1148   0.8176     C
C       0.5618   0.4268   0.5126     C
N       0.5618   0.9946   0.8246     N
H       0.5625   0.1532   0.7879     H
C       0.5634   0.0943   0.4266     C
H       0.5645   0.2205   0.9076     H
C        0.565   0.0528   0.7861     C
C       0.5676   0.7552   0.6705     C
C       0.5682   0.7635   0.3572     C
H       0.5707   0.0505    0.734     H
H        0.579   0.1853   0.9921     H
C         0.58   0.6987     0.08     C
H       0.5815   0.5479   0.6352     H
H       0.5848   0.7384   0.0492     H
C       0.5923   0.2295   0.6238     C
C       0.5938    0.251   0.3176     C
H       0.5975   0.9632   0.3881     H
H       0.6027   0.6773   0.6133     H
C       0.6035   0.2998   0.7296     C
O       0.6072   0.3747   0.1919     O
H       0.6084   0.6614   0.0586     H
C       0.6143   0.9481    0.623     C
C       0.6159   0.1338   0.1738     C
C        0.616   0.1903   0.3586     C
C       0.6172   0.9623   0.5441     C
H       0.6185   0.7473   0.1902     H
H       0.6208   0.4018   0.4248     H
C       0.6221   0.0208   0.1775     C
H       0.6225   0.4172    0.558     H
H       0.6253   0.2053   0.5937     H
H       0.6316   0.7771    0.679     H
H       0.6366     0.67   0.2007     H
H       0.6374   0.0821   0.4401     H
H       0.6446   0.3234   0.7764     H
H       0.6455   0.2698      0.3     H
C       0.6459   0.7087   0.1701     C
H       0.6503   0.1747   0.1778     H
N       0.6533   0.2661   0.6876     N
O       0.6579   0.8502   0.8942     O
H        0.661   0.9815   0.1826     H
C       0.6639   0.5691   0.8663     C
O        0.665   0.4457   0.2982     O
H       0.6695   0.4735   0.1099     H
N       0.6745   0.0796   0.1874     N
H       0.6745   0.5397   0.8251     H
C       0.6746   0.4143   0.2383     C
H       0.6753   0.9546   0.6692     H
H       0.6791   0.9784   0.5385     H
H       0.6809   0.1694    0.368     H
C       0.6876   0.7647   0.3824     C
H       0.6899   0.6131   0.8594     H
H       0.6926   0.5034   0.9627     H
H       0.6989   0.8418   0.4646     H
H       0.7068   0.7864   0.3395     H
H       0.7142   0.7191    0.388     H
O       0.7193    0.863   0.7909     O
C       0.7275   0.5429   0.9521     C
H       0.7275   0.5765   0.9926     H
H       0.7286   0.5613   0.1907     H
C       0.7316   0.8464   0.8654     C
H       0.7385   0.7734   0.5097     H
C       0.7395   0.8018   0.4644     C
C       0.7453   0.4727   0.1407     C
H       0.7554   0.7728   0.0888     H
C       0.7638    0.719   0.1893     C
C       0.7711    0.426   0.2146     C
H       0.7816   0.4585    0.104     H
C       0.7829   0.5386   0.1756     C
H       0.7897   0.7268   0.8574     H
H       0.7958   0.3831   0.2008     H
H       0.7999    0.566   0.1357     H
C       0.8016   0.7551   0.1382     C
H       0.8101   0.7201   0.9531     H
H       0.8126   0.0354   0.3937     H
H       0.8141   0.9494   0.4805     H
H       0.8151   0.6701    0.298     H
H       0.8188   0.3947   0.9885     H
H       0.8271   0.1251   0.9573     H
H       0.8277   0.3029   0.9091     H
O       0.8281   0.2482   0.5983     O
O        0.832   0.1316   0.7344     O
C       0.8332   0.4005   0.9401     C
C       0.8335   0.9931    0.383     C
C       0.8337   0.9412   0.4349     C
C        0.835   0.7407   0.9124     C
O       0.8358   0.1935   0.8419     O
Cd     0.83621  0.25827  0.73134    Cd
C       0.8377   0.1367   0.8082     C
C       0.8381   0.6944   0.2616     C
C       0.8387   0.3453   0.8915     C
C       0.8388   0.8186   0.9207     C
O        0.839   0.3589   0.6148     O
C       0.8403   0.3054   0.5752     C
C       0.8414   0.5255   0.9638     C
C       0.8442   0.0837    0.941     C
C       0.8499   0.4638   0.9146     C
C       0.8525   0.0769   0.8628     C
H       0.8527   0.8313   0.9784     H
O       0.8538      0.1   0.1019     O
O       0.8552   0.9905   0.1238     O
C       0.8555   0.0408   0.0795     C
C       0.8568   0.8216   0.4777     C
C       0.8573   0.3097   0.4941     C
N       0.8586   0.3506   0.8217     N
H       0.8596   0.2088   0.4744     H
C       0.8609     0.03   0.9944     C
N       0.8614   0.4605   0.2794     N
C       0.8617    0.878   0.4216     C
N       0.8634   0.9842   0.3159     N
Cd     0.86395  0.07691  0.23572    Cd
C       0.8649   0.2504   0.4522     C
O       0.8714   0.1959   0.2549     O
H       0.8715   0.4103   0.4893     H
C       0.8719    0.371   0.4606     C
C       0.8738   0.4698   0.8425     C
H        0.874   0.5632   0.9466     H
C        0.876   0.4133   0.7981     C
C        0.879   0.5272   0.2499     C
C       0.8802   0.0143   0.8394     C
C       0.8806   0.2557   0.3769     C
H       0.8806   0.5177   0.0221     H
C       0.8819   0.1911   0.3305     C
H       0.8857   0.5611   0.2916     H
H       0.8858   0.0092   0.7875     H
C        0.887   0.3742   0.3852     C
O       0.8879   0.1367   0.3656     O
C       0.8879    0.968   0.9716     C
H        0.888   0.5115    0.825     H
C       0.8892    0.924    0.301     C
H         0.89    0.418   0.7494     H
C       0.8912    0.868   0.3527     C
C       0.8913   0.3167    0.344     C
H       0.8925    0.835   0.5349     H
H       0.8939   0.7831   0.4672     H
H       0.8987   0.9318   0.0075     H
C       0.8992   0.9598   0.8927     C
H       0.9016   0.3188   0.2936     H
H       0.9071   0.9172   0.2544     H
C       0.9096   0.4412   0.3568     C
H       0.9116    0.826   0.3409     H
C       0.9118   0.7646    0.162     C
H        0.925   0.5886   0.6804     H
N       0.9278   0.8383   0.8968     N
O       0.9285   0.4861    0.427     O
H       0.9352   0.2883   0.0888     H
H       0.9372   0.7884   0.1267     H
H       0.9426   0.5276   0.2357     H
C       0.9429   0.7049   0.2805     C
C        0.948   0.8979    0.873     C
C       0.9525   0.7233    0.929     C
O       0.9533   0.5782   0.7292     O
H        0.959   0.6802   0.9054     H
H       0.9723   0.7708   0.8272     H
N       0.9816   0.7415   0.2321     N
O       0.9871   0.4777   0.4003     O
O       0.9886   0.4053   0.1654     O
C        0.989   0.7805   0.8855     C
H       0.9904   0.6861   0.3287     H
H       0.9934   0.7226   0.9879     H
