data_I
_chemical_name_common  '/home/zhangsd/repos/MofS-CGCNN/ML/data/WS24/clean_cifs/IDIWUN'
_cell_length_a 23.11800
_cell_length_b 20.91920
_cell_length_c 12.00210
_cell_angle_alpha 90.00000
_cell_angle_beta  111.62700
_cell_angle_gamma 90.00000
_space_group_name_H-M_alt      'P 1'


loop_
_space_group_symop_operation_xyz
  'x, y, z' 

loop_
_atom_site_label
_atom_site_fract_x
_atom_site_fract_y
_atom_site_fract_z
_atom_site_type_symbol
Zn         0.0      0.0      0.0    Zn
Zn         0.0      0.0      0.5    Zn
Zn         0.0   0.0682     0.75    Zn
Zn         0.0   0.0709     0.25    Zn
Zn         0.0   0.9291     0.75    Zn
Zn         0.0   0.9318     0.25    Zn
O       0.0378   0.0004   0.1855     O
O       0.0378   0.9996   0.6855     O
O       0.0413   0.0898    0.513     O
O       0.0413   0.9102    0.013     O
O       0.0582   0.1241   0.8661     O
O       0.0582   0.8759   0.3661     O
O        0.066   0.1246    0.356     O
O        0.066   0.8754    0.856     O
C       0.0719   0.1232    0.472     C
C       0.0719   0.8768    0.972     C
O       0.0807   0.0433   0.9972     O
O       0.0807   0.9567   0.4972     O
H        0.082   0.0003   0.2177     H
H        0.082   0.9997   0.7177     H
C       0.0907    0.098    0.968     C
C       0.0907    0.902    0.468     C
H       0.1169   0.1309   0.7054     H
H       0.1169   0.8691   0.2054     H
C       0.1206   0.1669    0.547     C
C       0.1206   0.8331    0.047     C
H       0.1235   0.2166   0.9504     H
H       0.1235   0.7834   0.4504     H
C       0.1376   0.1607    0.673     C
C       0.1376   0.8393    0.173     C
H       0.1381   0.2159   0.4214     H
H       0.1381   0.7841   0.9214     H
C       0.1401   0.1389    0.053     C
C       0.1401   0.8611    0.553     C
C         0.15      0.2    0.025     C
C         0.15   0.2114    0.506     C
C         0.15   0.7886    0.006     C
C         0.15      0.8    0.525     C
H       0.1696   0.0723   0.1833     H
H       0.1696   0.9277   0.6833     H
C        0.177   0.1144    0.162     C
C        0.177   0.8856    0.662     C
C       0.1849   0.1991    0.748     C
C       0.1849   0.8009    0.248     C
C       0.1964   0.2508    0.579     C
C       0.1964   0.7492    0.079     C
C       0.1968   0.2389      0.1     C
C       0.1968   0.7611      0.6     C
H       0.1979   0.1931   0.8323     H
H       0.1979   0.8069   0.3323     H
H       0.2027    0.281   0.0767     H
H       0.2027    0.719   0.5767     H
C       0.2137   0.2453    0.706     C
C       0.2137   0.7547    0.206     C
H       0.2163    0.281   0.5459     H
H       0.2163    0.719   0.0459     H
C        0.226   0.1509    0.242     C
C        0.226   0.8491    0.742     C
C       0.2355   0.2135    0.213     C
C       0.2355   0.7865    0.713     C
H       0.2475   0.3673   0.6845     H
H       0.2475   0.6327   0.1845     H
H       0.2525   0.1327   0.3155     H
H       0.2525   0.8673   0.8155     H
C       0.2645   0.2865    0.787     C
C       0.2645   0.7135    0.287     C
C        0.274   0.3491    0.758     C
C        0.274   0.6509    0.258     C
H       0.2837    0.219   0.4541     H
H       0.2837    0.781   0.9541     H
C       0.2863   0.2547    0.294     C
C       0.2863   0.7453    0.794     C
H       0.2973    0.219   0.9233     H
H       0.2973    0.781   0.4233     H
H       0.3021   0.3069   0.1677     H
H       0.3021   0.6931   0.6677     H
C       0.3032   0.2611      0.9     C
C       0.3032   0.7389      0.4     C
C       0.3036   0.2492    0.421     C
C       0.3036   0.7508    0.921     C
C       0.3151   0.3009    0.252     C
C       0.3151   0.6991    0.752     C
C        0.323   0.3856    0.838     C
C        0.323   0.6144    0.338     C
H       0.3304   0.4277   0.8167     H
H       0.3304   0.5723   0.3167     H
C         0.35   0.2886    0.494     C
C         0.35      0.3    0.975     C
C         0.35      0.7    0.475     C
C         0.35   0.7114    0.994     C
C       0.3599   0.3611    0.947     C
C       0.3599   0.6389    0.447     C
H       0.3619   0.2841   0.5786     H
H       0.3619   0.7159   0.0786     H
C       0.3624   0.3393    0.327     C
C       0.3624   0.6607    0.827     C
H       0.3765   0.2834   0.0496     H
H       0.3765   0.7166   0.5496     H
C       0.3794   0.3331    0.453     C
C       0.3794   0.6669    0.953     C
H       0.3831   0.3691   0.2946     H
H       0.3831   0.6309   0.7946     H
C       0.4093    0.402    0.032     C
C       0.4093    0.598    0.532     C
H        0.418   0.4997   0.7823     H
H        0.418   0.5003   0.2823     H
O       0.4193   0.4567   0.0028     O
O       0.4193   0.5433   0.5028     O
C       0.4281   0.3768    0.528     C
C       0.4281   0.6232    0.028     C
O        0.434   0.3754    0.644     O
O        0.434   0.6246    0.144     O
O       0.4418   0.3759   0.1339     O
O       0.4418   0.6241   0.6339     O
O       0.4587   0.4102    0.487     O
O       0.4587   0.5898    0.987     O
O       0.4622   0.4996   0.8145     O
O       0.4622   0.5004   0.3145     O
Zn         0.5   0.4291     0.75    Zn
Zn         0.5   0.4318     0.25    Zn
Zn         0.5      0.5      0.0    Zn
Zn         0.5      0.5      0.5    Zn
Zn         0.5   0.5682     0.75    Zn
Zn         0.5   0.5709     0.25    Zn
O       0.5378   0.4996   0.6855     O
O       0.5378   0.5004   0.1855     O
O       0.5413   0.4102    0.013     O
O       0.5413   0.5898    0.513     O
O       0.5582   0.3759   0.3661     O
O       0.5582   0.6241   0.8661     O
O        0.566   0.3754    0.856     O
O        0.566   0.6246    0.356     O
C       0.5719   0.3768    0.972     C
C       0.5719   0.6232    0.472     C
O       0.5807   0.4567   0.4972     O
O       0.5807   0.5433   0.9972     O
H        0.582   0.4997   0.7177     H
H        0.582   0.5003   0.2177     H
C       0.5907    0.402    0.468     C
C       0.5907    0.598    0.968     C
H       0.6169   0.3691   0.2054     H
H       0.6169   0.6309   0.7054     H
C       0.6206   0.3331    0.047     C
C       0.6206   0.6669    0.547     C
H       0.6235   0.2834   0.4504     H
H       0.6235   0.7166   0.9504     H
C       0.6376   0.3393    0.173     C
C       0.6376   0.6607    0.673     C
H       0.6381   0.2841   0.9214     H
H       0.6381   0.7159   0.4214     H
C       0.6401   0.3611    0.553     C
C       0.6401   0.6389    0.053     C
C         0.65   0.2886    0.006     C
C         0.65      0.3    0.525     C
C         0.65      0.7    0.025     C
C         0.65   0.7114    0.506     C
H       0.6696   0.4277   0.6833     H
H       0.6696   0.5723   0.1833     H
C        0.677   0.3856    0.662     C
C        0.677   0.6144    0.162     C
C       0.6849   0.3009    0.248     C
C       0.6849   0.6991    0.748     C
C       0.6964   0.2492    0.079     C
C       0.6964   0.7508    0.579     C
C       0.6968   0.2611      0.6     C
C       0.6968   0.7389      0.1     C
H       0.6979   0.3069   0.3323     H
H       0.6979   0.6931   0.8323     H
H       0.7027    0.219   0.5767     H
H       0.7027    0.781   0.0767     H
C       0.7137   0.2547    0.206     C
C       0.7137   0.7453    0.706     C
H       0.7163    0.219   0.0459     H
H       0.7163    0.781   0.5459     H
C        0.726   0.3491    0.742     C
C        0.726   0.6509    0.242     C
C       0.7355   0.2865    0.713     C
C       0.7355   0.7135    0.213     C
H       0.7475   0.1327   0.1845     H
H       0.7475   0.8673   0.6845     H
H       0.7525   0.3673   0.8155     H
H       0.7525   0.6327   0.3155     H
C       0.7645   0.2135    0.287     C
C       0.7645   0.7865    0.787     C
C        0.774   0.1509    0.258     C
C        0.774   0.8491    0.758     C
H       0.7837    0.281   0.9541     H
H       0.7837    0.719   0.4541     H
C       0.7863   0.2453    0.794     C
C       0.7863   0.7547    0.294     C
H       0.7973    0.281   0.4233     H
H       0.7973    0.719   0.9233     H
H       0.8021   0.1931   0.6677     H
H       0.8021   0.8069   0.1677     H
C       0.8032   0.2389      0.4     C
C       0.8032   0.7611      0.9     C
C       0.8036   0.2508    0.921     C
C       0.8036   0.7492    0.421     C
C       0.8151   0.1991    0.752     C
C       0.8151   0.8009    0.252     C
C        0.823   0.1144    0.338     C
C        0.823   0.8856    0.838     C
H       0.8304   0.0723   0.3167     H
H       0.8304   0.9277   0.8167     H
C         0.85      0.2    0.475     C
C         0.85   0.2114    0.994     C
C         0.85   0.7886    0.494     C
C         0.85      0.8    0.975     C
C       0.8599   0.1389    0.447     C
C       0.8599   0.8611    0.947     C
H       0.8619   0.2159   0.0786     H
H       0.8619   0.7841   0.5786     H
C       0.8624   0.1607    0.827     C
C       0.8624   0.8393    0.327     C
H       0.8765   0.2166   0.5496     H
H       0.8765   0.7834   0.0496     H
C       0.8794   0.1669    0.953     C
C       0.8794   0.8331    0.453     C
H       0.8831   0.1309   0.7946     H
H       0.8831   0.8691   0.2946     H
C       0.9093    0.098    0.532     C
C       0.9093    0.902    0.032     C
H        0.918   0.0003   0.2823     H
H        0.918   0.9997   0.7823     H
O       0.9193   0.0433   0.5028     O
O       0.9193   0.9567   0.0028     O
C       0.9281   0.1232    0.028     C
C       0.9281   0.8768    0.528     C
O        0.934   0.1246    0.144     O
O        0.934   0.8754    0.644     O
O       0.9418   0.1241   0.6339     O
O       0.9418   0.8759   0.1339     O
O       0.9587   0.0898    0.987     O
O       0.9587   0.9102    0.487     O
O       0.9622   0.0004   0.3145     O
O       0.9622   0.9996   0.8145     O
