data_I
_chemical_name_common  '/home/zhangsd/repos/MofS-CGCNN/ML/data/WS24/clean_cifs/IFESUJ'
_cell_length_a 16.57211
_cell_length_b 16.57211
_cell_length_c 16.57211
_cell_angle_alpha 60.00000
_cell_angle_beta  60.00000
_cell_angle_gamma 60.00000
_space_group_name_H-M_alt      'P 1'


loop_
_space_group_symop_operation_xyz
  'x, y, z' 

loop_
_atom_site_label
_atom_site_fract_x
_atom_site_fract_y
_atom_site_fract_z
_atom_site_type_symbol
C       0.0094   0.0094   0.4194     C
C       0.0094   0.0094   0.5618     C
C       0.0094   0.4194   0.0094     C
C       0.0094   0.4194   0.5618     C
C       0.0094   0.5618   0.0094     C
C       0.0094   0.5618   0.4194     C
H       0.0131   0.3953   0.6357     H
H       0.0131   0.3953   0.9559     H
H       0.0131   0.6357   0.3953     H
H       0.0131   0.6357   0.9559     H
H       0.0131   0.9559   0.3953     H
H       0.0131   0.9559   0.6357     H
C       0.0416      0.5      0.5     C
C       0.0416      0.5   0.9584     C
C       0.0416   0.9584      0.5     C
H       0.0441   0.3643   0.6047     H
H       0.0441   0.3643   0.9869     H
H       0.0441   0.6047   0.3643     H
H       0.0441   0.6047   0.9869     H
H       0.0441   0.9869   0.3643     H
H       0.0441   0.9869   0.6047     H
C       0.0739   0.4391   0.5805     C
C       0.0739   0.4391   0.9065     C
C       0.0739   0.5805   0.4391     C
C       0.0739   0.5805   0.9065     C
C       0.0739   0.9065   0.4391     C
C       0.0739   0.9065   0.5805     C
H       0.0944   0.3972   0.6368     H
H       0.0944   0.3972   0.8716     H
H       0.0944   0.6368   0.3972     H
H       0.0944   0.6368   0.8716     H
H       0.0944   0.8716   0.3972     H
H       0.0944   0.8716   0.6368     H
F       0.0998   0.3724   0.6648     F
F       0.0998   0.3724    0.863     F
F       0.0998   0.6648   0.3724     F
F       0.0998   0.6648    0.863     F
F       0.0998    0.863   0.3724     F
F       0.0998    0.863   0.6648     F
H       0.1284   0.3632   0.6028     H
H       0.1284   0.3632   0.9056     H
H       0.1284   0.6028   0.3632     H
H       0.1284   0.6028   0.9056     H
H       0.1284   0.9056   0.3632     H
H       0.1284   0.9056   0.6028     H
C      0.12924      0.5      0.5     C
C      0.12924      0.5  0.87076     C
C      0.12924  0.87076      0.5     C
F        0.137   0.3352   0.6276     F
F        0.137   0.3352   0.9002     F
F        0.137   0.6276   0.3352     F
F        0.137   0.6276   0.9002     F
F        0.137   0.9002   0.3352     F
F        0.137   0.9002   0.6276     F
N       0.1762   0.4332   0.5668     N
N       0.1762   0.4332   0.8238     N
N       0.1762   0.5668   0.4332     N
N       0.1762   0.5668   0.8238     N
N       0.1762   0.8238   0.4332     N
N       0.1762   0.8238   0.5668     N
C       0.2174      0.5      0.5     C
C       0.2174      0.5   0.7826     C
C       0.2174   0.7826      0.5     C
N       0.2516     0.46     0.54     N
N       0.2516     0.46   0.7484     N
N       0.2516     0.54     0.46     N
N       0.2516     0.54   0.7484     N
N       0.2516   0.7484     0.46     N
N       0.2516   0.7484     0.54     N
O       0.2797   0.2797   0.7203     O
O       0.2797   0.7203   0.2797     O
O       0.2797   0.7203   0.7203     O
F       0.3352    0.137   0.6276     F
F       0.3352    0.137   0.9002     F
F       0.3352   0.6276    0.137     F
F       0.3352   0.6276   0.9002     F
F       0.3352   0.9002    0.137     F
F       0.3352   0.9002   0.6276     F
O      0.34037  0.55321  0.55321     O
H       0.3632   0.1284   0.6028     H
H       0.3632   0.1284   0.9056     H
H       0.3632   0.6028   0.1284     H
H       0.3632   0.6028   0.9056     H
H       0.3632   0.9056   0.1284     H
H       0.3632   0.9056   0.6028     H
H       0.3643   0.0441   0.6047     H
H       0.3643   0.0441   0.9869     H
H       0.3643   0.6047   0.0441     H
H       0.3643   0.6047   0.9869     H
H       0.3643   0.9869   0.0441     H
H       0.3643   0.9869   0.6047     H
F       0.3724   0.0998   0.6648     F
F       0.3724   0.0998    0.863     F
F       0.3724   0.6648   0.0998     F
F       0.3724   0.6648    0.863     F
F       0.3724    0.863   0.0998     F
F       0.3724    0.863   0.6648     F
Y      0.38298  0.38298  0.61702     Y
Y      0.38298  0.61702  0.38298     Y
Y      0.38298  0.61702  0.61702     Y
H       0.3953   0.0131   0.6357     H
H       0.3953   0.0131   0.9559     H
H       0.3953   0.6357   0.0131     H
H       0.3953   0.6357   0.9559     H
H       0.3953   0.9559   0.0131     H
H       0.3953   0.9559   0.6357     H
H       0.3972   0.0944   0.6368     H
H       0.3972   0.0944   0.8716     H
H       0.3972   0.6368   0.0944     H
H       0.3972   0.6368   0.8716     H
H       0.3972   0.8716   0.0944     H
H       0.3972   0.8716   0.6368     H
C       0.4194   0.0094   0.0094     C
C       0.4194   0.0094   0.5618     C
C       0.4194   0.5618   0.0094     C
C       0.4195   0.0935   0.5609     C
C       0.4195   0.0935   0.9261     C
C       0.4195   0.5609   0.0935     C
C       0.4195   0.5609   0.9261     C
C       0.4195   0.9261   0.0935     C
C       0.4195   0.9261   0.5609     C
O        0.432   0.2524    0.568     O
O        0.432   0.2524   0.7476     O
O        0.432    0.568   0.2524     O
O        0.432    0.568   0.7476     O
O        0.432   0.7476   0.2524     O
O        0.432   0.7476    0.568     O
N       0.4332   0.1762   0.5668     N
N       0.4332   0.1762   0.8238     N
N       0.4332   0.5668   0.1762     N
N       0.4332   0.5668   0.8238     N
N       0.4332   0.8238   0.1762     N
N       0.4332   0.8238   0.5668     N
O      0.44679  0.44679  0.44679     O
O      0.44679  0.44679  0.65963     O
O      0.44679  0.65963  0.44679     O
C          0.5   0.0416      0.5     C
C          0.5   0.0416   0.9584     C
C          0.5  0.12924      0.5     C
C          0.5  0.12924  0.87076     C
C          0.5   0.2174      0.5     C
C          0.5   0.2174   0.7826     C
C          0.5      0.5   0.0416     C
C          0.5      0.5  0.12924     C
C          0.5      0.5   0.2174     C
C          0.5      0.5   0.7826     C
C          0.5      0.5  0.87076     C
C          0.5      0.5   0.9584     C
C          0.5   0.7826   0.2174     C
C          0.5   0.7826      0.5     C
C          0.5  0.87076  0.12924     C
C          0.5  0.87076      0.5     C
C          0.5   0.9584   0.0416     C
C          0.5   0.9584      0.5     C
N         0.54   0.2516     0.46     N
N         0.54   0.2516   0.7484     N
N         0.54     0.46   0.2516     N
N         0.54     0.46   0.7484     N
N         0.54   0.7484   0.2516     N
N         0.54   0.7484     0.46     N
O      0.55321  0.34037  0.55321     O
O      0.55321  0.55321  0.34037     O
O      0.55321  0.55321  0.55321     O
C       0.5609   0.0935   0.4195     C
C       0.5609   0.0935   0.9261     C
C       0.5609   0.4195   0.0935     C
C       0.5609   0.4195   0.9261     C
C       0.5609   0.9261   0.0935     C
C       0.5609   0.9261   0.4195     C
C       0.5618   0.0094   0.0094     C
C       0.5618   0.0094   0.4194     C
C       0.5618   0.4194   0.0094     C
N       0.5668   0.1762   0.4332     N
N       0.5668   0.1762   0.8238     N
N       0.5668   0.4332   0.1762     N
N       0.5668   0.4332   0.8238     N
N       0.5668   0.8238   0.1762     N
N       0.5668   0.8238   0.4332     N
H       0.6028   0.1284   0.3632     H
H       0.6028   0.1284   0.9056     H
H       0.6028   0.3632   0.1284     H
H       0.6028   0.3632   0.9056     H
H       0.6028   0.9056   0.1284     H
H       0.6028   0.9056   0.3632     H
H       0.6047   0.0441   0.3643     H
H       0.6047   0.0441   0.9869     H
H       0.6047   0.3643   0.0441     H
H       0.6047   0.3643   0.9869     H
H       0.6047   0.9869   0.0441     H
H       0.6047   0.9869   0.3643     H
Y      0.61702  0.38298  0.38298     Y
Y      0.61702  0.38298  0.61702     Y
Y      0.61702  0.61702  0.38298     Y
F       0.6276    0.137   0.3352     F
F       0.6276    0.137   0.9002     F
F       0.6276   0.3352    0.137     F
F       0.6276   0.3352   0.9002     F
F       0.6276   0.9002    0.137     F
F       0.6276   0.9002   0.3352     F
H       0.6357   0.0131   0.3953     H
H       0.6357   0.0131   0.9559     H
H       0.6357   0.3953   0.0131     H
H       0.6357   0.3953   0.9559     H
H       0.6357   0.9559   0.0131     H
H       0.6357   0.9559   0.3953     H
H       0.6368   0.0944   0.3972     H
H       0.6368   0.0944   0.8716     H
H       0.6368   0.3972   0.0944     H
H       0.6368   0.3972   0.8716     H
H       0.6368   0.8716   0.0944     H
H       0.6368   0.8716   0.3972     H
O      0.65963  0.44679  0.44679     O
F       0.6648   0.0998   0.3724     F
F       0.6648   0.0998    0.863     F
F       0.6648   0.3724   0.0998     F
F       0.6648   0.3724    0.863     F
F       0.6648    0.863   0.0998     F
F       0.6648    0.863   0.3724     F
O       0.7203   0.2797   0.2797     O
O       0.7203   0.2797   0.7203     O
O       0.7203   0.7203   0.2797     O
O       0.7476   0.2524    0.432     O
O       0.7476   0.2524    0.568     O
O       0.7476    0.432   0.2524     O
O       0.7476    0.432    0.568     O
O       0.7476    0.568   0.2524     O
O       0.7476    0.568    0.432     O
C       0.7826   0.2174      0.5     C
C       0.7826      0.5   0.2174     C
C       0.7826      0.5      0.5     C
N       0.8238   0.1762   0.4332     N
N       0.8238   0.1762   0.5668     N
N       0.8238   0.4332   0.1762     N
N       0.8238   0.4332   0.5668     N
N       0.8238   0.5668   0.1762     N
N       0.8238   0.5668   0.4332     N
F        0.863   0.0998   0.3724     F
F        0.863   0.0998   0.6648     F
F        0.863   0.3724   0.0998     F
F        0.863   0.3724   0.6648     F
F        0.863   0.6648   0.0998     F
F        0.863   0.6648   0.3724     F
C      0.87076  0.12924      0.5     C
C      0.87076      0.5  0.12924     C
C      0.87076      0.5      0.5     C
H       0.8716   0.0944   0.3972     H
H       0.8716   0.0944   0.6368     H
H       0.8716   0.3972   0.0944     H
H       0.8716   0.3972   0.6368     H
H       0.8716   0.6368   0.0944     H
H       0.8716   0.6368   0.3972     H
F       0.9002    0.137   0.3352     F
F       0.9002    0.137   0.6276     F
F       0.9002   0.3352    0.137     F
F       0.9002   0.3352   0.6276     F
F       0.9002   0.6276    0.137     F
F       0.9002   0.6276   0.3352     F
H       0.9056   0.1284   0.3632     H
H       0.9056   0.1284   0.6028     H
H       0.9056   0.3632   0.1284     H
H       0.9056   0.3632   0.6028     H
H       0.9056   0.6028   0.1284     H
H       0.9056   0.6028   0.3632     H
C       0.9065   0.0739   0.4391     C
C       0.9065   0.0739   0.5805     C
C       0.9065   0.4391   0.0739     C
C       0.9065   0.4391   0.5805     C
C       0.9065   0.5805   0.0739     C
C       0.9065   0.5805   0.4391     C
H       0.9559   0.0131   0.3953     H
H       0.9559   0.0131   0.6357     H
H       0.9559   0.3953   0.0131     H
H       0.9559   0.3953   0.6357     H
H       0.9559   0.6357   0.0131     H
H       0.9559   0.6357   0.3953     H
C       0.9584   0.0416      0.5     C
C       0.9584      0.5   0.0416     C
C       0.9584      0.5      0.5     C
H       0.9869   0.0441   0.3643     H
H       0.9869   0.0441   0.6047     H
H       0.9869   0.3643   0.0441     H
H       0.9869   0.3643   0.6047     H
H       0.9869   0.6047   0.0441     H
H       0.9869   0.6047   0.3643     H
