data_I
_chemical_name_common  '/home/zhangsd/repos/MofS-CGCNN/ML/data/WS24/clean_cifs/IFESOD'
_cell_length_a 16.65611
_cell_length_b 16.65611
_cell_length_c 16.65611
_cell_angle_alpha 60.00000
_cell_angle_beta  60.00000
_cell_angle_gamma 60.00000
_space_group_name_H-M_alt      'P 1'


loop_
_space_group_symop_operation_xyz
  'x, y, z' 

loop_
_atom_site_label
_atom_site_fract_x
_atom_site_fract_y
_atom_site_fract_z
_atom_site_type_symbol
H       0.0078   0.4044   0.6378     H
H       0.0078   0.4044     0.95     H
H       0.0078   0.6378   0.4044     H
H       0.0078   0.6378     0.95     H
H       0.0078     0.95   0.4044     H
H       0.0078     0.95   0.6378     H
C       0.0124   0.0124   0.4184     C
C       0.0124   0.0124   0.5568     C
C       0.0124   0.4184   0.0124     C
C       0.0124   0.4184   0.5568     C
C       0.0124   0.5568   0.0124     C
C       0.0124   0.5568   0.4184     C
C       0.0406      0.5      0.5     C
C       0.0406      0.5   0.9594     C
C       0.0406   0.9594      0.5     C
H         0.05   0.3622   0.5956     H
H         0.05   0.3622   0.9922     H
H         0.05   0.5956   0.3622     H
H         0.05   0.5956   0.9922     H
H         0.05   0.9922   0.3622     H
H         0.05   0.9922   0.5956     H
C        0.072   0.4424   0.5824     C
C        0.072   0.4424   0.9032     C
C        0.072   0.5824   0.4424     C
C        0.072   0.5824   0.9032     C
C        0.072   0.9032   0.4424     C
C        0.072   0.9032   0.5824     C
H        0.091   0.4024   0.6394     H
H        0.091   0.4024   0.8672     H
H        0.091   0.6394   0.4024     H
H        0.091   0.6394   0.8672     H
H        0.091   0.8672   0.4024     H
H        0.091   0.8672   0.6394     H
F       0.0918   0.3818   0.6682     F
F       0.0918   0.3818   0.8582     F
F       0.0918   0.6682   0.3818     F
F       0.0918   0.6682   0.8582     F
F       0.0918   0.8582   0.3818     F
F       0.0918   0.8582   0.6682     F
C       0.1288      0.5      0.5     C
C       0.1288      0.5   0.8712     C
C       0.1288   0.8712      0.5     C
H       0.1328   0.3606   0.5976     H
H       0.1328   0.3606    0.909     H
H       0.1328   0.5976   0.3606     H
H       0.1328   0.5976    0.909     H
H       0.1328    0.909   0.3606     H
H       0.1328    0.909   0.5976     H
F       0.1418   0.3318   0.6182     F
F       0.1418   0.3318   0.9082     F
F       0.1418   0.6182   0.3318     F
F       0.1418   0.6182   0.9082     F
F       0.1418   0.9082   0.3318     F
F       0.1418   0.9082   0.6182     F
N       0.1753   0.4335   0.5665     N
N       0.1753   0.4335   0.8247     N
N       0.1753   0.5665   0.4335     N
N       0.1753   0.5665   0.8247     N
N       0.1753   0.8247   0.4335     N
N       0.1753   0.8247   0.5665     N
C        0.216      0.5      0.5     C
C        0.216      0.5    0.784     C
C        0.216    0.784      0.5     C
N       0.2493   0.4605   0.5395     N
N       0.2493   0.4605   0.7507     N
N       0.2493   0.5395   0.4605     N
N       0.2493   0.5395   0.7507     N
N       0.2493   0.7507   0.4605     N
N       0.2493   0.7507   0.5395     N
O       0.2787   0.2787   0.7213     O
O       0.2787   0.7213   0.2787     O
O       0.2787   0.7213   0.7213     O
F       0.3318   0.1418   0.6182     F
F       0.3318   0.1418   0.9082     F
F       0.3318   0.6182   0.1418     F
F       0.3318   0.6182   0.9082     F
F       0.3318   0.9082   0.1418     F
F       0.3318   0.9082   0.6182     F
O      0.33944  0.55352  0.55352     O
H       0.3606   0.1328   0.5976     H
H       0.3606   0.1328    0.909     H
H       0.3606   0.5976   0.1328     H
H       0.3606   0.5976    0.909     H
H       0.3606    0.909   0.1328     H
H       0.3606    0.909   0.5976     H
H       0.3622     0.05   0.5956     H
H       0.3622     0.05   0.9922     H
H       0.3622   0.5956     0.05     H
H       0.3622   0.5956   0.9922     H
H       0.3622   0.9922     0.05     H
H       0.3622   0.9922   0.5956     H
F       0.3818   0.0918   0.6682     F
F       0.3818   0.0918   0.8582     F
F       0.3818   0.6682   0.0918     F
F       0.3818   0.6682   0.8582     F
F       0.3818   0.8582   0.0918     F
F       0.3818   0.8582   0.6682     F
Tb      0.3822   0.3822   0.6178    Tb
Tb      0.3822   0.6178   0.3822    Tb
Tb      0.3822   0.6178   0.6178    Tb
H       0.4024    0.091   0.6394     H
H       0.4024    0.091   0.8672     H
H       0.4024   0.6394    0.091     H
H       0.4024   0.6394   0.8672     H
H       0.4024   0.8672    0.091     H
H       0.4024   0.8672   0.6394     H
H       0.4044   0.0078   0.6378     H
H       0.4044   0.0078     0.95     H
H       0.4044   0.6378   0.0078     H
H       0.4044   0.6378     0.95     H
H       0.4044     0.95   0.0078     H
H       0.4044     0.95   0.6378     H
C       0.4176   0.0968   0.5576     C
C       0.4176   0.0968    0.928     C
C       0.4176   0.5576   0.0968     C
C       0.4176   0.5576    0.928     C
C       0.4176    0.928   0.0968     C
C       0.4176    0.928   0.5576     C
C       0.4184   0.0124   0.0124     C
C       0.4184   0.0124   0.5568     C
C       0.4184   0.5568   0.0124     C
O       0.4321   0.2523   0.5679     O
O       0.4321   0.2523   0.7477     O
O       0.4321   0.5679   0.2523     O
O       0.4321   0.5679   0.7477     O
O       0.4321   0.7477   0.2523     O
O       0.4321   0.7477   0.5679     O
N       0.4335   0.1753   0.5665     N
N       0.4335   0.1753   0.8247     N
N       0.4335   0.5665   0.1753     N
N       0.4335   0.5665   0.8247     N
N       0.4335   0.8247   0.1753     N
N       0.4335   0.8247   0.5665     N
O      0.44648  0.44648  0.44648     O
O      0.44648  0.44648  0.66056     O
O      0.44648  0.66056  0.44648     O
C          0.5   0.0406      0.5     C
C          0.5   0.0406   0.9594     C
C          0.5   0.1288      0.5     C
C          0.5   0.1288   0.8712     C
C          0.5    0.216      0.5     C
C          0.5    0.216    0.784     C
C          0.5      0.5   0.0406     C
C          0.5      0.5   0.1288     C
C          0.5      0.5    0.216     C
C          0.5      0.5    0.784     C
C          0.5      0.5   0.8712     C
C          0.5      0.5   0.9594     C
C          0.5    0.784    0.216     C
C          0.5    0.784      0.5     C
C          0.5   0.8712   0.1288     C
C          0.5   0.8712      0.5     C
C          0.5   0.9594   0.0406     C
C          0.5   0.9594      0.5     C
N       0.5395   0.2493   0.4605     N
N       0.5395   0.2493   0.7507     N
N       0.5395   0.4605   0.2493     N
N       0.5395   0.4605   0.7507     N
N       0.5395   0.7507   0.2493     N
N       0.5395   0.7507   0.4605     N
O      0.55352  0.33944  0.55352     O
O      0.55352  0.55352  0.33944     O
O      0.55352  0.55352  0.55352     O
C       0.5568   0.0124   0.0124     C
C       0.5568   0.0124   0.4184     C
C       0.5568   0.4184   0.0124     C
C       0.5576   0.0968   0.4176     C
C       0.5576   0.0968    0.928     C
C       0.5576   0.4176   0.0968     C
C       0.5576   0.4176    0.928     C
C       0.5576    0.928   0.0968     C
C       0.5576    0.928   0.4176     C
N       0.5665   0.1753   0.4335     N
N       0.5665   0.1753   0.8247     N
N       0.5665   0.4335   0.1753     N
N       0.5665   0.4335   0.8247     N
N       0.5665   0.8247   0.1753     N
N       0.5665   0.8247   0.4335     N
H       0.5956     0.05   0.3622     H
H       0.5956     0.05   0.9922     H
H       0.5956   0.3622     0.05     H
H       0.5956   0.3622   0.9922     H
H       0.5956   0.9922     0.05     H
H       0.5956   0.9922   0.3622     H
H       0.5976   0.1328   0.3606     H
H       0.5976   0.1328    0.909     H
H       0.5976   0.3606   0.1328     H
H       0.5976   0.3606    0.909     H
H       0.5976    0.909   0.1328     H
H       0.5976    0.909   0.3606     H
Tb      0.6178   0.3822   0.3822    Tb
Tb      0.6178   0.3822   0.6178    Tb
Tb      0.6178   0.6178   0.3822    Tb
F       0.6182   0.1418   0.3318     F
F       0.6182   0.1418   0.9082     F
F       0.6182   0.3318   0.1418     F
F       0.6182   0.3318   0.9082     F
F       0.6182   0.9082   0.1418     F
F       0.6182   0.9082   0.3318     F
H       0.6378   0.0078   0.4044     H
H       0.6378   0.0078     0.95     H
H       0.6378   0.4044   0.0078     H
H       0.6378   0.4044     0.95     H
H       0.6378     0.95   0.0078     H
H       0.6378     0.95   0.4044     H
H       0.6394    0.091   0.4024     H
H       0.6394    0.091   0.8672     H
H       0.6394   0.4024    0.091     H
H       0.6394   0.4024   0.8672     H
H       0.6394   0.8672    0.091     H
H       0.6394   0.8672   0.4024     H
O      0.66056  0.44648  0.44648     O
F       0.6682   0.0918   0.3818     F
F       0.6682   0.0918   0.8582     F
F       0.6682   0.3818   0.0918     F
F       0.6682   0.3818   0.8582     F
F       0.6682   0.8582   0.0918     F
F       0.6682   0.8582   0.3818     F
O       0.7213   0.2787   0.2787     O
O       0.7213   0.2787   0.7213     O
O       0.7213   0.7213   0.2787     O
O       0.7477   0.2523   0.4321     O
O       0.7477   0.2523   0.5679     O
O       0.7477   0.4321   0.2523     O
O       0.7477   0.4321   0.5679     O
O       0.7477   0.5679   0.2523     O
O       0.7477   0.5679   0.4321     O
C        0.784    0.216      0.5     C
C        0.784      0.5    0.216     C
C        0.784      0.5      0.5     C
N       0.8247   0.1753   0.4335     N
N       0.8247   0.1753   0.5665     N
N       0.8247   0.4335   0.1753     N
N       0.8247   0.4335   0.5665     N
N       0.8247   0.5665   0.1753     N
N       0.8247   0.5665   0.4335     N
F       0.8582   0.0918   0.3818     F
F       0.8582   0.0918   0.6682     F
F       0.8582   0.3818   0.0918     F
F       0.8582   0.3818   0.6682     F
F       0.8582   0.6682   0.0918     F
F       0.8582   0.6682   0.3818     F
H       0.8672    0.091   0.4024     H
H       0.8672    0.091   0.6394     H
H       0.8672   0.4024    0.091     H
H       0.8672   0.4024   0.6394     H
H       0.8672   0.6394    0.091     H
H       0.8672   0.6394   0.4024     H
C       0.8712   0.1288      0.5     C
C       0.8712      0.5   0.1288     C
C       0.8712      0.5      0.5     C
C       0.9032    0.072   0.4424     C
C       0.9032    0.072   0.5824     C
C       0.9032   0.4424    0.072     C
C       0.9032   0.4424   0.5824     C
C       0.9032   0.5824    0.072     C
C       0.9032   0.5824   0.4424     C
F       0.9082   0.1418   0.3318     F
F       0.9082   0.1418   0.6182     F
F       0.9082   0.3318   0.1418     F
F       0.9082   0.3318   0.6182     F
F       0.9082   0.6182   0.1418     F
F       0.9082   0.6182   0.3318     F
H        0.909   0.1328   0.3606     H
H        0.909   0.1328   0.5976     H
H        0.909   0.3606   0.1328     H
H        0.909   0.3606   0.5976     H
H        0.909   0.5976   0.1328     H
H        0.909   0.5976   0.3606     H
H         0.95   0.0078   0.4044     H
H         0.95   0.0078   0.6378     H
H         0.95   0.4044   0.0078     H
H         0.95   0.4044   0.6378     H
H         0.95   0.6378   0.0078     H
H         0.95   0.6378   0.4044     H
C       0.9594   0.0406      0.5     C
C       0.9594      0.5   0.0406     C
C       0.9594      0.5      0.5     C
H       0.9922     0.05   0.3622     H
H       0.9922     0.05   0.5956     H
H       0.9922   0.3622     0.05     H
H       0.9922   0.3622   0.5956     H
H       0.9922   0.5956     0.05     H
H       0.9922   0.5956   0.3622     H
