data_I
_chemical_name_common  '/home/zhangsd/repos/MofS-CGCNN/ML/data/WS24/clean_cifs/IGUFOH'
_cell_length_a 24.56206
_cell_length_b 24.56206
_cell_length_c 24.56206
_cell_angle_alpha 60.00000
_cell_angle_beta  60.00000
_cell_angle_gamma 60.00000
_space_group_name_H-M_alt      'P 1'


loop_
_space_group_symop_operation_xyz
  'x, y, z' 

loop_
_atom_site_label
_atom_site_fract_x
_atom_site_fract_y
_atom_site_fract_z
_atom_site_type_symbol
C       0.0035   0.0963   0.2839     C
C       0.0035   0.2839   0.6163     C
C       0.0035   0.6163   0.0963     C
H       0.0105   0.3551   0.6939     H
H       0.0105   0.6939   0.9405     H
H       0.0105   0.9405   0.3551     H
C      0.01056  0.46404  0.72784     C
C      0.01056  0.72784  0.79756     C
C      0.01056  0.79756  0.46404     C
H       0.0344    0.491   0.7144     H
H       0.0344   0.7144   0.7602     H
H       0.0344   0.7602    0.491     H
C       0.0366  0.42028   0.6954     C
C       0.0366   0.6954  0.84772     C
C       0.0366  0.84772  0.42028     C
O      0.03721  0.32093  0.32093     O
C       0.0476   0.2008   0.2218     C
C       0.0476   0.2218   0.5298     C
C       0.0476   0.5298   0.2008     C
H       0.0547   0.4037   0.9167     H
H       0.0547   0.6249   0.4037     H
H       0.0547   0.9167   0.6249     H
H       0.0562   0.0876   0.6368     H
H       0.0562   0.2194   0.0876     H
H       0.0562   0.6368   0.2194     H
H       0.0579   0.4897   0.8169     H
H       0.0579   0.6355   0.4897     H
H       0.0579   0.8169   0.6355     H
H       0.0595   0.3061   0.9895     H
H       0.0595   0.6449   0.3061     H
H       0.0595   0.9895   0.6449     H
C       0.0625   0.0939   0.2323     C
C       0.0625   0.2323   0.6113     C
C       0.0625   0.6113   0.0939     C
H        0.063   0.2018   0.4988     H
H        0.063   0.2364   0.2018     H
H        0.063   0.4988   0.2364     H
Zn      0.0692   0.6436   0.6436    Zn
H       0.0833   0.3751   0.5963     H
H       0.0833   0.5963   0.9453     H
H       0.0833   0.9453   0.3751     H
C       0.0849   0.1469   0.1993     C
C       0.0849   0.1993   0.5689     C
C       0.0849   0.5689   0.1469     C
H       0.0876   0.0562   0.2194     H
H       0.0876   0.2194   0.6368     H
H       0.0876   0.6368   0.0562     H
C       0.0939   0.0625   0.6113     C
C       0.0939   0.2323   0.0625     C
C       0.0939   0.6113   0.2323     C
C      0.09586  0.40674  0.88486     C
C      0.09586  0.61254  0.40674     C
C      0.09586  0.88486  0.61254     C
C       0.0963   0.0035   0.6163     C
C       0.0963   0.2839   0.0035     C
C       0.0963   0.6163   0.2839     C
C       0.0973   0.4587   0.8253     C
C       0.0973   0.6187   0.4587     C
C       0.0973   0.8253   0.6187     C
C      0.10097  0.41131  0.64063     C
C      0.10097  0.64063  0.84709     C
C      0.10097  0.84709  0.41131     C
O      0.10643  0.55837  0.70543     O
O      0.10643  0.62977  0.55837     O
O      0.10643  0.70543  0.62977     O
C      0.11514  0.38746  0.59326     C
C      0.11514  0.59326  0.90414     C
C      0.11514  0.90414  0.38746     C
H       0.1405   0.4505   0.6625     H
H       0.1405   0.6625   0.7465     H
H       0.1405   0.7465   0.4505     H
N        0.146    0.146    0.146     N
N        0.146    0.146    0.562     N
N        0.146    0.562    0.146     N
C       0.1469   0.0849   0.5689     C
C       0.1469   0.1993   0.0849     C
C       0.1469   0.5689   0.1993     C
C      0.14899  0.43231  0.63261     C
C      0.14899  0.63261  0.78609     C
C      0.14899  0.78609  0.43231     C
C      0.15228   0.3046   0.9634     C
C      0.15228  0.57972   0.3046     C
C      0.15228   0.9634  0.57972     C
C      0.15291  0.35937  0.89903     C
C      0.15291  0.58869  0.35937     C
C      0.15291  0.89903  0.58869     C
C      0.15871  0.46433  0.77727     C
C      0.15871  0.59969  0.46433     C
C      0.15871  0.77727  0.59969     C
C      0.16001  0.51983  0.71237     C
C      0.16001  0.60779  0.51983     C
C      0.16001  0.71237  0.60779     C
C       0.1747   0.3813   0.5413     C
C       0.1747   0.5413   0.9027     C
C       0.1747   0.9027   0.3813     C
H       0.1831   0.3645   0.5103     H
H       0.1831   0.5103   0.9421     H
H       0.1831   0.9421   0.3645     H
C       0.1993   0.0849   0.1469     C
C       0.1993   0.1469   0.5689     C
C       0.1993   0.5689   0.0849     C
C       0.2008   0.0476   0.5298     C
C       0.2008   0.2218   0.0476     C
C       0.2008   0.5298   0.2218     C
H       0.2018    0.063   0.2364     H
H       0.2018   0.2364   0.4988     H
H       0.2018   0.4988    0.063     H
C      0.20244  0.27216  0.98944     C
C      0.20244  0.53596  0.27216     C
C      0.20244  0.98944  0.53596     C
C      0.20896  0.42596   0.5805     C
C      0.20896   0.5805  0.78458     C
C      0.20896  0.78458  0.42596     C
C      0.21391  0.36739  0.85101     C
C      0.21391  0.56769  0.36739     C
C      0.21391  0.85101  0.56769     C
C      0.21542   0.4195  0.79104     C
C      0.21542  0.57404   0.4195     C
C      0.21542  0.79104  0.57404     C
O      0.21665  0.52221  0.67249     O
O      0.21665  0.58865  0.52221     O
O      0.21665  0.67249  0.58865     O
H       0.2194   0.0562   0.6368     H
H       0.2194   0.0876   0.0562     H
H       0.2194   0.6368   0.0876     H
C       0.2218   0.0476   0.2008     C
C       0.2218   0.2008   0.5298     C
C       0.2218   0.5298   0.0476     C
C      0.22273  0.40031  0.53567     C
C      0.22273  0.53567  0.84129     C
C      0.22273  0.84129  0.40031     C
C       0.2323   0.0625   0.0939     C
C       0.2323   0.0939   0.6113     C
C       0.2323   0.6113   0.0625     C
H       0.2364    0.063   0.4988     H
H       0.2364   0.2018    0.063     H
H       0.2364   0.4988   0.2018     H
H       0.2398   0.2856   0.9656     H
H       0.2398    0.509   0.2856     H
H       0.2398   0.9656    0.509     H
H       0.2404   0.4396   0.5762     H
H       0.2404   0.5762   0.7438     H
H       0.2404   0.7438   0.4396     H
Zn    0.244736 0.585088 0.585088    Zn
H       0.2535   0.3375   0.8595     H
H       0.2535   0.5495   0.3375     H
H       0.2535   0.8595   0.5495     H
H       0.2562   0.4238   0.7596     H
H       0.2562   0.5604   0.4238     H
H       0.2562   0.7596   0.5604     H
C      0.27216  0.20244  0.53596     C
C      0.27216  0.53596  0.98944     C
C      0.27216  0.98944  0.20244     C
C       0.2839   0.0035   0.0963     C
C       0.2839   0.0963   0.6163     C
C       0.2839   0.6163   0.0035     C
H       0.2856   0.2398    0.509     H
H       0.2856    0.509   0.9656     H
H       0.2856   0.9656   0.2398     H
C      0.28763  0.39221  0.48017     C
C      0.28763  0.48017  0.83999     C
C      0.28763  0.83999  0.39221     C
O      0.29457  0.37023  0.44163     O
O      0.29457  0.44163  0.89357     O
O      0.29457  0.89357  0.37023     O
C       0.3046  0.15228  0.57972     C
C       0.3046  0.57972   0.9634     C
C       0.3046   0.9634  0.15228     C
H       0.3061   0.0595   0.6449     H
H       0.3061   0.6449   0.9895     H
H       0.3061   0.9895   0.0595     H
O      0.32093  0.03721  0.32093     O
O      0.32093  0.32093  0.03721     O
O      0.32093  0.32093  0.32093     O
O      0.32751  0.41135  0.47779     O
O      0.32751  0.47779  0.78335     O
O      0.32751  0.78335  0.41135     O
H       0.3375   0.2535   0.5495     H
H       0.3375   0.5495   0.8595     H
H       0.3375   0.8595   0.2535     H
O      0.35117  0.54961  0.54961     O
H       0.3551   0.0105   0.9405     H
H       0.3551   0.6939   0.0105     H
H       0.3551   0.9405   0.6939     H
Zn      0.3564   0.3564   0.3564    Zn
Zn      0.3564   0.3564   0.9308    Zn
Zn      0.3564   0.9308   0.3564    Zn
C      0.35937  0.15291  0.58869     C
C      0.35937  0.58869  0.89903     C
C      0.35937  0.89903  0.15291     C
H       0.3632   0.7806   0.9124     H
H       0.3632   0.9124   0.9438     H
H       0.3632   0.9438   0.7806     H
H       0.3645   0.1831   0.9421     H
H       0.3645   0.5103   0.1831     H
H       0.3645   0.9421   0.5103     H
C      0.36739  0.21391  0.56769     C
C      0.36739  0.56769  0.85101     C
C      0.36739  0.85101  0.21391     C
O      0.37023  0.29457  0.89357     O
O      0.37023  0.44163  0.29457     O
O      0.37023  0.89357  0.44163     O
H       0.3751   0.0833   0.9453     H
H       0.3751   0.5963   0.0833     H
H       0.3751   0.9453   0.5963     H
C       0.3813   0.1747   0.9027     C
C       0.3813   0.5413   0.1747     C
C       0.3813   0.9027   0.5413     C
C       0.3837   0.7161   0.9965     C
C       0.3837   0.9037   0.7161     C
C       0.3837   0.9965   0.9037     C
C      0.38746  0.11514  0.90414     C
C      0.38746  0.59326  0.11514     C
C      0.38746  0.90414  0.59326     C
C       0.3887   0.7677   0.9375     C
C       0.3887   0.9061   0.7677     C
C       0.3887   0.9375   0.9061     C
C      0.39221  0.28763  0.83999     C
C      0.39221  0.48017  0.28763     C
C      0.39221  0.83999  0.48017     C
C      0.40031  0.22273  0.84129     C
C      0.40031  0.53567  0.22273     C
C      0.40031  0.84129  0.53567     C
H       0.4037   0.0547   0.6249     H
H       0.4037   0.6249   0.9167     H
H       0.4037   0.9167   0.0547     H
C      0.40674  0.09586  0.61254     C
C      0.40674  0.61254  0.88486     C
C      0.40674  0.88486  0.09586     C
C      0.41131  0.10097  0.84709     C
C      0.41131  0.64063  0.10097     C
C      0.41131  0.84709  0.64063     C
O      0.41135  0.32751  0.78335     O
O      0.41135  0.47779  0.32751     O
O      0.41135  0.78335  0.47779     O
Zn    0.414912 0.414912 0.414912    Zn
Zn    0.414912 0.414912 0.755264    Zn
Zn    0.414912 0.755264 0.414912    Zn
C       0.4195  0.21542  0.57404     C
C       0.4195  0.57404  0.79104     C
C       0.4195  0.79104  0.21542     C
C      0.42028   0.0366  0.84772     C
C      0.42028   0.6954   0.0366     C
C      0.42028  0.84772   0.6954     C
H       0.4238   0.2562   0.5604     H
H       0.4238   0.5604   0.7596     H
H       0.4238   0.7596   0.2562     H
C      0.42596  0.20896  0.78458     C
C      0.42596   0.5805  0.20896     C
C      0.42596  0.78458   0.5805     C
C       0.4311   0.8007   0.9151     C
C       0.4311   0.8531   0.8007     C
C       0.4311   0.9151   0.8531     C
C      0.43231  0.14899  0.78609     C
C      0.43231  0.63261  0.14899     C
C      0.43231  0.78609  0.63261     C
N        0.438    0.854    0.854     N
H       0.4396   0.2404   0.7438     H
H       0.4396   0.5762   0.2404     H
H       0.4396   0.7438   0.5762     H
O      0.44163  0.29457  0.37023     O
O      0.44163  0.37023  0.89357     O
O      0.44163  0.89357  0.29457     O
O      0.45039  0.45039  0.45039     O
O      0.45039  0.45039  0.64883     O
O      0.45039  0.64883  0.45039     O
H       0.4505   0.1405   0.7465     H
H       0.4505   0.6625   0.1405     H
H       0.4505   0.7465   0.6625     H
C       0.4587   0.0973   0.6187     C
C       0.4587   0.6187   0.8253     C
C       0.4587   0.8253   0.0973     C
C      0.46404  0.01056  0.79756     C
C      0.46404  0.72784  0.01056     C
C      0.46404  0.79756  0.72784     C
C      0.46433  0.15871  0.59969     C
C      0.46433  0.59969  0.77727     C
C      0.46433  0.77727  0.15871     C
C       0.4702   0.7782   0.9524     C
C       0.4702   0.7992   0.7782     C
C       0.4702   0.9524   0.7992     C
O      0.47779  0.32751  0.41135     O
O      0.47779  0.41135  0.78335     O
O      0.47779  0.78335  0.32751     O
C      0.48017  0.28763  0.39221     C
C      0.48017  0.39221  0.83999     C
C      0.48017  0.83999  0.28763     C
H       0.4897   0.0579   0.6355     H
H       0.4897   0.6355   0.8169     H
H       0.4897   0.8169   0.0579     H
H        0.491   0.0344   0.7602     H
H        0.491   0.7144   0.0344     H
H        0.491   0.7602   0.7144     H
H       0.4988    0.063   0.2018     H
H       0.4988   0.2018   0.2364     H
H       0.4988   0.2364    0.063     H
H       0.5012   0.7636   0.7982     H
H       0.5012   0.7982    0.937     H
H       0.5012    0.937   0.7636     H
H        0.509   0.2398   0.9656     H
H        0.509   0.2856   0.2398     H
H        0.509   0.9656   0.2856     H
H       0.5103   0.1831   0.3645     H
H       0.5103   0.3645   0.9421     H
H       0.5103   0.9421   0.1831     H
C      0.51983  0.16001  0.60779     C
C      0.51983  0.60779  0.71237     C
C      0.51983  0.71237  0.16001     C
O      0.52221  0.21665  0.58865     O
O      0.52221  0.58865  0.67249     O
O      0.52221  0.67249  0.21665     O
C       0.5298   0.0476   0.2218     C
C       0.5298   0.2008   0.0476     C
C       0.5298   0.2218   0.2008     C
C      0.53567  0.22273  0.40031     C
C      0.53567  0.40031  0.84129     C
C      0.53567  0.84129  0.22273     C
C      0.53596  0.20244  0.98944     C
C      0.53596  0.27216  0.20244     C
C      0.53596  0.98944  0.27216     C
C       0.5413   0.1747   0.3813     C
C       0.5413   0.3813   0.9027     C
C       0.5413   0.9027   0.1747     C
H       0.5495   0.2535   0.8595     H
H       0.5495   0.3375   0.2535     H
H       0.5495   0.8595   0.3375     H
O      0.54961  0.35117  0.54961     O
O      0.54961  0.54961  0.35117     O
O      0.54961  0.54961  0.54961     O
O      0.55837  0.10643  0.62977     O
O      0.55837  0.62977  0.70543     O
O      0.55837  0.70543  0.10643     O
H       0.5604   0.2562   0.7596     H
H       0.5604   0.4238   0.2562     H
H       0.5604   0.7596   0.4238     H
N        0.562    0.146    0.146     N
C      0.56769  0.21391  0.85101     C
C      0.56769  0.36739  0.21391     C
C      0.56769  0.85101  0.36739     C
C       0.5689   0.0849   0.1993     C
C       0.5689   0.1469   0.0849     C
C       0.5689   0.1993   0.1469     C
C      0.57404  0.21542  0.79104     C
C      0.57404   0.4195  0.21542     C
C      0.57404  0.79104   0.4195     C
H       0.5762   0.2404   0.4396     H
H       0.5762   0.4396   0.7438     H
H       0.5762   0.7438   0.2404     H
C      0.57972  0.15228   0.9634     C
C      0.57972   0.3046  0.15228     C
C      0.57972   0.9634   0.3046     C
C       0.5805  0.20896  0.42596     C
C       0.5805  0.42596  0.78458     C
C       0.5805  0.78458  0.20896     C
Zn    0.585088 0.244736 0.585088    Zn
Zn    0.585088 0.585088 0.244736    Zn
Zn    0.585088 0.585088 0.585088    Zn
O      0.58865  0.21665  0.67249     O
O      0.58865  0.52221  0.21665     O
O      0.58865  0.67249  0.52221     O
C      0.58869  0.15291  0.89903     C
C      0.58869  0.35937  0.15291     C
C      0.58869  0.89903  0.35937     C
C      0.59326  0.11514  0.38746     C
C      0.59326  0.38746  0.90414     C
C      0.59326  0.90414  0.11514     C
H       0.5963   0.0833   0.3751     H
H       0.5963   0.3751   0.9453     H
H       0.5963   0.9453   0.0833     H
C      0.59969  0.15871  0.77727     C
C      0.59969  0.46433  0.15871     C
C      0.59969  0.77727  0.46433     C
C      0.60779  0.16001  0.71237     C
C      0.60779  0.51983  0.16001     C
C      0.60779  0.71237  0.51983     C
C       0.6113   0.0625   0.2323     C
C       0.6113   0.0939   0.0625     C
C       0.6113   0.2323   0.0939     C
C      0.61254  0.09586  0.88486     C
C      0.61254  0.40674  0.09586     C
C      0.61254  0.88486  0.40674     C
C       0.6163   0.0035   0.2839     C
C       0.6163   0.0963   0.0035     C
C       0.6163   0.2839   0.0963     C
C       0.6187   0.0973   0.8253     C
C       0.6187   0.4587   0.0973     C
C       0.6187   0.8253   0.4587     C
H       0.6249   0.0547   0.9167     H
H       0.6249   0.4037   0.0547     H
H       0.6249   0.9167   0.4037     H
O      0.62977  0.10643  0.70543     O
O      0.62977  0.55837  0.10643     O
O      0.62977  0.70543  0.55837     O
C      0.63261  0.14899  0.43231     C
C      0.63261  0.43231  0.78609     C
C      0.63261  0.78609  0.14899     C
H       0.6355   0.0579   0.8169     H
H       0.6355   0.4897   0.0579     H
H       0.6355   0.8169   0.4897     H
H       0.6368   0.0562   0.0876     H
H       0.6368   0.0876   0.2194     H
H       0.6368   0.2194   0.0562     H
C      0.64063  0.10097  0.41131     C
C      0.64063  0.41131  0.84709     C
C      0.64063  0.84709  0.10097     C
Zn      0.6436   0.0692   0.6436    Zn
Zn      0.6436   0.6436   0.0692    Zn
Zn      0.6436   0.6436   0.6436    Zn
H       0.6449   0.0595   0.9895     H
H       0.6449   0.3061   0.0595     H
H       0.6449   0.9895   0.3061     H
O      0.64883  0.45039  0.45039     O
H       0.6625   0.1405   0.4505     H
H       0.6625   0.4505   0.7465     H
H       0.6625   0.7465   0.1405     H
O      0.67249  0.21665  0.52221     O
O      0.67249  0.52221  0.58865     O
O      0.67249  0.58865  0.21665     O
O      0.67907  0.67907  0.67907     O
O      0.67907  0.67907  0.96279     O
O      0.67907  0.96279  0.67907     O
H       0.6939   0.0105   0.3551     H
H       0.6939   0.3551   0.9405     H
H       0.6939   0.9405   0.0105     H
C       0.6954   0.0366  0.42028     C
C       0.6954  0.42028  0.84772     C
C       0.6954  0.84772   0.0366     C
O      0.70543  0.10643  0.55837     O
O      0.70543  0.55837  0.62977     O
O      0.70543  0.62977  0.10643     O
C      0.71237  0.16001  0.51983     C
C      0.71237  0.51983  0.60779     C
C      0.71237  0.60779  0.16001     C
H       0.7144   0.0344    0.491     H
H       0.7144    0.491   0.7602     H
H       0.7144   0.7602   0.0344     H
C       0.7161   0.3837   0.9037     C
C       0.7161   0.9037   0.9965     C
C       0.7161   0.9965   0.3837     C
C      0.72784  0.01056  0.46404     C
C      0.72784  0.46404  0.79756     C
C      0.72784  0.79756  0.01056     C
H       0.7438   0.2404   0.5762     H
H       0.7438   0.4396   0.2404     H
H       0.7438   0.5762   0.4396     H
H       0.7465   0.1405   0.6625     H
H       0.7465   0.4505   0.1405     H
H       0.7465   0.6625   0.4505     H
Zn    0.755264 0.414912 0.414912    Zn
H       0.7596   0.2562   0.4238     H
H       0.7596   0.4238   0.5604     H
H       0.7596   0.5604   0.2562     H
H       0.7602   0.0344   0.7144     H
H       0.7602    0.491   0.0344     H
H       0.7602   0.7144    0.491     H
H       0.7636   0.5012    0.937     H
H       0.7636   0.7982   0.5012     H
H       0.7636    0.937   0.7982     H
C       0.7677   0.3887   0.9061     C
C       0.7677   0.9061   0.9375     C
C       0.7677   0.9375   0.3887     C
C      0.77727  0.15871  0.46433     C
C      0.77727  0.46433  0.59969     C
C      0.77727  0.59969  0.15871     C
C       0.7782   0.4702   0.7992     C
C       0.7782   0.7992   0.9524     C
C       0.7782   0.9524   0.4702     C
H       0.7806   0.3632   0.9438     H
H       0.7806   0.9124   0.3632     H
H       0.7806   0.9438   0.9124     H
O      0.78335  0.32751  0.47779     O
O      0.78335  0.41135  0.32751     O
O      0.78335  0.47779  0.41135     O
C      0.78458  0.20896   0.5805     C
C      0.78458  0.42596  0.20896     C
C      0.78458   0.5805  0.42596     C
C      0.78609  0.14899  0.63261     C
C      0.78609  0.43231  0.14899     C
C      0.78609  0.63261  0.43231     C
C      0.79104  0.21542   0.4195     C
C      0.79104   0.4195  0.57404     C
C      0.79104  0.57404  0.21542     C
C      0.79756  0.01056  0.72784     C
C      0.79756  0.46404  0.01056     C
C      0.79756  0.72784  0.46404     C
H       0.7982   0.5012   0.7636     H
H       0.7982   0.7636    0.937     H
H       0.7982    0.937   0.5012     H
C       0.7992   0.4702   0.9524     C
C       0.7992   0.7782   0.4702     C
C       0.7992   0.9524   0.7782     C
C       0.8007   0.4311   0.8531     C
C       0.8007   0.8531   0.9151     C
C       0.8007   0.9151   0.4311     C
H       0.8169   0.0579   0.4897     H
H       0.8169   0.4897   0.6355     H
H       0.8169   0.6355   0.0579     H
C       0.8253   0.0973   0.4587     C
C       0.8253   0.4587   0.6187     C
C       0.8253   0.6187   0.0973     C
C      0.83999  0.28763  0.48017     C
C      0.83999  0.39221  0.28763     C
C      0.83999  0.48017  0.39221     C
C      0.84129  0.22273  0.53567     C
C      0.84129  0.40031  0.22273     C
C      0.84129  0.53567  0.40031     C
C      0.84709  0.10097  0.64063     C
C      0.84709  0.41131  0.10097     C
C      0.84709  0.64063  0.41131     C
C      0.84772   0.0366   0.6954     C
C      0.84772  0.42028   0.0366     C
C      0.84772   0.6954  0.42028     C
C      0.85101  0.21391  0.36739     C
C      0.85101  0.36739  0.56769     C
C      0.85101  0.56769  0.21391     C
C       0.8531   0.4311   0.9151     C
C       0.8531   0.8007   0.4311     C
C       0.8531   0.9151   0.8007     C
N        0.854    0.438    0.854     N
N        0.854    0.854    0.438     N
N        0.854    0.854    0.854     N
H       0.8595   0.2535   0.3375     H
H       0.8595   0.3375   0.5495     H
H       0.8595   0.5495   0.2535     H
C      0.88486  0.09586  0.40674     C
C      0.88486  0.40674  0.61254     C
C      0.88486  0.61254  0.09586     C
O      0.89357  0.29457  0.44163     O
O      0.89357  0.37023  0.29457     O
O      0.89357  0.44163  0.37023     O
C      0.89903  0.15291  0.35937     C
C      0.89903  0.35937  0.58869     C
C      0.89903  0.58869  0.15291     C
C       0.9027   0.1747   0.5413     C
C       0.9027   0.3813   0.1747     C
C       0.9027   0.5413   0.3813     C
C       0.9037   0.3837   0.9965     C
C       0.9037   0.7161   0.3837     C
C       0.9037   0.9965   0.7161     C
C      0.90414  0.11514  0.59326     C
C      0.90414  0.38746  0.11514     C
C      0.90414  0.59326  0.38746     C
C       0.9061   0.3887   0.9375     C
C       0.9061   0.7677   0.3887     C
C       0.9061   0.9375   0.7677     C
H       0.9124   0.3632   0.7806     H
H       0.9124   0.7806   0.9438     H
H       0.9124   0.9438   0.3632     H
C       0.9151   0.4311   0.8007     C
C       0.9151   0.8007   0.8531     C
C       0.9151   0.8531   0.4311     C
H       0.9167   0.0547   0.4037     H
H       0.9167   0.4037   0.6249     H
H       0.9167   0.6249   0.0547     H
Zn      0.9308   0.3564   0.3564    Zn
H        0.937   0.5012   0.7982     H
H        0.937   0.7636   0.5012     H
H        0.937   0.7982   0.7636     H
C       0.9375   0.3887   0.7677     C
C       0.9375   0.7677   0.9061     C
C       0.9375   0.9061   0.3887     C
H       0.9405   0.0105   0.6939     H
H       0.9405   0.3551   0.0105     H
H       0.9405   0.6939   0.3551     H
H       0.9421   0.1831   0.5103     H
H       0.9421   0.3645   0.1831     H
H       0.9421   0.5103   0.3645     H
H       0.9438   0.3632   0.9124     H
H       0.9438   0.7806   0.3632     H
H       0.9438   0.9124   0.7806     H
H       0.9453   0.0833   0.5963     H
H       0.9453   0.3751   0.0833     H
H       0.9453   0.5963   0.3751     H
C       0.9524   0.4702   0.7782     C
C       0.9524   0.7782   0.7992     C
C       0.9524   0.7992   0.4702     C
O      0.96279  0.67907  0.67907     O
C       0.9634  0.15228   0.3046     C
C       0.9634   0.3046  0.57972     C
C       0.9634  0.57972  0.15228     C
H       0.9656   0.2398   0.2856     H
H       0.9656   0.2856    0.509     H
H       0.9656    0.509   0.2398     H
C      0.98944  0.20244  0.27216     C
C      0.98944  0.27216  0.53596     C
C      0.98944  0.53596  0.20244     C
H       0.9895   0.0595   0.3061     H
H       0.9895   0.3061   0.6449     H
H       0.9895   0.6449   0.0595     H
C       0.9965   0.3837   0.7161     C
C       0.9965   0.7161   0.9037     C
C       0.9965   0.9037   0.3837     C
