data_I
_chemical_name_common  '/home/zhangsd/repos/MofS-CGCNN/ML/data/WS24/clean_cifs/IMIDZB10'
_cell_length_a 14.57550
_cell_length_b 14.57550
_cell_length_c 14.57550
_cell_angle_alpha 109.47100
_cell_angle_beta  109.47100
_cell_angle_gamma 109.47100
_space_group_name_H-M_alt      'P 1'


loop_
_space_group_symop_operation_xyz
  'x, y, z' 

loop_
_atom_site_label
_atom_site_fract_x
_atom_site_fract_y
_atom_site_fract_z
_atom_site_type_symbol
C          0.0  0.37547  0.61673     C
H          0.0   0.4446   0.6416     H
C          0.0  0.61673  0.37547     C
H          0.0   0.6416   0.4446     H
C       0.0562   0.2654   0.5742     C
C       0.0562   0.5742   0.2654     C
N      0.09371  0.37408  0.64627     N
N      0.09371  0.64627  0.37408     N
H       0.1024   0.2341   0.5651     H
H       0.1024   0.5651   0.2341     H
H       0.1317   0.4627   0.8976     H
H       0.1317   0.8976   0.4627     H
H        0.197   0.5554   0.5554     H
C       0.2092    0.518   0.9438     C
C       0.2092   0.9438    0.518     C
H       0.2341   0.1024   0.5651     H
H       0.2341   0.5651   0.1024     H
C      0.24126  0.62453  0.62453     C
Zn        0.25      0.5     0.75    Zn
Zn        0.25     0.75      0.5    Zn
C       0.2654   0.0562   0.5742     C
C       0.2654   0.5742   0.0562     C
N      0.27219  0.62592  0.71963     N
N      0.27219  0.71963  0.62592     N
N      0.28037  0.55256  0.90629     N
N      0.28037  0.90629  0.55256     N
C       0.3088   0.7346   0.7908     C
C       0.3088   0.7908   0.7346     C
H        0.331   0.7659   0.8683     H
H        0.331   0.8683   0.7659     H
N      0.35373  0.44744  0.72781     N
N      0.35373  0.72781  0.44744     N
H       0.3584   0.3584    0.803     H
H       0.3584    0.803   0.3584     H
N      0.37408  0.09371  0.64627     N
N      0.37408  0.64627  0.09371     N
C      0.37547     -0.0  0.61673     C
C      0.37547  0.61673     -0.0     C
C      0.38327  0.38327  0.75874     C
C      0.38327  0.75874  0.38327     C
C       0.4258    0.482   0.6912     C
C       0.4258   0.6912    0.482     C
H       0.4349   0.5373    0.669     H
H       0.4349    0.669   0.5373     H
H       0.4446     -0.0   0.6416     H
H       0.4446   0.6416      0.0     H
N      0.44744  0.35373  0.72781     N
N      0.44744  0.72781  0.35373     N
H       0.4627   0.1317   0.8976     H
H       0.4627   0.8976   0.1317     H
C        0.482   0.4258   0.6912     C
C        0.482   0.6912   0.4258     C
Zn         0.5     0.25     0.75    Zn
Zn         0.5     0.75     0.25    Zn
C        0.518   0.2092   0.9438     C
C        0.518   0.9438   0.2092     C
H       0.5373   0.4349    0.669     H
H       0.5373    0.669   0.4349     H
N      0.55256  0.28037  0.90629     N
N      0.55256  0.90629  0.28037     N
H       0.5554    0.197   0.5554     H
H       0.5554   0.5554    0.197     H
H       0.5651   0.1024   0.2341     H
H       0.5651   0.2341   0.1024     H
C       0.5742   0.0562   0.2654     C
C       0.5742   0.2654   0.0562     C
C      0.61673     -0.0  0.37547     C
C      0.61673  0.37547      0.0     C
C      0.62453  0.24126  0.62453     C
C      0.62453  0.62453  0.24126     C
N      0.62592  0.27219  0.71963     N
N      0.62592  0.71963  0.27219     N
H       0.6416      0.0   0.4446     H
H       0.6416   0.4446      0.0     H
N      0.64627  0.09371  0.37408     N
N      0.64627  0.37408  0.09371     N
H        0.669   0.4349   0.5373     H
H        0.669   0.5373   0.4349     H
C       0.6912   0.4258    0.482     C
C       0.6912    0.482   0.4258     C
N      0.71963  0.27219  0.62592     N
N      0.71963  0.62592  0.27219     N
N      0.72781  0.35373  0.44744     N
N      0.72781  0.44744  0.35373     N
C       0.7346   0.3088   0.7908     C
C       0.7346   0.7908   0.3088     C
Zn        0.75     0.25      0.5    Zn
Zn        0.75      0.5     0.25    Zn
C      0.75874  0.38327  0.38327     C
H       0.7659    0.331   0.8683     H
H       0.7659   0.8683    0.331     H
C       0.7908   0.3088   0.7346     C
C       0.7908   0.7346   0.3088     C
H        0.803   0.3584   0.3584     H
H       0.8683    0.331   0.7659     H
H       0.8683   0.7659    0.331     H
H       0.8976   0.1317   0.4627     H
H       0.8976   0.4627   0.1317     H
N      0.90629  0.28037  0.55256     N
N      0.90629  0.55256  0.28037     N
C       0.9438   0.2092    0.518     C
C       0.9438    0.518   0.2092     C
