data_I
_chemical_name_common  '/home/zhangsd/repos/MofS-CGCNN/ML/data/WS24/clean_cifs/IMUTUG'
_cell_length_a 22.26900
_cell_length_b 22.26900
_cell_length_c 22.26900
_cell_angle_alpha 109.47120
_cell_angle_beta  109.47120
_cell_angle_gamma 109.47120
_space_group_name_H-M_alt      'P 1'


loop_
_space_group_symop_operation_xyz
  'x, y, z' 

loop_
_atom_site_label
_atom_site_fract_x
_atom_site_fract_y
_atom_site_fract_z
_atom_site_type_symbol
H     -0.00125  0.11956   0.2112     H
H     -0.00033  0.34061  0.60536     H
H     -0.00033  0.60536  0.34061     H
O          0.0      0.0   0.7314     O
C          0.0   0.0659   0.1933     C
C          0.0    0.123   0.8612     C
C          0.0   0.1384   0.6914     C
C          0.0   0.1496   0.9356     C
C          0.0   0.1933   0.0659     C
C          0.0   0.1947   0.6647     C
C          0.0   0.2984   0.6234     C
C          0.0   0.6234   0.2984     C
C          0.0   0.6647   0.1947     C
C          0.0   0.6914   0.1384     C
In         0.0  0.69437  0.90283    In
O          0.0   0.7314     -0.0     O
C          0.0   0.8612    0.123     C
In         0.0  0.90283  0.69437    In
C          0.0   0.9356   0.1496     C
H      0.00125  0.21245  0.12081     H
O       0.0598   0.1478     0.73     O
O       0.0598     0.73   0.1478     O
O       0.0621   0.1414   0.8657     O
O       0.0621   0.8657   0.1414     O
C       0.0644   0.0644    0.214     C
C       0.0644    0.214   0.0644     C
C       0.0659     -0.0   0.1933     C
C       0.0659   0.1933     -0.0     C
C       0.0664    0.306   0.6674     C
C       0.0664   0.6674    0.306     C
C       0.0706   0.2518   0.6912     C
C       0.0706   0.6912   0.2518     C
O       0.0793   0.8036   0.9379     O
O       0.0793   0.9379   0.8036     O
O        0.088   0.6702   0.9402     O
O        0.088   0.9402   0.6702     O
H      0.09164  0.88044  0.87919     H
In     0.09717  0.09717  0.79154    In
In     0.09717  0.79154  0.09717    In
H      0.12081  0.00125  0.21245     H
H      0.12081  0.21245  0.00125     H
C        0.123     -0.0   0.8612     C
C        0.123   0.8612     -0.0     C
H      0.12643  0.25992  0.72645     H
H      0.12643  0.72645  0.25992     H
C       0.1274   0.9341   0.9341     C
C       0.1316   0.3677   0.6913     C
C       0.1316   0.6913   0.3677     C
H      0.13349  0.60001  0.87357     H
H      0.13349  0.87357  0.60001     H
O       0.1339   0.4135   0.6708     O
O       0.1339   0.6708   0.4135     O
O       0.1343   0.1964   0.2757     O
O       0.1343   0.2757   0.1964     O
C       0.1384     -0.0   0.6914     C
C       0.1384   0.6914      0.0     C
C       0.1388   0.1388   0.2618     C
C       0.1388   0.2618   0.1388     C
O       0.1414   0.0621   0.8657     O
O       0.1414   0.8657   0.0621     O
O       0.1478   0.0598     0.73     O
O       0.1478     0.73   0.0598     O
C       0.1496      0.0   0.9356     C
C       0.1496   0.9356     -0.0     C
C       0.1812   0.6206   0.9294     C
C       0.1812   0.9294   0.6206     C
O       0.1894   0.3809   0.7359     O
O       0.1894   0.7359   0.3809     O
O       0.1915   0.5465   0.8106     O
O       0.1915   0.8106   0.5465     O
C       0.1933     -0.0   0.0659     C
C       0.1933   0.0659      0.0     C
C       0.1947     -0.0   0.6647     C
C       0.1947   0.6647     -0.0     C
O       0.1964   0.1343   0.2757     O
O       0.1964   0.2757   0.1343     O
In     0.20846  0.30563  0.30563    In
H       0.2112 -0.00125  0.11956     H
H       0.2112  0.11956 -0.00125     H
C        0.214   0.0644   0.0644     C
C       0.2361   0.5597   0.8684     C
C       0.2361   0.8684   0.5597     C
C       0.2396    0.601   0.9336     C
C       0.2396   0.9336    0.601     C
In        0.25      0.5     0.75    In
In        0.25     0.75      0.5    In
C       0.2518   0.0706   0.6912     C
C       0.2518   0.6912   0.0706     C
O       0.2573   0.5865   0.7204     O
O       0.2573   0.7204   0.5865     O
H      0.25992  0.12643  0.72645     H
H      0.25992  0.72645  0.12643     H
C       0.2618   0.1388   0.1388     C
O       0.2641   0.4535    0.645     O
O       0.2641    0.645   0.4535     O
H      0.26474  0.65906  0.65939     H
O       0.2686   0.2686   0.2686     O
O         0.27   0.3298   0.4178     O
O         0.27   0.4178   0.3298     O
H      0.27355  0.39999  0.53347     H
H      0.27355  0.53347  0.39999     H
O       0.2757   0.1343   0.1964     O
O       0.2757   0.1964   0.1343     O
O       0.2796   0.5369   0.8661     O
O       0.2796   0.8661   0.5369     O
C       0.2984     -0.0   0.6234     C
C       0.2984   0.6234     -0.0     C
In     0.30563  0.20846  0.30563    In
In     0.30563  0.30563  0.20846    In
C        0.306   0.0664   0.6674     C
C        0.306   0.6674   0.0664     C
C       0.3086   0.3086    0.447     C
C       0.3086    0.447   0.3086     C
C       0.3087   0.4403   0.6764     C
C       0.3087   0.6764   0.4403     C
C       0.3088   0.3794   0.5606     C
C       0.3088   0.5606   0.3794     C
C       0.3236   0.6323   0.7639     C
C       0.3236   0.7639   0.6323     C
C        0.325   0.7016   0.7016     C
O       0.3292   0.4631   0.7427     O
O       0.3292   0.7427   0.4631     O
O       0.3298     0.27   0.4178     O
O       0.3298   0.4178     0.27     O
C       0.3326    0.399   0.6386     C
C       0.3326   0.6386    0.399     C
C       0.3353   0.3353     0.53     C
C       0.3353     0.53   0.3353     C
H      0.34061 -0.00033  0.60536     H
H      0.34094  0.60569  0.00033     H
O        0.355   0.6191   0.8085     O
O        0.355   0.8085   0.6191     O
C       0.3614    0.694   0.7604     C
C       0.3614   0.7604    0.694     C
C       0.3677   0.1316   0.6913     C
C       0.3677   0.6913   0.1316     C
C       0.3766   0.3766    0.675     C
C       0.3766    0.675   0.3766     C
C       0.3794   0.3088   0.5606     C
C       0.3794   0.5606   0.3088     C
O       0.3809   0.1894   0.7359     O
O       0.3809   0.7359   0.1894     O
H      0.39464  0.39431  0.73526     H
H      0.39464  0.73526  0.39431     H
C        0.399   0.3326   0.6386     C
C        0.399   0.6386   0.3326     C
H      0.39999  0.27355  0.53347     H
H      0.39999  0.53347  0.27355     H
O       0.4135   0.1339   0.6708     O
O       0.4135   0.6708   0.1339     O
O       0.4178     0.27   0.3298     O
O       0.4178   0.3298     0.27     O
C       0.4394   0.7482   0.8188     C
C       0.4394   0.8188   0.7482     C
C       0.4403   0.3087   0.6764     C
C       0.4403   0.6764   0.3087     C
C        0.447   0.3086   0.3086     C
O       0.4535   0.2641    0.645     O
O       0.4535    0.645   0.2641     O
O       0.4631   0.3292   0.7427     O
O       0.4631   0.7427   0.3292     O
H      0.46653  0.74008  0.86651     H
H      0.46653  0.86651  0.74008     H
C         0.47   0.8053   0.8053     C
In         0.5     0.25     0.75    In
In         0.5     0.75     0.25    In
C         0.53   0.3353   0.3353     C
H      0.53347  0.27355  0.39999     H
H      0.53347  0.39999  0.27355     H
O       0.5369   0.2796   0.8661     O
O       0.5369   0.8661   0.2796     O
O       0.5465   0.1915   0.8106     O
O       0.5465   0.8106   0.1915     O
C        0.553   0.8616   0.8616     C
C       0.5597   0.2361   0.8684     C
C       0.5597   0.8684   0.2361     C
C       0.5606   0.3088   0.3794     C
C       0.5606   0.3794   0.3088     C
O       0.5822   0.8522    0.912     O
O       0.5822    0.912   0.8522     O
O       0.5865   0.2573   0.7204     O
O       0.5865   0.7204   0.2573     O
H      0.60001  0.13349  0.87357     H
H      0.60001  0.87357  0.13349     H
C        0.601   0.2396   0.9336     C
C        0.601   0.9336   0.2396     C
H      0.60569  0.00033  0.34094     H
H      0.60569  0.34094  0.00033     H
O       0.6191    0.355   0.8085     O
O       0.6191   0.8085    0.355     O
C       0.6206   0.1812   0.9294     C
C       0.6206   0.9294   0.1812     C
C       0.6234     -0.0   0.2984     C
C       0.6234   0.2984     -0.0     C
C       0.6323   0.3236   0.7639     C
C       0.6323   0.7639   0.3236     C
C       0.6386   0.3326    0.399     C
C       0.6386    0.399   0.3326     C
O        0.645   0.2641   0.4535     O
O        0.645   0.4535   0.2641     O
H      0.65906  0.26474  0.65939     H
H      0.65939  0.65906  0.26474     H
C       0.6647     -0.0   0.1947     C
C       0.6647   0.1947     -0.0     C
C       0.6674   0.0664    0.306     C
C       0.6674    0.306   0.0664     C
O       0.6702    0.088   0.9402     O
O       0.6702   0.9402    0.088     O
O       0.6708   0.1339   0.4135     O
O       0.6708   0.4135   0.1339     O
C        0.675   0.3766   0.3766     C
C       0.6764   0.3087   0.4403     C
C       0.6764   0.4403   0.3087     C
C       0.6912   0.0706   0.2518     C
C       0.6912   0.2518   0.0706     C
C       0.6913   0.1316   0.3677     C
C       0.6913   0.3677   0.1316     C
C       0.6914     -0.0   0.1384     C
C       0.6914   0.1384     -0.0     C
C        0.694   0.3614   0.7604     C
C        0.694   0.7604   0.3614     C
In     0.69437     -0.0  0.90283    In
In     0.69437  0.90283     -0.0    In
C       0.7016    0.325   0.7016     C
C       0.7016   0.7016    0.325     C
O       0.7204   0.2573   0.5865     O
O       0.7204   0.5865   0.2573     O
O       0.7243   0.8586   0.9207     O
O       0.7243   0.9207   0.8586     O
H      0.72645  0.12643  0.25992     H
H      0.72645  0.25992  0.12643     H
O         0.73   0.0598   0.1478     O
O         0.73   0.1478   0.0598     O
O       0.7314     -0.0     -0.0     O
H      0.73526  0.39464  0.39431     H
O       0.7359   0.1894   0.3809     O
O       0.7359   0.3809   0.1894     O
C       0.7382    0.877    0.877     C
H      0.74008  0.46653  0.86651     H
H      0.74008  0.86651  0.46653     H
O       0.7427   0.3292   0.4631     O
O       0.7427   0.4631   0.3292     O
C       0.7482   0.4394   0.8188     C
C       0.7482   0.8188   0.4394     C
In        0.75     0.25      0.5    In
In        0.75      0.5     0.25    In
C       0.7604   0.3614    0.694     C
C       0.7604    0.694   0.3614     C
C       0.7639   0.3236   0.6323     C
C       0.7639   0.6323   0.3236     C
C        0.786   0.8504   0.8504     C
H       0.7888  0.78755  0.90836     H
H       0.7888  0.90836  0.78755     H
In     0.79154  0.09717  0.09717    In
O       0.8036   0.0793   0.9379     O
O       0.8036   0.9379   0.0793     O
C       0.8053     0.47   0.8053     C
C       0.8053   0.8053     0.47     C
C       0.8067   0.8067   0.8726     C
C       0.8067   0.8726   0.8067     C
O       0.8085    0.355   0.6191     O
O       0.8085   0.6191    0.355     O
O       0.8106   0.1915   0.5465     O
O       0.8106   0.5465   0.1915     O
C       0.8188   0.4394   0.7482     C
C       0.8188   0.7482   0.4394     C
C       0.8504    0.786   0.8504     C
C       0.8504   0.8504    0.786     C
O       0.8522   0.5822    0.912     O
O       0.8522    0.912   0.5822     O
O       0.8586   0.7243   0.9207     O
O       0.8586   0.9207   0.7243     O
C       0.8612     -0.0    0.123     C
C       0.8612    0.123      0.0     C
C       0.8616    0.553   0.8616     C
C       0.8616   0.8616    0.553     C
O       0.8657   0.0621   0.1414     O
O       0.8657   0.1414   0.0621     O
O       0.8661   0.2796   0.5369     O
O       0.8661   0.5369   0.2796     O
H      0.86651  0.46653  0.74008     H
H      0.86651  0.74008  0.46653     H
C       0.8684   0.2361   0.5597     C
C       0.8684   0.5597   0.2361     C
C       0.8726   0.8067   0.8067     C
H      0.87357  0.13349  0.60001     H
H      0.87357  0.60001  0.13349     H
C        0.877   0.7382    0.877     C
C        0.877    0.877   0.7382     C
H      0.87919  0.09164  0.88044     H
H      0.87919  0.88044  0.09164     H
In     0.90283      0.0  0.69437    In
In     0.90283  0.69437     -0.0    In
H      0.90836  0.78755   0.7888     H
O        0.912   0.5822   0.8522     O
O        0.912   0.8522   0.5822     O
O       0.9207   0.7243   0.8586     O
O       0.9207   0.8586   0.7243     O
C       0.9294   0.1812   0.6206     C
C       0.9294   0.6206   0.1812     C
C       0.9336   0.2396    0.601     C
C       0.9336    0.601   0.2396     C
C       0.9341   0.1274   0.9341     C
C       0.9341   0.9341   0.1274     C
C       0.9356     -0.0   0.1496     C
C       0.9356   0.1496     -0.0     C
O       0.9379   0.0793   0.8036     O
O       0.9379   0.8036   0.0793     O
O       0.9402    0.088   0.6702     O
O       0.9402   0.6702    0.088     O
