data_I
_chemical_name_common  '/home/zhangsd/repos/MofS-CGCNN/ML/data/WS24/clean_cifs/IXIKOR'
_cell_length_a  9.67200
_cell_length_b 23.01000
_cell_length_c 26.09000
_cell_angle_alpha 97.62000
_cell_angle_beta  90.00000
_cell_angle_gamma 90.00000
_space_group_name_H-M_alt      'P 1'


loop_
_space_group_symop_operation_xyz
  'x, y, z' 

loop_
_atom_site_label
_atom_site_fract_x
_atom_site_fract_y
_atom_site_fract_z
_atom_site_type_symbol
H       0.0024   0.2988   0.3593     H
H       0.0024   0.7012   0.1407     H
H       0.0124   0.1081   0.4159     H
H       0.0124   0.8919   0.0841     H
C       0.0336   0.3556   0.8097     C
C       0.0336   0.6444   0.6903     C
H       0.0354   0.3422   0.2863     H
H       0.0354   0.6578   0.2137     H
C         0.04   0.1248   0.4357     C
C         0.04   0.8752   0.0643     C
H       0.0437   0.1201   0.9181     H
H       0.0437   0.8799   0.5819     H
C       0.0452      0.4   0.7142     C
C       0.0452      0.6   0.7858     C
C       0.0463   0.3247    0.643     C
C       0.0463   0.6753    0.857     C
C       0.0536     0.33   0.8533     C
C       0.0536     0.67   0.6467     C
N       0.0551   0.1692    0.477     N
N       0.0551   0.8308    0.023     N
O       0.0714   0.2746  0.05154     O
O       0.0714   0.7254  0.44846     O
C       0.0739   0.3436   0.1263     C
C       0.0739   0.6564   0.3737     C
C       0.0769   0.4203   0.1981     C
C       0.0769   0.5797   0.3019     C
H       0.0884   0.2921   0.6244     H
H       0.0884   0.7079   0.8756     H
O       0.0985   0.2785  0.94268     O
O       0.0985   0.7215  0.55732     O
O       0.1044   0.4307  0.75805     O
O       0.1044   0.5693  0.74195     O
C       0.1084   0.3514   0.6862     C
C       0.1084   0.6486   0.8138     C
C       0.1176   0.4019   0.8009     C
C       0.1176   0.5981   0.6991     C
H       0.1188    0.453   0.2165     H
H       0.1188    0.547   0.2835     H
Zn     0.12173  0.21504  0.98905    Zn
Zn     0.12173  0.78496  0.51095    Zn
C       0.1377   0.3919   0.1543     C
C       0.1377   0.6081   0.3457     C
H       0.1399   0.0578   0.3931     H
H       0.1399   0.9422   0.1069     H
C       0.1403   0.3124   0.0773     C
C       0.1403   0.6876   0.4227     C
H       0.1417   0.2254   0.5341     H
H       0.1417   0.7746   0.9659     H
C         0.15   0.0875   0.4207     C
C         0.15   0.9125   0.0793     C
C       0.1554   0.3495   0.8888     C
C       0.1554   0.6505   0.6112     C
C       0.1585   0.1925   0.5101     C
C       0.1585   0.8075   0.9899     C
C       0.1799   0.3185   0.9346     C
C       0.1799   0.6815   0.5654     C
H       0.1903   0.2059   0.5309     H
H       0.1903   0.7941   0.9691     H
H       0.1922   0.3375   0.6972     H
H       0.1922   0.6625   0.8028     H
H       0.1938   0.0921   0.0963     H
H       0.1938   0.9079   0.4037     H
O       0.2138   0.1676  0.03976     O
O       0.2138   0.8324  0.46024     O
C       0.2185   0.4225   0.8359     C
C       0.2185   0.5775   0.6641     C
H       0.2222    0.405   0.1433     H
H       0.2222    0.595   0.3567     H
H       0.2253   0.0614   0.4143     H
H       0.2253   0.9386   0.0857     H
H       0.2265   0.0459   0.1698     H
H       0.2265   0.9541   0.3302     H
C       0.2371   0.3949   0.8801     C
C       0.2371   0.6051   0.6199     C
O       0.2403   0.1728  0.93146     O
O       0.2403   0.8272  0.56854     O
O       0.2597   0.3272  0.06854     O
O       0.2597   0.6728  0.43146     O
C       0.2629   0.1051   0.1199     C
C       0.2629   0.8949   0.3801     C
H       0.2735   0.4541   0.8302     H
H       0.2735   0.5459   0.6698     H
H       0.2778    0.095   0.8567     H
H       0.2778    0.905   0.6433     H
C       0.2815   0.0775   0.1641     C
C       0.2815   0.9225   0.3359     C
C        0.286   0.1646   0.5091     C
C        0.286   0.8354   0.9909     C
O       0.2862   0.3324  0.96024     O
O       0.2862   0.6676  0.53976     O
H       0.3062   0.4079   0.9037     H
H       0.3062   0.5921   0.5963     H
H       0.3078   0.1625   0.3028     H
H       0.3078   0.8375   0.1972     H
H       0.3097   0.2941   0.4691     H
H       0.3097   0.7059   0.0309     H
C       0.3198   0.3237   0.4967     C
C       0.3198   0.6763   0.0033     C
C       0.3201   0.1815   0.0654     C
C       0.3201   0.8185   0.4346     C
C       0.3446   0.1505   0.1112     C
C       0.3446   0.8495   0.3888     C
H       0.3546   0.1787   0.5325     H
H       0.3546   0.8213   0.9675     H
H       0.3583   0.2746   0.4659     H
H       0.3583   0.7254   0.0341     H
C       0.3597   0.1876   0.9227     C
C       0.3597   0.8124   0.5773     C
C       0.3623   0.1081   0.8457     C
C       0.3623   0.8919   0.6543     C
H       0.3739   0.1437   0.5059     H
H       0.3739   0.8563   0.9941     H
Zn     0.37827  0.28496  0.01095    Zn
Zn     0.37827  0.71504  0.48905    Zn
H       0.3812    0.047   0.7835     H
H       0.3812    0.953   0.7165     H
C       0.3824   0.0981   0.1991     C
C       0.3824   0.9019   0.3009     C
C       0.3916   0.1486   0.3138     C
C       0.3916   0.8514   0.1862     C
O       0.3956   0.0693  0.24195     O
O       0.3956   0.9307  0.25805     O
O       0.4015   0.2215  0.05732     O
O       0.4015   0.7785  0.44268     O
H       0.4116   0.2079   0.3756     H
H       0.4116   0.7921   0.1244     H
C        0.419   0.3777   0.5607     C
C        0.419   0.6223   0.9393     C
C       0.4231   0.0797   0.8019     C
C       0.4231   0.9203   0.6981     C
C       0.4261   0.1564   0.8737     C
C       0.4261   0.8436   0.6263     C
O       0.4286   0.2254  0.94846     O
O       0.4286   0.7746  0.55154     O
N        0.444   0.3286   0.5248     N
N        0.444   0.6714   0.9752     N
C       0.4464     0.17   0.1467     C
C       0.4464     0.83   0.3533     C
C       0.4537   0.1753    0.357     C
C       0.4537   0.8247    0.143     C
C       0.4548      0.1   0.2858     C
C       0.4548      0.9   0.2142     C
H       0.4563   0.3799   0.0819     H
H       0.4563   0.6201   0.4181     H
H       0.4646   0.1578   0.7137     H
H       0.4646   0.8422   0.7863     H
C       0.4664   0.1444   0.1903     C
C       0.4664   0.8556   0.3097     C
H       0.4876   0.3919   0.5841     H
H       0.4876   0.6081   0.9159     H
H       0.4976   0.2012   0.6407     H
H       0.4976   0.7988   0.8593     H
H       0.5024   0.2012   0.1407     H
H       0.5024   0.7988   0.3593     H
H       0.5124   0.3919   0.0841     H
H       0.5124   0.6081   0.4159     H
C       0.5336   0.1444   0.6903     C
C       0.5336   0.8556   0.8097     C
H       0.5354   0.1578   0.2137     H
H       0.5354   0.8422   0.2863     H
C         0.54   0.3752   0.0643     C
C         0.54   0.6248   0.4357     C
H       0.5437   0.3799   0.5819     H
H       0.5437   0.6201   0.9181     H
C       0.5452      0.1   0.7858     C
C       0.5452      0.9   0.7142     C
C       0.5463   0.1753    0.857     C
C       0.5463   0.8247    0.643     C
C       0.5536     0.17   0.6467     C
C       0.5536     0.83   0.8533     C
N       0.5551   0.3308    0.023     N
N       0.5551   0.6692    0.477     N
O       0.5714   0.2254  0.44846     O
O       0.5714   0.7746  0.05154     O
C       0.5739   0.1564   0.3737     C
C       0.5739   0.8436   0.1263     C
C       0.5769   0.0797   0.3019     C
C       0.5769   0.9203   0.1981     C
H       0.5884   0.2079   0.8756     H
H       0.5884   0.7921   0.6244     H
O       0.5985   0.2215  0.55732     O
O       0.5985   0.7785  0.94268     O
O       0.6044   0.0693  0.74195     O
O       0.6044   0.9307  0.75805     O
C       0.6084   0.1486   0.8138     C
C       0.6084   0.8514   0.6862     C
C       0.6176   0.0981   0.6991     C
C       0.6176   0.9019   0.8009     C
H       0.6188    0.047   0.2835     H
H       0.6188    0.953   0.2165     H
Zn     0.62173  0.28496  0.51095    Zn
Zn     0.62173  0.71504  0.98905    Zn
C       0.6377   0.1081   0.3457     C
C       0.6377   0.8919   0.1543     C
H       0.6399   0.4422   0.1069     H
H       0.6399   0.5578   0.3931     H
C       0.6403   0.1876   0.4227     C
C       0.6403   0.8124   0.0773     C
H       0.6417   0.2746   0.9659     H
H       0.6417   0.7254   0.5341     H
C         0.65   0.4125   0.0793     C
C         0.65   0.5875   0.4207     C
C       0.6554   0.1505   0.6112     C
C       0.6554   0.8495   0.8888     C
C       0.6585   0.3075   0.9899     C
C       0.6585   0.6925   0.5101     C
C       0.6799   0.1815   0.5654     C
C       0.6799   0.8185   0.9346     C
H       0.6903   0.2941   0.9691     H
H       0.6903   0.7059   0.5309     H
H       0.6922   0.1625   0.8028     H
H       0.6922   0.8375   0.6972     H
H       0.6938   0.4079   0.4037     H
H       0.6938   0.5921   0.0963     H
O       0.7138   0.3324  0.46024     O
O       0.7138   0.6676  0.03976     O
C       0.7185   0.0775   0.6641     C
C       0.7185   0.9225   0.8359     C
H       0.7222    0.095   0.3567     H
H       0.7222    0.905   0.1433     H
H       0.7253   0.4386   0.0857     H
H       0.7253   0.5614   0.4143     H
H       0.7265   0.4541   0.3302     H
H       0.7265   0.5459   0.1698     H
C       0.7371   0.1051   0.6199     C
C       0.7371   0.8949   0.8801     C
O       0.7403   0.3272  0.56854     O
O       0.7403   0.6728  0.93146     O
O       0.7597   0.1728  0.43146     O
O       0.7597   0.8272  0.06854     O
C       0.7629   0.3949   0.3801     C
C       0.7629   0.6051   0.1199     C
H       0.7735   0.0459   0.6698     H
H       0.7735   0.9541   0.8302     H
H       0.7778    0.405   0.6433     H
H       0.7778    0.595   0.8567     H
C       0.7815   0.4225   0.3359     C
C       0.7815   0.5775   0.1641     C
C        0.786   0.3354   0.9909     C
C        0.786   0.6646   0.5091     C
O       0.7862   0.1676  0.53976     O
O       0.7862   0.8324  0.96024     O
H       0.8062   0.0921   0.5963     H
H       0.8062   0.9079   0.9037     H
H       0.8078   0.3375   0.1972     H
H       0.8078   0.6625   0.3028     H
H       0.8097   0.2059   0.0309     H
H       0.8097   0.7941   0.4691     H
C       0.8198   0.1763   0.0033     C
C       0.8198   0.8237   0.4967     C
C       0.8201   0.3185   0.4346     C
C       0.8201   0.6815   0.0654     C
C       0.8446   0.3495   0.3888     C
C       0.8446   0.6505   0.1112     C
H       0.8546   0.3213   0.9675     H
H       0.8546   0.6787   0.5325     H
H       0.8583   0.2254   0.0341     H
H       0.8583   0.7746   0.4659     H
C       0.8597   0.3124   0.5773     C
C       0.8597   0.6876   0.9227     C
C       0.8623   0.3919   0.6543     C
C       0.8623   0.6081   0.8457     C
H       0.8739   0.3563   0.9941     H
H       0.8739   0.6437   0.5059     H
Zn     0.87827  0.21504  0.48905    Zn
Zn     0.87827  0.78496  0.01095    Zn
H       0.8812    0.453   0.7165     H
H       0.8812    0.547   0.7835     H
C       0.8824   0.4019   0.3009     C
C       0.8824   0.5981   0.1991     C
C       0.8916   0.3514   0.1862     C
C       0.8916   0.6486   0.3138     C
O       0.8956   0.4307  0.25805     O
O       0.8956   0.5693  0.24195     O
O       0.9015   0.2785  0.44268     O
O       0.9015   0.7215  0.05732     O
H       0.9116   0.2921   0.1244     H
H       0.9116   0.7079   0.3756     H
C        0.919   0.1223   0.9393     C
C        0.919   0.8777   0.5607     C
C       0.9231   0.4203   0.6981     C
C       0.9231   0.5797   0.8019     C
C       0.9261   0.3436   0.6263     C
C       0.9261   0.6564   0.8737     C
O       0.9286   0.2746  0.55154     O
O       0.9286   0.7254  0.94846     O
N        0.944   0.1714   0.9752     N
N        0.944   0.8286   0.5248     N
C       0.9464     0.33   0.3533     C
C       0.9464     0.67   0.1467     C
C       0.9537   0.3247    0.143     C
C       0.9537   0.6753    0.357     C
C       0.9548      0.4   0.2142     C
C       0.9548      0.6   0.2858     C
H       0.9563   0.1201   0.4181     H
H       0.9563   0.8799   0.0819     H
H       0.9646   0.3422   0.7863     H
H       0.9646   0.6578   0.7137     H
C       0.9664   0.3556   0.3097     C
C       0.9664   0.6444   0.1903     C
H       0.9876   0.1081   0.9159     H
H       0.9876   0.8919   0.5841     H
H       0.9976   0.2988   0.8593     H
H       0.9976   0.7012   0.6407     H
