data_I
_chemical_name_common  '/home/zhangsd/repos/MofS-CGCNN/ML/data/WS24/clean_cifs/IYATEI'
_cell_length_a 15.33600
_cell_length_b 15.33600
_cell_length_c 19.08100
_cell_angle_alpha 90.00000
_cell_angle_beta  90.00000
_cell_angle_gamma 90.00000
_space_group_name_H-M_alt      'P 1'


loop_
_space_group_symop_operation_xyz
  'x, y, z' 

loop_
_atom_site_label
_atom_site_fract_x
_atom_site_fract_y
_atom_site_fract_z
_atom_site_type_symbol
N          0.0      0.0   0.0669     N
Zn         0.0      0.0  0.17446    Zn
Zn         0.0      0.0  0.32554    Zn
N          0.0      0.0   0.4331     N
N          0.0      0.0   0.5669     N
Zn         0.0      0.0  0.67446    Zn
Zn         0.0      0.0  0.82554    Zn
N          0.0      0.0   0.9331     N
H         0.02   0.3726   0.1327     H
H         0.02   0.3726   0.8673     H
H         0.02   0.6274   0.3673     H
H         0.02   0.6274   0.6327     H
C        0.027   0.0898   0.4604     C
C        0.027   0.0898   0.5396     C
C        0.027   0.9102   0.0396     C
C        0.027   0.9102   0.9604     C
H       0.0447   0.2389   0.1816     H
H       0.0447   0.2389   0.8184     H
H       0.0447   0.7611   0.3184     H
H       0.0447   0.7611   0.6816     H
C        0.045     0.08    0.043     C
C        0.045     0.08    0.957     C
C        0.045     0.92    0.457     C
C        0.045     0.92    0.543     C
C       0.0743   0.3608   0.1536     C
C       0.0743   0.3608   0.8464     C
C       0.0743   0.6392   0.3464     C
C       0.0743   0.6392   0.6536     C
O       0.0774   0.1047   0.3065     O
O       0.0774   0.1047   0.6935     O
O       0.0774   0.8953   0.1935     O
O       0.0774   0.8953   0.8065     O
C         0.08    0.045    0.457     C
C         0.08    0.045    0.543     C
C         0.08    0.955    0.043     C
C         0.08    0.955    0.957     C
C       0.0883   0.2819    0.183     C
C       0.0883   0.2819    0.817     C
C       0.0883   0.7181    0.317     C
C       0.0883   0.7181    0.683     C
C       0.0898    0.027   0.0396     C
C       0.0898    0.027   0.9604     C
C       0.0898    0.973   0.4604     C
C       0.0898    0.973   0.5396     C
O       0.1047   0.0774   0.1935     O
O       0.1047   0.0774   0.8065     O
O       0.1047   0.9226   0.3065     O
O       0.1047   0.9226   0.6935     O
C       0.1167   0.1167     0.25     C
C       0.1167   0.1167     0.75     C
C       0.1167   0.8833     0.25     C
C       0.1167   0.8833     0.75     C
H       0.1274     0.48   0.1327     H
H       0.1274     0.48   0.8673     H
H       0.1274     0.52   0.3673     H
H       0.1274     0.52   0.6327     H
C       0.1392   0.4257   0.1536     C
C       0.1392   0.4257   0.8464     C
C       0.1392   0.5743   0.3464     C
C       0.1392   0.5743   0.6536     C
C       0.1697   0.2644   0.2162     C
C       0.1697   0.2644   0.7838     C
C       0.1697   0.7356   0.2838     C
C       0.1697   0.7356   0.7162     C
C       0.1856   0.1856     0.25     C
C       0.1856   0.1856     0.75     C
C       0.1856   0.8144     0.25     C
C       0.1856   0.8144     0.75     C
C       0.2181   0.4117    0.183     C
C       0.2181   0.4117    0.817     C
C       0.2181   0.5883    0.317     C
C       0.2181   0.5883    0.683     C
C       0.2356   0.3303   0.2162     C
C       0.2356   0.3303   0.7838     C
C       0.2356   0.6697   0.2838     C
C       0.2356   0.6697   0.7162     C
H       0.2389   0.0447   0.3184     H
H       0.2389   0.0447   0.6816     H
H       0.2389   0.9553   0.1816     H
H       0.2389   0.9553   0.8184     H
H       0.2611   0.4553   0.1816     H
H       0.2611   0.4553   0.8184     H
H       0.2611   0.5447   0.3184     H
H       0.2611   0.5447   0.6816     H
C       0.2644   0.1697   0.2838     C
C       0.2644   0.1697   0.7162     C
C       0.2644   0.8303   0.2162     C
C       0.2644   0.8303   0.7838     C
C       0.2819   0.0883    0.317     C
C       0.2819   0.0883    0.683     C
C       0.2819   0.9117    0.183     C
C       0.2819   0.9117    0.817     C
C       0.3144   0.3144     0.25     C
C       0.3144   0.3144     0.75     C
C       0.3144   0.6856     0.25     C
C       0.3144   0.6856     0.75     C
C       0.3303   0.2356   0.2838     C
C       0.3303   0.2356   0.7162     C
C       0.3303   0.7644   0.2162     C
C       0.3303   0.7644   0.7838     C
C       0.3608   0.0743   0.3464     C
C       0.3608   0.0743   0.6536     C
C       0.3608   0.9257   0.1536     C
C       0.3608   0.9257   0.8464     C
H       0.3726     0.02   0.3673     H
H       0.3726     0.02   0.6327     H
H       0.3726     0.98   0.1327     H
H       0.3726     0.98   0.8673     H
C       0.3833   0.3833     0.25     C
C       0.3833   0.3833     0.75     C
C       0.3833   0.6167     0.25     C
C       0.3833   0.6167     0.75     C
O       0.3953   0.4226   0.3065     O
O       0.3953   0.4226   0.6935     O
O       0.3953   0.5774   0.1935     O
O       0.3953   0.5774   0.8065     O
C       0.4102    0.473   0.4604     C
C       0.4102    0.473   0.5396     C
C       0.4102    0.527   0.0396     C
C       0.4102    0.527   0.9604     C
C       0.4117   0.2181    0.317     C
C       0.4117   0.2181    0.683     C
C       0.4117   0.7819    0.183     C
C       0.4117   0.7819    0.817     C
C         0.42    0.455    0.043     C
C         0.42    0.455    0.957     C
C         0.42    0.545    0.457     C
C         0.42    0.545    0.543     C
O       0.4226   0.3953   0.1935     O
O       0.4226   0.3953   0.8065     O
O       0.4226   0.6047   0.3065     O
O       0.4226   0.6047   0.6935     O
C       0.4257   0.1392   0.3464     C
C       0.4257   0.1392   0.6536     C
C       0.4257   0.8608   0.1536     C
C       0.4257   0.8608   0.8464     C
C        0.455     0.42    0.457     C
C        0.455     0.42    0.543     C
C        0.455     0.58    0.043     C
C        0.455     0.58    0.957     C
H       0.4553   0.2611   0.3184     H
H       0.4553   0.2611   0.6816     H
H       0.4553   0.7389   0.1816     H
H       0.4553   0.7389   0.8184     H
C        0.473   0.4102   0.0396     C
C        0.473   0.4102   0.9604     C
C        0.473   0.5898   0.4604     C
C        0.473   0.5898   0.5396     C
H         0.48   0.1274   0.3673     H
H         0.48   0.1274   0.6327     H
H         0.48   0.8726   0.1327     H
H         0.48   0.8726   0.8673     H
N          0.5      0.5   0.0669     N
Zn         0.5      0.5  0.17446    Zn
Zn         0.5      0.5  0.32554    Zn
N          0.5      0.5   0.4331     N
N          0.5      0.5   0.5669     N
Zn         0.5      0.5  0.67446    Zn
Zn         0.5      0.5  0.82554    Zn
N          0.5      0.5   0.9331     N
H         0.52   0.1274   0.1327     H
H         0.52   0.1274   0.8673     H
H         0.52   0.8726   0.3673     H
H         0.52   0.8726   0.6327     H
C        0.527   0.4102   0.4604     C
C        0.527   0.4102   0.5396     C
C        0.527   0.5898   0.0396     C
C        0.527   0.5898   0.9604     C
H       0.5447   0.2611   0.1816     H
H       0.5447   0.2611   0.8184     H
H       0.5447   0.7389   0.3184     H
H       0.5447   0.7389   0.6816     H
C        0.545     0.42    0.043     C
C        0.545     0.42    0.957     C
C        0.545     0.58    0.457     C
C        0.545     0.58    0.543     C
C       0.5743   0.1392   0.1536     C
C       0.5743   0.1392   0.8464     C
C       0.5743   0.8608   0.3464     C
C       0.5743   0.8608   0.6536     C
O       0.5774   0.3953   0.3065     O
O       0.5774   0.3953   0.6935     O
O       0.5774   0.6047   0.1935     O
O       0.5774   0.6047   0.8065     O
C         0.58    0.455    0.457     C
C         0.58    0.455    0.543     C
C         0.58    0.545    0.043     C
C         0.58    0.545    0.957     C
C       0.5883   0.2181    0.183     C
C       0.5883   0.2181    0.817     C
C       0.5883   0.7819    0.317     C
C       0.5883   0.7819    0.683     C
C       0.5898    0.473   0.0396     C
C       0.5898    0.473   0.9604     C
C       0.5898    0.527   0.4604     C
C       0.5898    0.527   0.5396     C
O       0.6047   0.4226   0.1935     O
O       0.6047   0.4226   0.8065     O
O       0.6047   0.5774   0.3065     O
O       0.6047   0.5774   0.6935     O
C       0.6167   0.3833     0.25     C
C       0.6167   0.3833     0.75     C
C       0.6167   0.6167     0.25     C
C       0.6167   0.6167     0.75     C
H       0.6274     0.02   0.1327     H
H       0.6274     0.02   0.8673     H
H       0.6274     0.98   0.3673     H
H       0.6274     0.98   0.6327     H
C       0.6392   0.0743   0.1536     C
C       0.6392   0.0743   0.8464     C
C       0.6392   0.9257   0.3464     C
C       0.6392   0.9257   0.6536     C
C       0.6697   0.2356   0.2162     C
C       0.6697   0.2356   0.7838     C
C       0.6697   0.7644   0.2838     C
C       0.6697   0.7644   0.7162     C
C       0.6856   0.3144     0.25     C
C       0.6856   0.3144     0.75     C
C       0.6856   0.6856     0.25     C
C       0.6856   0.6856     0.75     C
C       0.7181   0.0883    0.183     C
C       0.7181   0.0883    0.817     C
C       0.7181   0.9117    0.317     C
C       0.7181   0.9117    0.683     C
C       0.7356   0.1697   0.2162     C
C       0.7356   0.1697   0.7838     C
C       0.7356   0.8303   0.2838     C
C       0.7356   0.8303   0.7162     C
H       0.7389   0.4553   0.3184     H
H       0.7389   0.4553   0.6816     H
H       0.7389   0.5447   0.1816     H
H       0.7389   0.5447   0.8184     H
H       0.7611   0.0447   0.1816     H
H       0.7611   0.0447   0.8184     H
H       0.7611   0.9553   0.3184     H
H       0.7611   0.9553   0.6816     H
C       0.7644   0.3303   0.2838     C
C       0.7644   0.3303   0.7162     C
C       0.7644   0.6697   0.2162     C
C       0.7644   0.6697   0.7838     C
C       0.7819   0.4117    0.317     C
C       0.7819   0.4117    0.683     C
C       0.7819   0.5883    0.183     C
C       0.7819   0.5883    0.817     C
C       0.8144   0.1856     0.25     C
C       0.8144   0.1856     0.75     C
C       0.8144   0.8144     0.25     C
C       0.8144   0.8144     0.75     C
C       0.8303   0.2644   0.2838     C
C       0.8303   0.2644   0.7162     C
C       0.8303   0.7356   0.2162     C
C       0.8303   0.7356   0.7838     C
C       0.8608   0.4257   0.3464     C
C       0.8608   0.4257   0.6536     C
C       0.8608   0.5743   0.1536     C
C       0.8608   0.5743   0.8464     C
H       0.8726     0.48   0.3673     H
H       0.8726     0.48   0.6327     H
H       0.8726     0.52   0.1327     H
H       0.8726     0.52   0.8673     H
C       0.8833   0.1167     0.25     C
C       0.8833   0.1167     0.75     C
C       0.8833   0.8833     0.25     C
C       0.8833   0.8833     0.75     C
O       0.8953   0.0774   0.3065     O
O       0.8953   0.0774   0.6935     O
O       0.8953   0.9226   0.1935     O
O       0.8953   0.9226   0.8065     O
C       0.9102    0.027   0.4604     C
C       0.9102    0.027   0.5396     C
C       0.9102    0.973   0.0396     C
C       0.9102    0.973   0.9604     C
C       0.9117   0.2819    0.317     C
C       0.9117   0.2819    0.683     C
C       0.9117   0.7181    0.183     C
C       0.9117   0.7181    0.817     C
C         0.92    0.045    0.043     C
C         0.92    0.045    0.957     C
C         0.92    0.955    0.457     C
C         0.92    0.955    0.543     C
O       0.9226   0.1047   0.1935     O
O       0.9226   0.1047   0.8065     O
O       0.9226   0.8953   0.3065     O
O       0.9226   0.8953   0.6935     O
C       0.9257   0.3608   0.3464     C
C       0.9257   0.3608   0.6536     C
C       0.9257   0.6392   0.1536     C
C       0.9257   0.6392   0.8464     C
C        0.955     0.08    0.457     C
C        0.955     0.08    0.543     C
C        0.955     0.92    0.043     C
C        0.955     0.92    0.957     C
H       0.9553   0.2389   0.3184     H
H       0.9553   0.2389   0.6816     H
H       0.9553   0.7611   0.1816     H
H       0.9553   0.7611   0.8184     H
C        0.973   0.0898   0.0396     C
C        0.973   0.0898   0.9604     C
C        0.973   0.9102   0.4604     C
C        0.973   0.9102   0.5396     C
H         0.98   0.3726   0.3673     H
H         0.98   0.3726   0.6327     H
H         0.98   0.6274   0.1327     H
H         0.98   0.6274   0.8673     H
