data_I
_chemical_name_common  '/home/zhangsd/repos/MofS-CGCNN/ML/data/WS24/clean_cifs/IZENEI'
_cell_length_a 22.45700
_cell_length_b 22.45700
_cell_length_c 22.45700
_cell_angle_alpha 90.00000
_cell_angle_beta  90.00000
_cell_angle_gamma 90.00000
_space_group_name_H-M_alt      'P 1'


loop_
_space_group_symop_operation_xyz
  'x, y, z' 

loop_
_atom_site_label
_atom_site_fract_x
_atom_site_fract_y
_atom_site_fract_z
_atom_site_type_symbol
H       0.0093   0.2413   0.7205     H
H       0.0093   0.7587   0.2795     H
C        0.011   0.1995   0.7143     C
C        0.011   0.8005   0.2857     C
N       0.0138   0.3043   0.9771     N
N       0.0138   0.6957   0.0229     N
C       0.0157   0.0773   0.6987     C
C       0.0157   0.9227   0.3013     C
N       0.0229   0.0138   0.6957     N
N       0.0229   0.9862   0.3043     N
C        0.039   0.1051   0.2943     C
C        0.039   0.8949   0.7057     C
C       0.0415   0.1659   0.2869     C
C       0.0415   0.8341   0.7131     C
C       0.0654   0.1715   0.7064     C
C       0.0654   0.8285   0.2936     C
C       0.0682   0.1104   0.6986     C
C       0.0682   0.8896   0.3014     C
H       0.0746   0.0822   0.2947     H
H       0.0746   0.9178   0.7053     H
C       0.0773   0.3013   0.9843     C
C       0.0773   0.6987   0.0157     C
H       0.0822   0.2947   0.0746     H
H       0.0822   0.7053   0.9254     H
H       0.0913   0.3069   0.8944     H
H       0.0913   0.6931   0.1056     H
C       0.1015   0.1949     0.28     C
C       0.1015   0.8051     0.72     C
O       0.1033  0.24754   0.2613     O
O       0.1033  0.75246   0.7387     O
Cl      0.1044   0.3878   0.2372    Cl
Cl      0.1044   0.6122   0.7628    Cl
C       0.1051   0.2943    0.039     C
C       0.1051   0.7057    0.961     C
H       0.1056   0.0913   0.6931     H
H       0.1056   0.9087   0.3069     H
C       0.1104   0.3014   0.9318     C
C       0.1104   0.6986   0.0682     C
Cl      0.1122   0.3956   0.7372    Cl
Cl      0.1122   0.6044   0.2628    Cl
O      0.12143   0.2593   0.7205     O
O      0.12143   0.7407   0.2795     O
C       0.1229   0.2051   0.7053     C
C       0.1229   0.7949   0.2947     C
O      0.14586   0.1628   0.2939     O
O      0.14586   0.8372   0.7061     O
O       0.1628   0.2939  0.14586     O
O       0.1628   0.7061  0.85414     O
C       0.1659   0.2869   0.0415     C
C       0.1659   0.7131   0.9585     C
O      0.16775   0.1755     0.69     O
O      0.16775   0.8245     0.31     O
C       0.1715   0.2936   0.9346     C
C       0.1715   0.7064   0.0654     C
O       0.1755     0.31  0.83225     O
O       0.1755     0.69  0.16775     O
In     0.17769  0.30642  0.23929    In
In     0.17769  0.69358  0.76071    In
O         0.19   0.3245  0.33225     O
O         0.19   0.6755  0.66775     O
H       0.1931   0.4087   0.3944     H
H       0.1931   0.5913   0.6056     H
In     0.19358  0.32231  0.73929    In
In     0.19358  0.67769  0.26071    In
C       0.1949     0.28   0.1015     C
C       0.1949     0.72   0.8985     C
N       0.1957   0.4862   0.4771     N
N       0.1957   0.5138   0.5229     N
C       0.1986   0.3896   0.4318     C
C       0.1986   0.6104   0.5682     C
C       0.1987   0.4227   0.4843     C
C       0.1987   0.5773   0.5157     C
C       0.1995   0.2857    0.989     C
C       0.1995   0.7143    0.011     C
C       0.2051   0.2947   0.8771     C
C       0.2051   0.7053   0.1229     C
C       0.2053   0.2949   0.3771     C
H       0.2053   0.4178   0.5746     H
H       0.2053   0.5822   0.4254     H
C       0.2053   0.7051   0.6229     C
C       0.2057   0.3949    0.539     C
C       0.2057   0.6051    0.461     C
O       0.2061   0.3372  0.64586     O
O       0.2061   0.6628  0.35414     O
C       0.2064   0.3285   0.4346     C
C       0.2064   0.6715   0.5654     C
C       0.2131   0.3341   0.5415     C
C       0.2131   0.6659   0.4585     C
C       0.2143   0.3005    0.489     C
C       0.2143   0.6995    0.511     C
C         0.22   0.3051   0.6015     C
C         0.22   0.6949   0.3985     C
O       0.2205   0.2407  0.37857     O
H       0.2205   0.2587   0.4907     H
H       0.2205   0.7413   0.5093     H
O       0.2205   0.7593  0.62143     O
Cl      0.2372   0.1044   0.3878    Cl
Cl      0.2372   0.8956   0.6122    Cl
O       0.2387  0.25246   0.6033     O
O       0.2387  0.74754   0.3967     O
In     0.23929  0.17769  0.30642    In
In     0.23929  0.82231  0.69358    In
O       0.2403   0.2403   0.2403     O
O       0.2403   0.7597   0.7597     O
O       0.2407  0.37857   0.2205     O
O       0.2407  0.62143   0.7795     O
H       0.2413   0.2795   0.9907     H
H       0.2413   0.7205   0.0093     H
O      0.24754   0.2613   0.1033     O
O      0.24754   0.7387   0.8967     O
O      0.25246   0.3967   0.7613     O
O      0.25246   0.6033   0.2387     O
H       0.2587   0.4907   0.2205     H
H       0.2587   0.5093   0.7795     H
O       0.2593   0.2795  0.87857     O
O       0.2593   0.7205  0.12143     O
O       0.2597   0.2597   0.7403     O
O       0.2597   0.7403   0.2597     O
In     0.26071  0.19358  0.67769    In
In     0.26071  0.80642  0.32231    In
O       0.2612    0.128   0.6071     O
O       0.2612    0.872   0.3929     O
O       0.2613   0.1033  0.24754     O
O       0.2613   0.8967  0.75246     O
H       0.2795   0.0093   0.7587     H
O       0.2795  0.12143   0.7407     O
O       0.2795  0.87857   0.2593     O
H       0.2795   0.9907   0.2413     H
C         0.28   0.1015   0.1949     C
C         0.28   0.8985   0.8051     C
C       0.2857    0.011   0.8005     C
C       0.2857    0.989   0.1995     C
C       0.2869   0.0415   0.1659     C
C       0.2869   0.9585   0.8341     C
C       0.2936   0.0654   0.8285     C
C       0.2936   0.9346   0.1715     C
O       0.2939  0.14586   0.1628     O
O       0.2939  0.85414   0.8372     O
C       0.2943    0.039   0.1051     C
C       0.2943    0.961   0.8949     C
H       0.2947   0.0746   0.0822     H
C       0.2947   0.1229   0.7949     C
C       0.2947   0.8771   0.2051     C
H       0.2947   0.9254   0.9178     H
C       0.2949   0.3771   0.2053     C
C       0.2949   0.6229   0.7947     C
C       0.3005    0.489   0.2143     C
C       0.3005    0.511   0.7857     C
C       0.3013   0.0157   0.9227     C
C       0.3013   0.9843   0.0773     C
C       0.3014   0.0682   0.8896     C
C       0.3014   0.9318   0.1104     C
N       0.3043   0.0229   0.9862     N
N       0.3043   0.9771   0.0138     N
C       0.3051   0.3985     0.78     C
C       0.3051   0.6015     0.22     C
In     0.30642  0.23929  0.17769    In
In     0.30642  0.76071  0.82231    In
H       0.3069   0.1056   0.9087     H
H       0.3069   0.8944   0.0913     H
O         0.31  0.16775   0.8245     O
O         0.31  0.83225   0.1755     O
In     0.32231  0.26071  0.80642    In
In     0.32231  0.73929  0.19358    In
O       0.3245  0.33225     0.19     O
O       0.3245  0.66775     0.81     O
C       0.3285   0.4346   0.2064     C
C       0.3285   0.5654   0.7936     C
O      0.33225     0.19   0.3245     O
O      0.33225     0.81   0.6755     O
C       0.3341   0.4585   0.7869     C
C       0.3341   0.5415   0.2131     C
O       0.3372  0.35414   0.7939     O
O       0.3372  0.64586   0.2061     O
O      0.35414   0.2061   0.6628     O
O      0.35414   0.7939   0.3372     O
O        0.372   0.2388   0.1071     O
O        0.372   0.7612   0.8929     O
C       0.3771   0.2053   0.2949     C
C       0.3771   0.7947   0.7051     C
O      0.37857   0.2205   0.2407     O
O      0.37857   0.7795   0.7593     O
C       0.3896   0.4318   0.1986     C
C       0.3896   0.5682   0.8014     C
O       0.3929   0.2612    0.872     O
O       0.3929   0.7388    0.128     O
H       0.3944   0.1931   0.4087     H
H       0.3944   0.8069   0.5913     H
C       0.3949    0.461   0.7943     C
C       0.3949    0.539   0.2057     C
O       0.3967   0.2387  0.74754     O
O       0.3967   0.7613  0.25246     O
C       0.3985     0.22   0.6949     C
C       0.3985     0.78   0.3051     C
H       0.4087   0.3944   0.1931     H
H       0.4087   0.6056   0.8069     H
H       0.4178   0.4254   0.7947     H
H       0.4178   0.5746   0.2053     H
C       0.4227   0.4843   0.1987     C
C       0.4227   0.5157   0.8013     C
H       0.4254   0.2053   0.5822     H
H       0.4254   0.7947   0.4178     H
C       0.4318   0.1986   0.3896     C
C       0.4318   0.8014   0.6104     C
C       0.4346   0.2064   0.3285     C
C       0.4346   0.7936   0.6715     C
C       0.4585   0.2131   0.6659     C
C       0.4585   0.7869   0.3341     C
C        0.461   0.2057   0.6051     C
C        0.461   0.7943   0.3949     C
N       0.4771   0.1957   0.4862     N
N       0.4771   0.8043   0.5138     N
C       0.4843   0.1987   0.4227     C
C       0.4843   0.8013   0.5773     C
N       0.4862   0.4771   0.1957     N
N       0.4862   0.5229   0.8043     N
C        0.489   0.2143   0.3005     C
C        0.489   0.7857   0.6995     C
H       0.4907   0.2205   0.2587     H
H       0.4907   0.7795   0.7413     H
H       0.5093   0.2205   0.7413     H
H       0.5093   0.7795   0.2587     H
C        0.511   0.2143   0.6995     C
C        0.511   0.7857   0.3005     C
N       0.5138   0.4771   0.8043     N
N       0.5138   0.5229   0.1957     N
C       0.5157   0.1987   0.5773     C
C       0.5157   0.8013   0.4227     C
N       0.5229   0.1957   0.5138     N
N       0.5229   0.8043   0.4862     N
C        0.539   0.2057   0.3949     C
C        0.539   0.7943   0.6051     C
C       0.5415   0.2131   0.3341     C
C       0.5415   0.7869   0.6659     C
C       0.5654   0.2064   0.6715     C
C       0.5654   0.7936   0.3285     C
C       0.5682   0.1986   0.6104     C
C       0.5682   0.8014   0.3896     C
H       0.5746   0.2053   0.4178     H
H       0.5746   0.7947   0.5822     H
C       0.5773   0.4843   0.8013     C
C       0.5773   0.5157   0.1987     C
H       0.5822   0.4254   0.2053     H
H       0.5822   0.5746   0.7947     H
H       0.5913   0.3944   0.8069     H
H       0.5913   0.6056   0.1931     H
C       0.6015     0.22   0.3051     C
C       0.6015     0.78   0.6949     C
O       0.6033   0.2387  0.25246     O
O       0.6033   0.7613  0.74754     O
Cl      0.6044   0.2628   0.1122    Cl
Cl      0.6044   0.7372   0.8878    Cl
C       0.6051    0.461   0.2057     C
C       0.6051    0.539   0.7943     C
H       0.6056   0.1931   0.5913     H
H       0.6056   0.8069   0.4087     H
C       0.6104   0.4318   0.8014     C
C       0.6104   0.5682   0.1986     C
Cl      0.6122   0.2372   0.8956    Cl
Cl      0.6122   0.7628   0.1044    Cl
O      0.62143   0.2205   0.7593     O
O      0.62143   0.7795   0.2407     O
C       0.6229   0.2053   0.7051     C
C       0.6229   0.7947   0.2949     C
O      0.64586   0.2061   0.3372     O
O      0.64586   0.7939   0.6628     O
O       0.6628  0.35414   0.2061     O
O       0.6628  0.64586   0.7939     O
C       0.6659   0.4585   0.2131     C
C       0.6659   0.5415   0.7869     C
O      0.66775     0.19   0.6755     O
O      0.66775     0.81   0.3245     O
C       0.6715   0.4346   0.7936     C
C       0.6715   0.5654   0.2064     C
O       0.6755  0.33225     0.81     O
O       0.6755  0.66775     0.19     O
In     0.67769  0.26071  0.19358    In
In     0.67769  0.73929  0.80642    In
O         0.69  0.16775   0.1755     O
O         0.69  0.83225   0.8245     O
H       0.6931   0.1056   0.0913     H
H       0.6931   0.8944   0.9087     H
In     0.69358  0.23929  0.82231    In
In     0.69358  0.76071  0.17769    In
C       0.6949   0.3985     0.22     C
C       0.6949   0.6015     0.78     C
N       0.6957   0.0229   0.0138     N
N       0.6957   0.9771   0.9862     N
C       0.6986   0.0682   0.1104     C
C       0.6986   0.9318   0.8896     C
C       0.6987   0.0157   0.0773     C
C       0.6987   0.9843   0.9227     C
C       0.6995    0.489   0.7857     C
C       0.6995    0.511   0.2143     C
C       0.7051   0.3771   0.7947     C
C       0.7051   0.6229   0.2053     C
H       0.7053   0.0746   0.9178     H
C       0.7053   0.1229   0.2051     C
C       0.7053   0.8771   0.7949     C
H       0.7053   0.9254   0.0822     H
C       0.7057    0.039   0.8949     C
C       0.7057    0.961   0.1051     C
O       0.7061  0.14586   0.8372     O
O       0.7061  0.85414   0.1628     O
C       0.7064   0.0654   0.1715     C
C       0.7064   0.9346   0.8285     C
C       0.7131   0.0415   0.8341     C
C       0.7131   0.9585   0.1659     C
C       0.7143    0.011   0.1995     C
C       0.7143    0.989   0.8005     C
C         0.72   0.1015   0.8051     C
C         0.72   0.8985   0.1949     C
H       0.7205   0.0093   0.2413     H
O       0.7205  0.12143   0.2593     O
O       0.7205  0.87857   0.7407     O
H       0.7205   0.9907   0.7587     H
Cl      0.7372   0.1122   0.3956    Cl
Cl      0.7372   0.8878   0.6044    Cl
O       0.7387   0.1033  0.75246     O
O       0.7387   0.8967  0.24754     O
In     0.73929  0.19358  0.32231    In
In     0.73929  0.80642  0.67769    In
O       0.7403   0.2597   0.2597     O
O       0.7403   0.7403   0.7403     O
O       0.7407   0.2795  0.12143     O
O       0.7407   0.7205  0.87857     O
H       0.7413   0.4907   0.7795     H
H       0.7413   0.5093   0.2205     H
O      0.74754   0.3967   0.2387     O
O      0.74754   0.6033   0.7613     O
O      0.75246   0.2613   0.8967     O
O      0.75246   0.7387   0.1033     O
H       0.7587   0.2795   0.0093     H
H       0.7587   0.7205   0.9907     H
O       0.7593  0.37857   0.7795     O
O       0.7593  0.62143   0.2205     O
O       0.7597   0.2403   0.7597     O
O       0.7597   0.7597   0.2403     O
In     0.76071  0.17769  0.69358    In
In     0.76071  0.82231  0.30642    In
O       0.7612   0.1071    0.628     O
O       0.7612   0.8929    0.372     O
O       0.7613  0.25246   0.3967     O
O       0.7613  0.74754   0.6033     O
O       0.7795   0.2407  0.62143     O
H       0.7795   0.2587   0.5093     H
H       0.7795   0.7413   0.4907     H
O       0.7795   0.7593  0.37857     O
C         0.78   0.3051   0.3985     C
C         0.78   0.6949   0.6015     C
C       0.7857   0.3005    0.511     C
C       0.7857   0.6995    0.489     C
C       0.7869   0.3341   0.4585     C
C       0.7869   0.6659   0.5415     C
C       0.7936   0.3285   0.5654     C
C       0.7936   0.6715   0.4346     C
O       0.7939   0.3372  0.35414     O
O       0.7939   0.6628  0.64586     O
C       0.7943   0.3949    0.461     C
C       0.7943   0.6051    0.539     C
C       0.7947   0.2949   0.6229     C
H       0.7947   0.4178   0.4254     H
H       0.7947   0.5822   0.5746     H
C       0.7947   0.7051   0.3771     C
C       0.7949   0.2947   0.1229     C
C       0.7949   0.7053   0.8771     C
C       0.8005   0.2857    0.011     C
C       0.8005   0.7143    0.989     C
C       0.8013   0.4227   0.5157     C
C       0.8013   0.5773   0.4843     C
C       0.8014   0.3896   0.5682     C
C       0.8014   0.6104   0.4318     C
N       0.8043   0.4862   0.5229     N
N       0.8043   0.5138   0.4771     N
C       0.8051     0.28   0.8985     C
C       0.8051     0.72   0.1015     C
In     0.80642  0.32231  0.26071    In
In     0.80642  0.67769  0.73929    In
H       0.8069   0.4087   0.6056     H
H       0.8069   0.5913   0.3944     H
O         0.81   0.3245  0.66775     O
O         0.81   0.6755  0.33225     O
In     0.82231  0.30642  0.76071    In
In     0.82231  0.69358  0.23929    In
O       0.8245     0.31  0.16775     O
O       0.8245     0.69  0.83225     O
C       0.8285   0.2936   0.0654     C
C       0.8285   0.7064   0.9346     C
O      0.83225   0.1755     0.31     O
O      0.83225   0.8245     0.69     O
C       0.8341   0.2869   0.9585     C
C       0.8341   0.7131   0.0415     C
O       0.8372   0.2939  0.85414     O
O       0.8372   0.7061  0.14586     O
O      0.85414   0.1628   0.7061     O
O      0.85414   0.8372   0.2939     O
O        0.872   0.3929   0.2612     O
O        0.872   0.6071   0.7388     O
C       0.8771   0.2051   0.2947     C
C       0.8771   0.7949   0.7053     C
O      0.87857   0.2593   0.2795     O
O      0.87857   0.7407   0.7205     O
C       0.8896   0.3014   0.0682     C
C       0.8896   0.6986   0.9318     C
O       0.8929    0.372   0.7612     O
O       0.8929    0.628   0.2388     O
H       0.8944   0.0913   0.3069     H
H       0.8944   0.9087   0.6931     H
C       0.8949   0.2943    0.961     C
C       0.8949   0.7057    0.039     C
O       0.8967  0.24754   0.7387     O
O       0.8967  0.75246   0.2613     O
C       0.8985   0.1949     0.72     C
C       0.8985   0.8051     0.28     C
H       0.9087   0.3069   0.1056     H
H       0.9087   0.6931   0.8944     H
H       0.9178   0.2947   0.9254     H
H       0.9178   0.7053   0.0746     H
C       0.9227   0.3013   0.0157     C
C       0.9227   0.6987   0.9843     C
H       0.9254   0.0822   0.7053     H
H       0.9254   0.9178   0.2947     H
C       0.9318   0.1104   0.3014     C
C       0.9318   0.8896   0.6986     C
C       0.9346   0.1715   0.2936     C
C       0.9346   0.8285   0.7064     C
C       0.9585   0.1659   0.7131     C
C       0.9585   0.8341   0.2869     C
C        0.961   0.1051   0.7057     C
C        0.961   0.8949   0.2943     C
N       0.9771   0.0138   0.3043     N
N       0.9771   0.9862   0.6957     N
C       0.9843   0.0773   0.3013     C
C       0.9843   0.9227   0.6987     C
N       0.9862   0.3043   0.0229     N
N       0.9862   0.6957   0.9771     N
C        0.989   0.1995   0.2857     C
C        0.989   0.8005   0.7143     C
H       0.9907   0.2413   0.2795     H
H       0.9907   0.7587   0.7205     H
