data_I
_chemical_name_common  '/home/zhangsd/repos/MofS-CGCNN/ML/data/WS24/clean_cifs/JIZJIN'
_cell_length_a 15.28960
_cell_length_b 17.57480
_cell_length_c 17.57480
_cell_angle_alpha 90.00000
_cell_angle_beta  90.00000
_cell_angle_gamma 90.00000
_space_group_name_H-M_alt      'P 1'


loop_
_space_group_symop_operation_xyz
  'x, y, z' 

loop_
_atom_site_label
_atom_site_fract_x
_atom_site_fract_y
_atom_site_fract_z
_atom_site_type_symbol
C       0.0087   0.1248   0.3722     C
C       0.0087   0.8752   0.6278     C
N       0.0119  0.25904   0.1039     N
N       0.0119  0.74096   0.8961     N
C       0.0134   0.4484   0.8823     C
C       0.0134   0.5516   0.1177     C
O      0.02192  0.12505  0.98783     O
O      0.02192  0.87495  0.01217     O
C       0.0278   0.1114   0.5857     C
C       0.0278   0.8886   0.4143     C
Co      0.0322  0.14025  0.10519    Co
Co      0.0322  0.85975  0.89481    Co
H       0.0354   0.3358   0.8759     H
H       0.0354   0.6642   0.1241     H
C       0.0477   0.3857   0.1397     C
C       0.0477   0.6143   0.8603     C
C       0.0507   0.1171   0.5031     C
C       0.0507   0.8829   0.4969     C
O       0.0538   0.1386  0.22036     O
O       0.0538   0.8614  0.77964     O
C       0.0591   0.0738   0.7123     C
C       0.0591   0.9262   0.2877     C
C        0.064   0.3084   0.1369     C
C        0.064   0.6916   0.8631     C
H       0.0718   0.4625   0.8868     H
H       0.0718   0.5375   0.1132     H
C       0.0809   0.0761   0.6364     C
C       0.0809   0.9239   0.3636     C
H       0.0889   0.4182   0.1611     H
H       0.0889   0.5818   0.8389     H
C       0.0937   0.1327    0.349     C
C       0.0937   0.8673    0.651     C
C       0.0939   0.1267   0.9528     C
C       0.0939   0.8733   0.0472     C
H       0.0973   0.0494   0.7454     H
H       0.0973   0.9506   0.2546     H
O      0.09869  0.11796  0.88272     O
O      0.09869  0.88204  0.11728     O
H       0.1147   0.2903   0.1597     H
H       0.1147   0.7097   0.8403     H
C       0.1154   0.1408   0.2671     C
C       0.1154   0.8592   0.7329     C
H       0.1324   0.0533   0.6198     H
H       0.1324   0.9467   0.3802     H
C       0.1354   0.1251    0.481     C
C       0.1354   0.8749    0.519     C
C       0.1575   0.1323   0.4043     C
C       0.1575   0.8677   0.5957     C
O       0.1583  0.14037  0.07654     O
O       0.1583  0.85963  0.92346     O
H       0.1744   0.2556   0.9815     H
H       0.1744   0.7444   0.0185     H
C       0.1766   0.1418   0.9988     C
C       0.1766   0.8582   0.0012     C
H       0.1793   0.1257   0.5176     H
H       0.1793   0.8743   0.4824     H
O        0.195  0.14874  0.25152     O
O        0.195  0.85126  0.74848     O
C       0.2156   0.2152   0.9733     C
C       0.2156   0.7848   0.0267     C
H       0.2159   0.1368   0.3904     H
H       0.2159   0.8632   0.6096     H
H       0.2185    0.101   0.9878     H
H       0.2185    0.899   0.0122     H
H       0.2296   0.2122   0.9201     H
H       0.2296   0.7878   0.0799     H
H       0.2321   0.0019   0.2252     H
H       0.2321   0.9981   0.7748     H
Co        0.25  0.14991  0.14991    Co
Co        0.25  0.85009  0.85009    Co
H       0.2679   0.2252   0.0019     H
H       0.2679   0.7748   0.9981     H
H       0.2704   0.0799   0.7878     H
H       0.2704   0.9201   0.2122     H
H       0.2815   0.0122    0.899     H
H       0.2815   0.9878    0.101     H
H       0.2841   0.3904   0.1368     H
H       0.2841   0.6096   0.8632     H
C       0.2844   0.0267   0.7848     C
C       0.2844   0.9733   0.2152     C
O        0.305  0.25152  0.14874     O
O        0.305  0.74848  0.85126     O
H       0.3207   0.4824   0.8743     H
H       0.3207   0.5176   0.1257     H
C       0.3234   0.0012   0.8582     C
C       0.3234   0.9988   0.1418     C
H       0.3256   0.0185   0.7444     H
H       0.3256   0.9815   0.2556     H
O       0.3417  0.07654  0.14037     O
O       0.3417  0.92346  0.85963     O
C       0.3425   0.4043   0.1323     C
C       0.3425   0.5957   0.8677     C
C       0.3646    0.481   0.1251     C
C       0.3646    0.519   0.8749     C
H       0.3676   0.3802   0.9467     H
H       0.3676   0.6198   0.0533     H
C       0.3846   0.2671   0.1408     C
C       0.3846   0.7329   0.8592     C
H       0.3853   0.1597   0.2903     H
H       0.3853   0.8403   0.7097     H
O      0.40131  0.11728  0.88204     O
O      0.40131  0.88272  0.11796     O
H       0.4027   0.2546   0.9506     H
H       0.4027   0.7454   0.0494     H
C       0.4061   0.0472   0.8733     C
C       0.4061   0.9528   0.1267     C
C       0.4063    0.349   0.1327     C
C       0.4063    0.651   0.8673     C
H       0.4111   0.1611   0.4182     H
H       0.4111   0.8389   0.5818     H
C       0.4191   0.3636   0.9239     C
C       0.4191   0.6364   0.0761     C
H       0.4282   0.1132   0.5375     H
H       0.4282   0.8868   0.4625     H
C        0.436   0.1369   0.3084     C
C        0.436   0.8631   0.6916     C
C       0.4409   0.2877   0.9262     C
C       0.4409   0.7123   0.0738     C
O       0.4462  0.22036   0.1386     O
O       0.4462  0.77964   0.8614     O
C       0.4493   0.4969   0.8829     C
C       0.4493   0.5031   0.1171     C
C       0.4523   0.1397   0.3857     C
C       0.4523   0.8603   0.6143     C
H       0.4646   0.1241   0.6642     H
H       0.4646   0.8759   0.3358     H
Co      0.4678  0.10519  0.14025    Co
Co      0.4678  0.89481  0.85975    Co
C       0.4722   0.4143   0.8886     C
C       0.4722   0.5857   0.1114     C
O      0.47808  0.01217  0.87495     O
O      0.47808  0.98783  0.12505     O
C       0.4866   0.1177   0.5516     C
C       0.4866   0.8823   0.4484     C
N       0.4881   0.1039  0.25904     N
N       0.4881   0.8961  0.74096     N
C       0.4913   0.3722   0.1248     C
C       0.4913   0.6278   0.8752     C
C       0.5087   0.1248   0.6278     C
C       0.5087   0.8752   0.3722     C
N       0.5119  0.25904   0.8961     N
N       0.5119  0.74096   0.1039     N
C       0.5134   0.4484   0.1177     C
C       0.5134   0.5516   0.8823     C
O      0.52192  0.12505  0.01217     O
O      0.52192  0.87495  0.98783     O
C       0.5278   0.1114   0.4143     C
C       0.5278   0.8886   0.5857     C
Co      0.5322  0.14025  0.89481    Co
Co      0.5322  0.85975  0.10519    Co
H       0.5354   0.3358   0.1241     H
H       0.5354   0.6642   0.8759     H
C       0.5477   0.3857   0.8603     C
C       0.5477   0.6143   0.1397     C
C       0.5507   0.1171   0.4969     C
C       0.5507   0.8829   0.5031     C
O       0.5538   0.1386  0.77964     O
O       0.5538   0.8614  0.22036     O
C       0.5591   0.0738   0.2877     C
C       0.5591   0.9262   0.7123     C
C        0.564   0.3084   0.8631     C
C        0.564   0.6916   0.1369     C
H       0.5718   0.4625   0.1132     H
H       0.5718   0.5375   0.8868     H
C       0.5809   0.0761   0.3636     C
C       0.5809   0.9239   0.6364     C
H       0.5889   0.4182   0.8389     H
H       0.5889   0.5818   0.1611     H
C       0.5937   0.1327    0.651     C
C       0.5937   0.8673    0.349     C
C       0.5939   0.1267   0.0472     C
C       0.5939   0.8733   0.9528     C
H       0.5973   0.0494   0.2546     H
H       0.5973   0.9506   0.7454     H
O      0.59869  0.11796  0.11728     O
O      0.59869  0.88204  0.88272     O
H       0.6147   0.2903   0.8403     H
H       0.6147   0.7097   0.1597     H
C       0.6154   0.1408   0.7329     C
C       0.6154   0.8592   0.2671     C
H       0.6324   0.0533   0.3802     H
H       0.6324   0.9467   0.6198     H
C       0.6354   0.1251    0.519     C
C       0.6354   0.8749    0.481     C
C       0.6575   0.1323   0.5957     C
C       0.6575   0.8677   0.4043     C
O       0.6583  0.14037  0.92346     O
O       0.6583  0.85963  0.07654     O
H       0.6744   0.2556   0.0185     H
H       0.6744   0.7444   0.9815     H
C       0.6766   0.1418   0.0012     C
C       0.6766   0.8582   0.9988     C
H       0.6793   0.1257   0.4824     H
H       0.6793   0.8743   0.5176     H
O        0.695  0.14874  0.74848     O
O        0.695  0.85126  0.25152     O
C       0.7156   0.2152   0.0267     C
C       0.7156   0.7848   0.9733     C
H       0.7159   0.1368   0.6096     H
H       0.7159   0.8632   0.3904     H
H       0.7185    0.101   0.0122     H
H       0.7185    0.899   0.9878     H
H       0.7296   0.2122   0.0799     H
H       0.7296   0.7878   0.9201     H
H       0.7321   0.0019   0.7748     H
H       0.7321   0.9981   0.2252     H
Co        0.75  0.14991  0.85009    Co
Co        0.75  0.85009  0.14991    Co
H       0.7679   0.2252   0.9981     H
H       0.7679   0.7748   0.0019     H
H       0.7704   0.0799   0.2122     H
H       0.7704   0.9201   0.7878     H
H       0.7815   0.0122    0.101     H
H       0.7815   0.9878    0.899     H
H       0.7841   0.3904   0.8632     H
H       0.7841   0.6096   0.1368     H
C       0.7844   0.0267   0.2152     C
C       0.7844   0.9733   0.7848     C
O        0.805  0.25152  0.85126     O
O        0.805  0.74848  0.14874     O
H       0.8207   0.4824   0.1257     H
H       0.8207   0.5176   0.8743     H
C       0.8234   0.0012   0.1418     C
C       0.8234   0.9988   0.8582     C
H       0.8256   0.0185   0.2556     H
H       0.8256   0.9815   0.7444     H
O       0.8417  0.07654  0.85963     O
O       0.8417  0.92346  0.14037     O
C       0.8425   0.4043   0.8677     C
C       0.8425   0.5957   0.1323     C
C       0.8646    0.481   0.8749     C
C       0.8646    0.519   0.1251     C
H       0.8676   0.3802   0.0533     H
H       0.8676   0.6198   0.9467     H
C       0.8846   0.2671   0.8592     C
C       0.8846   0.7329   0.1408     C
H       0.8853   0.1597   0.7097     H
H       0.8853   0.8403   0.2903     H
O      0.90131  0.11728  0.11796     O
O      0.90131  0.88272  0.88204     O
H       0.9027   0.2546   0.0494     H
H       0.9027   0.7454   0.9506     H
C       0.9061   0.0472   0.1267     C
C       0.9061   0.9528   0.8733     C
C       0.9063    0.349   0.8673     C
C       0.9063    0.651   0.1327     C
H       0.9111   0.1611   0.5818     H
H       0.9111   0.8389   0.4182     H
C       0.9191   0.3636   0.0761     C
C       0.9191   0.6364   0.9239     C
H       0.9282   0.1132   0.4625     H
H       0.9282   0.8868   0.5375     H
C        0.936   0.1369   0.6916     C
C        0.936   0.8631   0.3084     C
C       0.9409   0.2877   0.0738     C
C       0.9409   0.7123   0.9262     C
O       0.9462  0.22036   0.8614     O
O       0.9462  0.77964   0.1386     O
C       0.9493   0.4969   0.1171     C
C       0.9493   0.5031   0.8829     C
C       0.9523   0.1397   0.6143     C
C       0.9523   0.8603   0.3857     C
H       0.9646   0.1241   0.3358     H
H       0.9646   0.8759   0.6642     H
Co      0.9678  0.10519  0.85975    Co
Co      0.9678  0.89481  0.14025    Co
C       0.9722   0.4143   0.1114     C
C       0.9722   0.5857   0.8886     C
O      0.97808  0.01217  0.12505     O
O      0.97808  0.98783  0.87495     O
C       0.9866   0.1177   0.4484     C
C       0.9866   0.8823   0.5516     C
N       0.9881   0.1039  0.74096     N
N       0.9881   0.8961  0.25904     N
C       0.9913   0.3722   0.8752     C
C       0.9913   0.6278   0.1248     C
