data_I
_chemical_name_common  '/home/zhangsd/repos/MofS-CGCNN/ML/data/WS24/clean_cifs/JUMZOI'
_cell_length_a 10.23400
_cell_length_b 10.38800
_cell_length_c 15.93000
_cell_angle_alpha 79.20000
_cell_angle_beta  81.64000
_cell_angle_gamma 87.35000
_space_group_name_H-M_alt      'P 1'


loop_
_space_group_symop_operation_xyz
  'x, y, z' 

loop_
_atom_site_label
_atom_site_fract_x
_atom_site_fract_y
_atom_site_fract_z
_atom_site_type_symbol
C       0.0008   0.7014   0.9763     C
C       0.0054   0.5046   0.2344     C
C       0.0067   0.5636   0.1479     C
C       0.0087    0.325   0.5466     C
H       0.0173   0.2798   0.0829     H
H       0.0224   0.3873   0.5819     H
C       0.0289   0.0033   0.7004     C
C        0.029    0.059    0.011     C
H       0.0369   0.1816   0.7316     H
H       0.0452   0.3576   0.4879     H
H       0.0499    0.037   0.0695     H
H       0.0514   0.2432   0.5669     H
H       0.0567   0.8143    0.687     H
C       0.0603   0.8208   0.9962     C
H       0.0648   0.6295   0.9813     H
H       0.0668   0.9503   0.4061     H
C       0.0815   0.1015   0.7322     C
H        0.083   0.8001   0.0543     H
H       0.0865   0.5767   0.1115     H
C       0.0934   0.8823   0.7057     C
C       0.0936   0.9736   0.3444     C
C       0.1103   0.3977   0.8834     C
H       0.1111   0.0797   0.9728     H
C       0.1133    0.516   0.7107     C
H       0.1135   0.5551   0.6532     H
O       0.1192   0.3388  0.96763     O
C       0.1359   0.4763   0.2665     C
C       0.1391   0.6958   0.4483     C
O       0.1397    0.438   0.3463     O
H       0.1415   0.8409    0.957     H
H       0.1421   0.0545   0.3334     H
H        0.152   0.7565   0.4857     H
N       0.1802   0.8714  0.31614     N
H        0.181    0.613   0.4699     H
C       0.2002    0.081   0.7651     C
C       0.2052   0.7474   0.3596     C
C       0.2116   0.8619   0.7385     C
H       0.2179   0.0681   0.1677     H
C       0.2283    0.418   0.8282     C
C       0.2313   0.4782    0.742     C
H       0.2352    0.148   0.7858     H
O       0.2406   0.4983  0.21376     O
H       0.2543   0.7806   0.7413     H
C       0.2546   0.8852   0.2353     C
H       0.2606   0.0035   0.5525     H
H        0.262   0.2159   0.4755     H
C       0.2632    0.989   0.1648     C
C       0.2673    0.962   0.7674     C
N       0.2911   0.6822  0.31244     N
H       0.3073   0.3909   0.8491     H
C       0.3085   0.1489   0.4521     C
C       0.3093   0.0223   0.4978     C
C       0.3235   0.7668    0.233     C
H       0.3297    0.359   0.1084     H
C       0.3424   0.9674    0.091     C
Ni     0.34241  0.47962  0.32454    Ni
H       0.3506   0.0332   0.0423     H
H       0.3531   0.4833   0.4884     H
O       0.3595   0.5505  0.60531     O
C       0.3616   0.5003    0.683     C
C       0.3804   0.1727   0.3691     C
H       0.3813   0.8375   0.4974     H
C       0.3814   0.9212   0.4641     C
O       0.3835   0.4383  0.45026     O
H        0.386    0.893   0.8593     H
N       0.3973   0.2876  0.30801     N
C       0.3986   0.9429   0.8009     C
H       0.4018   0.6751   0.8677     H
C       0.4031   0.7478   0.1578     C
C       0.4103   0.8491   0.0882     C
H       0.4169   0.2407   0.0825     H
C       0.4177   0.3307    0.089     C
H       0.4325   0.0278   0.8029     H
C       0.4491   0.0709   0.3358     C
H       0.4498   0.3839   0.0345     H
H       0.4498   0.6694   0.1547     H
C       0.4519   0.9429   0.3833     C
H       0.4627    0.838   0.0371     H
O      0.46331   0.4684  0.71758     O
H       0.4645   0.4164   0.4504     H
C       0.4716   0.2552   0.2393     C
C       0.4922   0.6559   0.8448     C
N       0.4951   0.8745  0.74706     N
H       0.4966    0.566   0.8356     H
H       0.4996   0.8758   0.3607     H
H       0.5004   0.1242   0.6393     H
H       0.5034    0.434   0.1644     H
N       0.5049   0.1255  0.25294     N
C       0.5078   0.3441   0.1552     C
C       0.5284   0.7448   0.7607     C
H       0.5355   0.5836   0.5496     H
O      0.53669   0.5316  0.28242     O
H       0.5373    0.162   0.9629     H
C       0.5481   0.0571   0.6167     C
H       0.5502   0.3306   0.8453     H
H       0.5502   0.6161   0.9655     H
C       0.5509   0.9291   0.6642     C
H       0.5675   0.9722   0.1971     H
C       0.5823   0.6693    0.911     C
H       0.5831   0.7593   0.9175     H
C       0.5897   0.1509   0.9118     C
C       0.5969   0.2522   0.8422     C
H       0.5982   0.3249   0.1323     H
C       0.6014   0.0571   0.1991     C
N       0.6027   0.7124  0.69199     N
H        0.614    0.107   0.1407     H
O       0.6165   0.5617  0.54974     O
C       0.6186   0.0788   0.5359     C
H       0.6187   0.1625   0.5026     H
C       0.6196   0.8273   0.6309     C
C       0.6384   0.4997    0.317     C
O       0.6405   0.4495  0.39469     O
H       0.6469   0.5167   0.5116     H
H       0.6494   0.9668   0.9577     H
Ni     0.65759  0.52038  0.67546    Ni
C       0.6576   0.0326    0.909     C
H       0.6703    0.641   0.8916     H
C       0.6765   0.2332    0.767     C
C       0.6907   0.9777   0.5022     C
C       0.6915   0.8511   0.5479     C
H       0.6927   0.6091   0.1509     H
N       0.7089   0.3178  0.68756     N
C       0.7327    0.038   0.2326     C
C       0.7368    0.011   0.8352     C
H        0.738   0.7841   0.5245     H
H       0.7394   0.9965   0.4475     H
C       0.7454   0.1148   0.7647     C
H       0.7457   0.2194   0.2587     H
O       0.7594   0.5017  0.78624     O
H       0.7648    0.852   0.2142     H
C       0.7687   0.5218    0.258     C
C       0.7717    0.582   0.1718     C
H       0.7821   0.9319   0.8323     H
C       0.7884   0.1381   0.2615     C
C       0.7948   0.2526   0.6404     C
C       0.7998    0.919   0.2349     C
H        0.819    0.387   0.5301     H
N       0.8198   0.1286  0.68386     N
H        0.848   0.2435   0.5143     H
H       0.8579   0.9455   0.6666     H
H       0.8585   0.1591    0.043     H
O       0.8603    0.562   0.6537     O
C       0.8609   0.3042   0.5517     C
C       0.8641   0.5237   0.7335     C
O       0.8808   0.6612  0.03237     O
H       0.8865   0.4449   0.3468     H
C       0.8867    0.484   0.2893     C
H       0.8889   0.9203   0.0272     H
C       0.8897   0.6023   0.1166     C
C       0.9064   0.0264   0.6556     C
C       0.9066   0.1177   0.2943     C
H       0.9135   0.4233   0.8885     H
H        0.917   0.1999   0.9457     H
C       0.9185   0.8985   0.2678     C
H       0.9332   0.0497   0.5939     H
H       0.9352   0.3705   0.0187     H
C       0.9397   0.1792   0.0038     C
H       0.9433   0.1857    0.313     H
H       0.9486   0.7568   0.4331     H
H       0.9501    0.963   0.9305     H
H       0.9548   0.6424   0.5121     H
H       0.9631   0.8184   0.2684     H
C        0.971    0.941    0.989     C
C       0.9711   0.9967   0.2996     C
H       0.9776   0.6127   0.4181     H
H       0.9827   0.7202   0.9171     H
C       0.9913    0.675   0.4534     C
C       0.9933   0.4364   0.8521     C
C       0.9946   0.4954   0.7656     C
C       0.9992   0.2986   0.0237     C
