data_I
_chemical_name_common  '/home/zhangsd/repos/MofS-CGCNN/ML/data/WS24/clean_cifs/JUMZIC'
_cell_length_a  8.02550
_cell_length_b 17.13800
_cell_length_c 17.60600
_cell_angle_alpha 90.00000
_cell_angle_beta  90.00000
_cell_angle_gamma 103.29000
_space_group_name_H-M_alt      'P 1'


loop_
_space_group_symop_operation_xyz
  'x, y, z' 

loop_
_atom_site_label
_atom_site_fract_x
_atom_site_fract_y
_atom_site_fract_z
_atom_site_type_symbol
C       0.0061   0.0273   0.8156     C
C       0.0061   0.5273   0.6844     C
H       0.0109   0.3099   0.5906     H
H       0.0109   0.8099   0.9094     H
C       0.0337   0.2597   0.6083     C
C       0.0337   0.7597   0.8917     C
H        0.045   0.4816   0.6962     H
H        0.045   0.9816   0.8038     H
C       0.0454   0.1532   0.8795     C
C       0.0454   0.6532   0.6205     C
H       0.0496   0.3406   0.7404     H
H       0.0496   0.8406   0.7596     H
O       0.0688  0.21599   0.4203     O
O       0.0688  0.71599   0.0797     O
H       0.0798   0.2354   0.5658     H
H       0.0798   0.7354   0.9342     H
C       0.1043   0.0871   0.8591     C
C       0.1043   0.5871   0.6409     C
H       0.1074    0.119   0.4381     H
H       0.1074    0.619   0.0619     H
H        0.111   0.3452   0.1504     H
H        0.111   0.8452   0.3496     H
H       0.1117   0.1921   0.9107     H
H       0.1117   0.6921   0.5893     H
C       0.1132   0.3376   0.3538     C
C       0.1132   0.8376   0.1462     C
H       0.1211   0.0403   0.4037     H
H       0.1211   0.5403   0.0963     H
C       0.1327    0.295   0.1324     C
C       0.1327    0.795   0.3676     C
C       0.1494   0.3227   0.7331     C
C       0.1494   0.8227   0.7669     C
C       0.1523   0.4642   0.2893     C
C       0.1523   0.9642   0.2107     C
C       0.1633   0.2619   0.3757     C
C       0.1633   0.7619   0.1243     C
O       0.1641  0.08506  0.42477     O
O       0.1641  0.58506  0.07523     O
C       0.1659   0.2775   0.6696     C
C       0.1659   0.7775   0.8304     C
H       0.1812   0.2705   0.1741     H
H       0.1812   0.7705   0.3259     H
C       0.2079    0.396   0.3063     C
C       0.2079    0.896   0.1937     C
O       0.2083  0.09623  0.25953     O
O       0.2083  0.59623  0.24047     O
C       0.2433   0.4781   0.5606     C
C       0.2433   0.9781   0.9394     C
C       0.2471   0.0288   0.2604     C
C       0.2471   0.5288   0.2396     C
H       0.2556   0.4267    0.052     H
H       0.2556   0.9267    0.448     H
C       0.2589   0.3113    0.068     C
C       0.2589   0.8113    0.432     C
H       0.2633   0.3716   0.8277     H
H       0.2633   0.8716   0.6723     H
C       0.2675    0.019   0.0164     C
C       0.2675    0.519   0.4836     C
O       0.2782   0.0897   0.8739     O
O       0.2782   0.5897   0.6261     O
C       0.2787   0.3414   0.7855     C
C       0.2787   0.8414   0.7145     C
O       0.2996  0.24909  0.34659     O
O       0.2996  0.74909  0.15341     O
C       0.3007    0.385   0.0338     C
C       0.3007    0.885   0.4662     C
H       0.3083   0.2018    0.061     H
H       0.3083   0.7018    0.439     H
H       0.3101   0.3889   0.2857     H
H       0.3101   0.8889   0.2143     H
C        0.315   0.2515   0.6644     C
C        0.315   0.7515   0.8356     C
C        0.321   0.0116   0.8847     C
C        0.321   0.5116   0.6153     C
H       0.3313   0.2195   0.6237     H
H       0.3313   0.7195   0.8763     H
C       0.3322   0.2524   0.0388     C
C       0.3322   0.7524   0.4612     C
O       0.3612  0.01607  0.30702     O
O       0.3612  0.51607  0.19298     O
Ni     0.36484  0.14045   0.3498    Ni
Ni     0.36484  0.64045   0.1502    Ni
H       0.3957    0.491   0.6456     H
H       0.3957    0.991   0.8544     H
C       0.4102   0.3971    0.972     C
C       0.4102   0.8971    0.528     C
N       0.4266  0.31812  0.77858     N
N       0.4266  0.81812  0.72142     N
H       0.4369   0.4473   0.9492     H
H       0.4369   0.9473   0.5508     H
C       0.4402   0.2676   0.9772     C
C       0.4402   0.7676   0.5228     C
C       0.4406   0.2722   0.7187     C
C       0.4406   0.7722   0.7813     C
C       0.4561   0.0479   0.0422     C
C       0.4561   0.5479   0.4578     C
C       0.4597   0.0263   0.9519     C
C       0.4597   0.5263   0.5481     C
H       0.4601   0.2466   0.2135     H
H       0.4601   0.7466   0.2865     H
N       0.4796  0.33882  0.94364     N
N       0.4796  0.83882  0.55636     N
H       0.4872   0.2266   0.9585     H
H       0.4872   0.7266   0.5415     H
H       0.5128   0.2734   0.4585     H
H       0.5128   0.7734   0.0415     H
N       0.5204  0.16118  0.44364     N
N       0.5204  0.66118  0.05636     N
H       0.5399   0.2534   0.7135     H
H       0.5399   0.7534   0.7865     H
C       0.5403   0.4737   0.4519     C
C       0.5403   0.9737   0.0481     C
C       0.5439   0.4521   0.5422     C
C       0.5439   0.9521   0.9578     C
C       0.5594   0.2278   0.2187     C
C       0.5594   0.7278   0.2813     C
C       0.5598   0.2324   0.4772     C
C       0.5598   0.7324   0.0228     C
H       0.5631   0.0527   0.4492     H
H       0.5631   0.5527   0.0508     H
N       0.5734  0.18188  0.27858     N
N       0.5734  0.68188  0.22142     N
C       0.5898   0.1029    0.472     C
C       0.5898   0.6029    0.028     C
H       0.6043    0.009   0.1456     H
H       0.6043    0.509   0.3544     H
Ni     0.63516  0.35955   0.8498    Ni
Ni     0.63516  0.85955   0.6502    Ni
O       0.6388  0.48393  0.80702     O
O       0.6388  0.98393  0.69298     O
C       0.6678   0.2476   0.5388     C
C       0.6678   0.7476   0.9612     C
H       0.6687   0.2805   0.1237     H
H       0.6687   0.7805   0.3763     H
C        0.679   0.4884   0.3847     C
C        0.679   0.9884   0.1153     C
C        0.685   0.2485   0.1644     C
C        0.685   0.7485   0.3356     C
H       0.6899   0.1111   0.7857     H
H       0.6899   0.6111   0.7143     H
H       0.6917   0.2982    0.561     H
H       0.6917   0.7982    0.939     H
C       0.6993    0.115   0.5338     C
C       0.6993    0.615   0.9662     C
O       0.7004  0.25091  0.84659     O
O       0.7004  0.75091  0.65341     O
C       0.7213   0.1586   0.2855     C
C       0.7213   0.6586   0.2145     C
O       0.7218   0.4103   0.3739     O
O       0.7218   0.9103   0.1261     O
C       0.7325    0.481   0.5164     C
C       0.7325    0.981   0.9836     C
H       0.7367   0.1284   0.3277     H
H       0.7367   0.6284   0.1723     H
C       0.7411   0.1887    0.568     C
C       0.7411   0.6887    0.932     C
H       0.7444   0.0733    0.552     H
H       0.7444   0.5733    0.948     H
C       0.7529   0.4712   0.7604     C
C       0.7529   0.9712   0.7396     C
C       0.7567   0.0219   0.0606     C
C       0.7567   0.5219   0.4394     C
O       0.7917  0.40377  0.75953     O
O       0.7917  0.90377  0.74047     O
C       0.7921    0.104   0.8063     C
C       0.7921    0.604   0.6937     C
H       0.8188   0.2295   0.6741     H
H       0.8188   0.7295   0.8259     H
C       0.8341   0.2225   0.1696     C
C       0.8341   0.7225   0.3304     C
O       0.8359  0.41494  0.92477     O
O       0.8359  0.91494  0.57523     O
C       0.8367   0.2381   0.8757     C
C       0.8367   0.7381   0.6243     C
C       0.8477   0.0358   0.7893     C
C       0.8477   0.5358   0.7107     C
C       0.8506   0.1773   0.2331     C
C       0.8506   0.6773   0.2669     C
C       0.8673    0.205   0.6324     C
C       0.8673    0.705   0.8676     C
H       0.8789   0.4597   0.9037     H
H       0.8789   0.9597   0.5963     H
C       0.8868   0.1624   0.8538     C
C       0.8868   0.6624   0.6462     C
H       0.8883   0.3079   0.4107     H
H       0.8883   0.8079   0.0893     H
H        0.889   0.1548   0.6504     H
H        0.889   0.6548   0.8496     H
H       0.8926    0.381   0.9381     H
H       0.8926    0.881   0.5619     H
C       0.8957   0.4129   0.3591     C
C       0.8957   0.9129   0.1409     C
H       0.9202   0.2646   0.0658     H
H       0.9202   0.7646   0.4342     H
O       0.9312  0.28401   0.9203     O
O       0.9312  0.78401   0.5797     O
H       0.9504   0.1594   0.2404     H
H       0.9504   0.6594   0.2596     H
C       0.9546   0.3468   0.3795     C
C       0.9546   0.8468   0.1205     C
H        0.955   0.0184   0.1962     H
H        0.955   0.5184   0.3038     H
C       0.9663   0.2403   0.1083     C
C       0.9663   0.7403   0.3917     C
H       0.9891   0.1901   0.0906     H
H       0.9891   0.6901   0.4094     H
C       0.9939   0.4727   0.3156     C
C       0.9939   0.9727   0.1844     C
