data_I
_chemical_name_common  '/home/zhangsd/repos/MofS-CGCNN/ML/data/WS24/clean_cifs/KASDOA'
_cell_length_a 26.62570
_cell_length_b 26.62570
_cell_length_c 20.29420
_cell_angle_alpha 90.00000
_cell_angle_beta  90.00000
_cell_angle_gamma 90.00000
_space_group_name_H-M_alt      'P 1'


loop_
_space_group_symop_operation_xyz
  'x, y, z' 

loop_
_atom_site_label
_atom_site_fract_x
_atom_site_fract_y
_atom_site_fract_z
_atom_site_type_symbol
H       0.0007   0.3343   0.1018     H
H        0.001   0.2059      0.9     H
C       0.0018   0.1885    0.541     C
C       0.0032   0.1849    0.609     C
C       0.0059   0.7576   0.3023     C
C        0.006   0.2093   0.8549     C
C       0.0086   0.3009   0.1098     C
H       0.0119   0.8423   0.6299     H
H       0.0126   0.8371   0.5162     H
H       0.0128   0.7556   0.2575     H
C       0.0141   0.2363   0.4361     C
C       0.0184   0.7848   0.1153     C
C       0.0224   0.2316   0.5085     C
C       0.0227   0.2185   0.7188     C
C        0.025   0.7852   0.7455     C
C        0.027   0.2217   0.6462     C
C       0.0281    0.735   0.1042     C
C        0.031    0.202   0.1346     C
C       0.0332   0.7696   0.4102     C
C       0.0338   0.7892   0.8111     C
H       0.0381   0.1686   0.1439     H
C       0.0417   0.2513   0.3251     C
C       0.0427   0.7692   0.3453     C
H       0.0432    0.809   0.1103     H
C       0.0486   0.2623   0.5432     C
C       0.0506   0.2589   0.6142     C
H       0.0524    0.785    0.717     H
C       0.0529   0.2482   0.3921     C
C        0.054    0.213    0.828     C
C       0.0583   0.2877   0.1274     C
H         0.06   0.7742   0.4391     H
C        0.063   0.2178   0.7617     C
H       0.0667   0.2875    0.522     H
H        0.067   0.2595   0.2954     H
C       0.0683   0.2364     0.14     C
H       0.0685   0.2828    0.638     H
H       0.0763   0.3613   0.0455     H
C        0.081   0.7206   0.0871     C
H       0.0814   0.2123   0.8565     H
C       0.0867   0.7941   0.8353     C
O      0.09206  0.67342   0.0877     O
C       0.0949   0.7817   0.3189     C
O       0.0955   0.8058   0.8937     O
C       0.0971   0.3273   0.1301     C
C       0.0996   0.3624   0.0796     C
O       0.1009   0.7939   0.2602     O
C       0.1067   0.2541   0.4133     C
O      0.11164  0.75323   0.0735     O
C       0.1172   0.2222   0.7385     C
C       0.1194   0.2155   0.1618     C
H         0.12    0.318    0.223     H
O      0.12054   0.7834   0.7947     O
O       0.1233    0.194    0.216     O
O      0.12334   0.2991   0.4091     O
O      0.13054   0.7799   0.3596     O
O       0.1326   0.2194   0.4289     O
C        0.133   0.3298   0.1807     C
O       0.1335   0.1943   0.7033     O
C       0.1376   0.4004   0.0796     C
H       0.1387   0.4237   0.0455     H
O       0.1435   0.2615   0.7585     O
H       0.1454   0.7469   0.9631     H
O       0.1531   0.2213   0.1221     O
H       0.1552   0.7572    0.177     H
H       0.1577   0.0119   0.3701     H
H       0.1629   0.0126   0.4838     H
Zn     0.16569  0.66569  0.07553    Zn
H       0.1657   0.4993   0.1018     H
H       0.1686   0.9619   0.8561     H
C       0.1702    0.367   0.1807     C
H       0.1712   0.2267   0.5407     H
C       0.1723   0.7268   0.9506     C
C       0.1727   0.4029   0.1301     C
O      0.17342  0.59206   0.0877     O
H       0.1815   0.2157   0.3175     H
H        0.182     0.38    0.223     H
C       0.1822   0.7372   0.1895     C
C       0.1849   0.9968    0.391     C
Zn     0.18849  0.78915  0.82911    Zn
C       0.1885   0.9982    0.459     C
N      0.18875  0.68875    0.986     N
H        0.191   0.0432   0.8897     H
O        0.194   0.8767    0.784     O
O       0.1942   0.0955   0.1063     O
O       0.1943   0.8665   0.2967     O
Zn     0.19454  0.79531  0.31433    Zn
Zn     0.19605  0.30395  0.42489    Zn
N      0.19749  0.73342   0.8965     N
C       0.1976   0.2473   0.5539     C
N       0.1988   0.6988   0.1544     N
C       0.1991   0.4914   0.1098     C
O       0.2009  0.37666   0.4091     O
C        0.202    0.969   0.8654     C
Zn     0.20469  0.19454  0.68567    Zn
C       0.2059   0.0867   0.1647     C
H       0.2059    0.999      0.1     H
O       0.2061   0.1009   0.7398     O
C        0.208   0.2364    0.305     C
N        0.208  0.74402   0.2441     N
C       0.2093    0.994   0.1451     C
C       0.2108   0.0338   0.1889     C
Zn     0.21085  0.18849  0.17089    Zn
C       0.2123   0.4417   0.1274     C
H       0.2123   0.9186   0.1435     H
H       0.2125   0.4333    0.522     H
C        0.213    0.946    0.172     C
C       0.2148    0.025   0.2545     C
H        0.215   0.0524    0.283     H
C       0.2152   0.0184   0.8847     C
C       0.2155   0.8806   0.8382     C
H       0.2157   0.8185   0.6825     H
O       0.2166  0.12054   0.2053     O
H       0.2172   0.4315    0.638     H
N       0.2173   0.2827   0.5163     N
C       0.2178    0.937   0.2383     C
C       0.2183   0.0949   0.6811     C
C       0.2185   0.9773   0.2812     C
N      0.21924  0.24439   0.6117     N
O       0.2194   0.8674   0.5711     O
O       0.2201  0.13054   0.6404     O
C       0.2206    0.581   0.0871     C
O       0.2213   0.8469   0.8779     O
C       0.2217    0.973   0.3538     C
C       0.2222   0.8828   0.2615     C
H       0.2258     0.06   0.5609     H
H       0.2267   0.8288   0.4593     H
C       0.2268   0.6723   0.9506     C
N       0.2276   0.2724   0.3438     N
N      0.23026  0.23362   0.2481     N
C       0.2304   0.0332   0.5898     C
C       0.2308   0.0427   0.6547     C
C       0.2316   0.9776   0.4915     C
N      0.23342  0.69749   0.8965     N
N      0.23362  0.76974   0.7519     N
C        0.235   0.5281   0.1042     C
C       0.2363   0.9859   0.5639     C
C       0.2364    0.792    0.695     C
C       0.2364   0.9317     0.86     C
C       0.2372   0.6822   0.1895     C
C       0.2377   0.4514   0.5432     C
O       0.2385   0.3565   0.7585     O
H       0.2405    0.433   0.2954     H
C       0.2411   0.4494   0.6142     C
C       0.2424   0.0059   0.6977     C
H       0.2428   0.1552    0.823     H
N      0.24402    0.708   0.2441     N
N      0.24439  0.78076   0.3883     N
H       0.2444   0.0128   0.7425     H
C       0.2459   0.3933   0.4133     C
O      0.24677  0.11164   0.9265     O
H       0.2469   0.6454   0.9631     H
C       0.2473   0.8024   0.4461     C
C       0.2482   0.9471   0.6079     C
C       0.2487   0.4583   0.3251     C
C       0.2513   0.9583   0.6749     C
C       0.2518   0.4471   0.3921     C
C       0.2527   0.3024   0.5539     C
H       0.2531   0.1454   0.0369     H
O      0.25323  0.61164   0.0735     O
C       0.2541   0.8933   0.5867     C
H       0.2556   0.5128   0.2575     H
N      0.25561  0.28076   0.6117     N
N      0.25598    0.208   0.7559     N
H       0.2572   0.6552    0.177     H
C       0.2576   0.5059   0.3023     C
C       0.2589   0.9494   0.3858     C
H       0.2595    0.933   0.7046     H
O       0.2615   0.8565   0.2415     O
C       0.2623   0.9514   0.4568     C
C       0.2628   0.1822   0.8105     C
C       0.2636    0.292    0.305     C
C       0.2636   0.4317     0.14     C
C       0.2637   0.4859   0.4361     C
C        0.265   0.0281   0.8958     C
N      0.26638  0.26974   0.2481     N
N      0.26658  0.19749   0.1035     N
C       0.2684   0.4776   0.5085     C
C       0.2692   0.5427   0.3453     C
C       0.2696   0.5332   0.4102     C
N      0.26974  0.73362   0.7519     N
N       0.2724   0.7724   0.6562     N
C       0.2732   0.1723   0.0494     C
H       0.2733   0.3288   0.5407     H
H       0.2742     0.56   0.4391     H
C       0.2778   0.3828   0.7385     C
C       0.2783    0.473   0.6462     C
O       0.2787   0.3469   0.1221     O
C       0.2794    0.081   0.9129     C
O       0.2799  0.63054   0.3596     O
O       0.2806   0.3674   0.4289     O
N      0.28076  0.74439   0.3883     N
C       0.2815   0.4773   0.7188     C
C       0.2817   0.5949   0.3189     C
C       0.2822    0.437   0.7617     C
N       0.2827   0.7827   0.4837     N
H       0.2828   0.9315    0.362     H
O       0.2834  0.62054   0.7947     O
H       0.2843   0.3185   0.3175     H
C       0.2845   0.3806   0.1618     C
C       0.2848   0.5184   0.1153     C
H        0.285   0.5524    0.717     H
C       0.2852    0.525   0.7455     C
C        0.287    0.446    0.828     C
H       0.2875   0.9333    0.478     H
H       0.2877   0.4186   0.8565     H
C       0.2877   0.9417   0.8726     C
Zn     0.28915  0.68849  0.82911    Zn
C       0.2892   0.5338   0.8111     C
C       0.2907    0.494   0.8549     C
N        0.292  0.24402   0.7559     N
C        0.292   0.7364    0.695     C
O       0.2939   0.6009   0.2602     O
H       0.2941    0.499      0.9     H
C       0.2941   0.5867   0.8353     C
Zn     0.29531  0.69454  0.31433    Zn
C        0.298    0.469   0.1346     C
O       0.2991  0.87666   0.5909     O
C       0.3009   0.9914   0.8902     C
N       0.3012   0.1988   0.8456     N
C       0.3024   0.7473   0.4461     C
N      0.30251  0.23342   0.1035     N
Zn     0.30395  0.80395  0.57511    Zn
Zn     0.30546  0.29531  0.68567    Zn
O       0.3057   0.3665   0.7033     O
O       0.3058   0.5955   0.8937     O
O        0.306   0.3767    0.216     O
H        0.309   0.5432   0.1103     H
N      0.31125  0.18875    0.014     N
C       0.3115   0.4982    0.541     C
Zn     0.31151  0.28915  0.17089    Zn
C       0.3151   0.4968    0.609     C
C       0.3178   0.2372   0.8105     C
H        0.318     0.88    0.777     H
H       0.3185   0.7157   0.6825     H
O      0.32658  0.09206   0.9123     O
C       0.3273   0.9029   0.8699     C
C       0.3277   0.2268   0.0494     C
H       0.3288   0.7267   0.4593     H
C       0.3298    0.867   0.8193     C
H       0.3314   0.4619   0.1439     H
H       0.3343   0.9993   0.8982     H
Zn     0.33431  0.16569  0.92447    Zn
H       0.3371   0.5126   0.5162     H
H       0.3423   0.5119   0.6299     H
H       0.3448   0.2572    0.823     H
O       0.3469   0.7213   0.8779     O
H       0.3546   0.2469   0.0369     H
O       0.3565   0.7615   0.2415     O
H       0.3613   0.9237   0.9545     H
C       0.3624   0.9004   0.9204     C
O       0.3665   0.6943   0.2967     O
C        0.367   0.8298   0.8193     C
O       0.3674   0.7194   0.5711     O
O      0.36946   0.2799   0.6404     O
O      0.37666   0.7991   0.5909     O
O       0.3767    0.694    0.784     O
O      0.37946   0.2834   0.2053     O
H         0.38    0.818    0.777     H
C       0.3806   0.7155   0.8382     C
C       0.3828   0.7222   0.2615     C
O      0.38836  0.25323   0.9265     O
C       0.3933   0.7541   0.5867     C
O       0.3991   0.2939   0.7398     O
C       0.4004   0.8624   0.9204     C
C       0.4029   0.8273   0.8699     C
O       0.4045   0.3058   0.1063     O
C       0.4051   0.2817   0.6811     C
O      0.40794  0.17342   0.9123     O
C       0.4133   0.2941   0.1647     C
H       0.4186   0.7123   0.1435     H
C        0.419   0.2206   0.9129     C
H       0.4237   0.8613   0.9545     H
H       0.4315   0.7828    0.362     H
C       0.4317   0.7364     0.86     C
H        0.433   0.7595   0.7046     H
H       0.4333   0.7875    0.478     H
C        0.437   0.7178   0.2383     C
H         0.44   0.2742   0.5609     H
C       0.4417   0.7877   0.8726     C
C        0.446    0.713    0.172     C
C       0.4471   0.7482   0.6079     C
H       0.4476    0.285    0.283     H
C       0.4494   0.7589   0.3858     C
C       0.4514   0.7623   0.4568     C
H       0.4568    0.309   0.8897     H
C       0.4573   0.2692   0.6547     C
C       0.4583   0.7513   0.6749     C
H       0.4619   0.6686   0.8561     H
C       0.4662   0.2892   0.1889     C
C       0.4668   0.2696   0.5898     C
C        0.469    0.702   0.8654     C
C       0.4719    0.235   0.8958     C
C        0.473   0.7217   0.3538     C
C        0.475   0.2852   0.2545     C
C       0.4773   0.7185   0.2812     C
C       0.4776   0.7316   0.4915     C
C       0.4816   0.2848   0.8847     C
C       0.4859   0.7363   0.5639     C
H       0.4872   0.2556   0.7425     H
H       0.4874   0.3371   0.4838     H
H       0.4881   0.3423   0.3701     H
C       0.4914   0.8009   0.8902     C
C        0.494   0.7093   0.1451     C
C       0.4941   0.2576   0.6977     C
C       0.4968   0.6849    0.391     C
C       0.4982   0.6885    0.459     C
H        0.499   0.7059      0.1     H
H       0.4993   0.8343   0.8982     H
H       0.5007   0.1657   0.8982     H
H        0.501   0.2941      0.1     H
C       0.5018   0.3115    0.459     C
C       0.5032   0.3151    0.391     C
C       0.5059   0.7424   0.6977     C
C        0.506   0.2907   0.1451     C
C       0.5086   0.1991   0.8902     C
H       0.5119   0.6577   0.3701     H
H       0.5126   0.6629   0.4838     H
H       0.5128   0.7444   0.7425     H
C       0.5141   0.2637   0.5639     C
C       0.5184   0.7152   0.8847     C
C       0.5224   0.2684   0.4915     C
C       0.5227   0.2815   0.2812     C
C        0.525   0.7148   0.2545     C
C        0.527   0.2783   0.3538     C
C       0.5281    0.765   0.8958     C
C        0.531    0.298   0.8654     C
C       0.5332   0.7304   0.5898     C
C       0.5338   0.7108   0.1889     C
H       0.5381   0.3314   0.8561     H
C       0.5417   0.2487   0.6749     C
C       0.5427   0.7308   0.6547     C
H       0.5432    0.691   0.8897     H
C       0.5486   0.2377   0.4568     C
C       0.5506   0.2411   0.3858     C
H       0.5524    0.715    0.283     H
C       0.5529   0.2518   0.6079     C
C        0.554    0.287    0.172     C
C       0.5583   0.2123   0.8726     C
H         0.56   0.7258   0.5609     H
C        0.563   0.2822   0.2383     C
H       0.5667   0.2125    0.478     H
H        0.567   0.2405   0.7046     H
C       0.5683   0.2636     0.86     C
H       0.5685   0.2172    0.362     H
H       0.5763   0.1387   0.9545     H
C        0.581   0.7794   0.9129     C
H       0.5814   0.2877   0.1435     H
C       0.5867   0.7059   0.1647     C
O      0.59206  0.82658   0.9123     O
C       0.5949   0.7183   0.6811     C
O       0.5955   0.6942   0.1063     O
C       0.5971   0.1727   0.8699     C
C       0.5996   0.1376   0.9204     C
O       0.6009   0.7061   0.7398     O
C       0.6067   0.2459   0.5867     C
O      0.61164  0.74677   0.9265     O
C       0.6172   0.2778   0.2615     C
C       0.6194   0.2845   0.8382     C
H         0.62    0.182    0.777     H
O      0.62054   0.7166   0.2053     O
O       0.6233    0.306    0.784     O
O      0.62334   0.2009   0.5909     O
O      0.63054   0.7201   0.6404     O
O       0.6326   0.2806   0.5711     O
C        0.633   0.1702   0.8193     C
O       0.6335   0.3057   0.2967     O
C       0.6376   0.0996   0.9204     C
H       0.6387   0.0763   0.9545     H
O       0.6435   0.2385   0.2415     O
H       0.6454   0.7531   0.0369     H
O       0.6531   0.2787   0.8779     O
H       0.6552   0.7428    0.823     H
H       0.6577   0.4881   0.6299     H
H       0.6629   0.4874   0.5162     H
Zn     0.66569  0.83431  0.92447    Zn
H       0.6657   0.0007   0.8982     H
H       0.6686   0.5381   0.1439     H
C       0.6702    0.133   0.8193     C
H       0.6712   0.2733   0.4593     H
C       0.6723   0.7732   0.0494     C
C       0.6727   0.0971   0.8699     C
O      0.67342  0.90794   0.9123     O
H       0.6815   0.2843   0.6825     H
H        0.682     0.12    0.777     H
C       0.6822   0.7628   0.8105     C
C       0.6849   0.5032    0.609     C
Zn     0.68849  0.71085  0.17089    Zn
C       0.6885   0.5018    0.541     C
N      0.68875  0.81125    0.014     N
H        0.691   0.4568   0.1103     H
O        0.694   0.6233    0.216     O
O       0.6942   0.4045   0.8937     O
O       0.6943   0.6335   0.7033     O
Zn     0.69454  0.70469  0.68567    Zn
Zn     0.69605  0.19605  0.57511    Zn
N      0.69749  0.76658   0.1035     N
C       0.6976   0.2527   0.4461     C
N       0.6988   0.8012   0.8456     N
C       0.6991   0.0086   0.8902     C
O       0.7009  0.12334   0.5909     O
C        0.702    0.531   0.1346     C
Zn     0.70469  0.30546  0.31433    Zn
C       0.7059   0.4133   0.8353     C
H       0.7059    0.501      0.9     H
O       0.7061   0.3991   0.2602     O
C        0.708   0.2636    0.695     C
N        0.708  0.75598   0.7559     N
C       0.7093    0.506   0.8549     C
C       0.7108   0.4662   0.8111     C
Zn     0.71085  0.31151  0.82911    Zn
C       0.7123   0.0583   0.8726     C
H       0.7123   0.5814   0.8565     H
H       0.7125   0.0667    0.478     H
C        0.713    0.554    0.828     C
C       0.7148    0.475   0.7455     C
H        0.715   0.4476    0.717     H
C       0.7152   0.4816   0.1153     C
C       0.7155   0.6194   0.1618     C
H       0.7157   0.6815   0.3175     H
O       0.7166  0.37946   0.7947     O
H       0.7172   0.0685    0.362     H
N       0.7173   0.2173   0.4837     N
C       0.7178    0.563   0.7617     C
C       0.7183   0.4051   0.3189     C
C       0.7185   0.5227   0.7188     C
N      0.71924  0.25561   0.3883     N
O       0.7194   0.6326   0.4289     O
O       0.7201  0.36946   0.3596     O
C       0.7206    0.919   0.9129     C
O       0.7213   0.6531   0.1221     O
C       0.7217    0.527   0.6462     C
C       0.7222   0.6172   0.7385     C
H       0.7258     0.44   0.4391     H
H       0.7267   0.6712   0.5407     H
C       0.7268   0.8277   0.0494     C
N       0.7276   0.2276   0.6562     N
N      0.73026  0.26638   0.7519     N
C       0.7304   0.4668   0.4102     C
C       0.7308   0.4573   0.3453     C
C       0.7316   0.5224   0.5085     C
N      0.73342  0.80251   0.1035     N
N      0.73362  0.73026   0.2481     N
C        0.735   0.9719   0.8958     C
C       0.7363   0.5141   0.4361     C
C       0.7364   0.5683     0.14     C
C       0.7364    0.708    0.305     C
C       0.7372   0.8178   0.8105     C
C       0.7377   0.0486   0.4568     C
O       0.7385   0.1435   0.2415     O
H       0.7405    0.067   0.7046     H
C       0.7411   0.0506   0.3858     C
C       0.7424   0.4941   0.3023     C
H       0.7428   0.3448    0.177     H
N      0.74402    0.792   0.7559     N
N      0.74439  0.71924   0.6117     N
H       0.7444   0.4872   0.2575     H
C       0.7459   0.1067   0.5867     C
O      0.74677  0.38836   0.0735     O
H       0.7469   0.8546   0.0369     H
C       0.7473   0.6976   0.5539     C
C       0.7482   0.5529   0.3921     C
C       0.7487   0.0417   0.6749     C
C       0.7513   0.5417   0.3251     C
C       0.7518   0.0529   0.6079     C
C       0.7527   0.1976   0.4461     C
H       0.7531   0.3546   0.9631     H
O      0.75323  0.88836   0.9265     O
C       0.7541   0.6067   0.4133     C
H       0.7556   0.9872   0.7425     H
N      0.75561  0.21924   0.3883     N
N      0.75598    0.292   0.2441     N
H       0.7572   0.8448    0.823     H
C       0.7576   0.9941   0.6977     C
C       0.7589   0.5506   0.6142     C
H       0.7595    0.567   0.2954     H
O       0.7615   0.6435   0.7585     O
C       0.7623   0.5486   0.5432     C
C       0.7628   0.3178   0.1895     C
C       0.7636   0.0683     0.86     C
C       0.7636    0.208    0.695     C
C       0.7637   0.0141   0.5639     C
C        0.765   0.4719   0.1042     C
N      0.76638  0.23026   0.7519     N
N      0.76658  0.30251   0.8965     N
C       0.7684   0.0224   0.4915     C
C       0.7692   0.9573   0.6547     C
C       0.7696   0.9668   0.5898     C
N      0.76974  0.76638   0.2481     N
N       0.7724   0.7276   0.3438     N
C       0.7732   0.3277   0.9506     C
H       0.7733   0.1712   0.4593     H
H       0.7742     0.94   0.5609     H
C       0.7778   0.1172   0.2615     C
C       0.7783    0.027   0.3538     C
O       0.7787   0.1531   0.8779     O
C       0.7794    0.419   0.0871     C
O       0.7799  0.86946   0.6404     O
O       0.7806   0.1326   0.5711     O
N      0.78076  0.75561   0.6117     N
C       0.7815   0.0227   0.2812     C
C       0.7817   0.9051   0.6811     C
C       0.7822    0.063   0.2383     C
N       0.7827   0.7173   0.5163     N
H       0.7828   0.5685    0.638     H
O       0.7834  0.87946   0.2053     O
H       0.7843   0.1815   0.6825     H
C       0.7845   0.1194   0.8382     C
C       0.7848   0.9816   0.8847     C
H        0.785   0.9476    0.283     H
C       0.7852    0.975   0.2545     C
C        0.787    0.054    0.172     C
H       0.7875   0.5667    0.522     H
H       0.7877   0.0814   0.1435     H
C       0.7877   0.5583   0.1274     C
Zn     0.78915  0.81151  0.17089    Zn
C       0.7892   0.9662   0.1889     C
C       0.7907    0.006   0.1451     C
N        0.792  0.25598   0.2441     N
C        0.792   0.7636    0.305     C
O       0.7939   0.8991   0.7398     O
H       0.7941    0.001      0.1     H
C       0.7941   0.9133   0.1647     C
Zn     0.79531  0.80546  0.68567    Zn
C        0.798    0.031   0.8654     C
O       0.7991  0.62334   0.4091     O
C       0.8009   0.5086   0.1098     C
N       0.8012   0.3012   0.1544     N
C       0.8024   0.7527   0.5539     C
N      0.80251  0.26658   0.8965     N
Zn     0.80395  0.69605  0.42489    Zn
Zn     0.80546  0.20469  0.31433    Zn
O       0.8057   0.1335   0.2967     O
O       0.8058   0.9045   0.1063     O
O        0.806   0.1233    0.784     O
H        0.809   0.9568   0.8897     H
N      0.81125  0.31125    0.986     N
C       0.8115   0.0018    0.459     C
Zn     0.81151  0.21085  0.82911    Zn
C       0.8151   0.0032    0.391     C
C       0.8178   0.2628   0.1895     C
H        0.818     0.62    0.223     H
H       0.8185   0.7843   0.3175     H
O      0.82658  0.40794   0.0877     O
C       0.8273   0.5971   0.1301     C
C       0.8277   0.2732   0.9506     C
H       0.8288   0.7733   0.5407     H
C       0.8298    0.633   0.1807     C
H       0.8314   0.0381   0.8561     H
H       0.8343   0.5007   0.1018     H
Zn     0.83431  0.33431  0.07553    Zn
H       0.8371   0.9874   0.4838     H
H       0.8423   0.9881   0.3701     H
H       0.8448   0.2428    0.177     H
O       0.8469   0.7787   0.1221     O
H       0.8546   0.2531   0.9631     H
O       0.8565   0.7385   0.7585     O
H       0.8613   0.5763   0.0455     H
C       0.8624   0.5996   0.0796     C
O       0.8665   0.8057   0.7033     O
C        0.867   0.6702   0.1807     C
O       0.8674   0.7806   0.4289     O
O      0.86946   0.2201   0.3596     O
O      0.87666   0.7009   0.4091     O
O       0.8767    0.806    0.216     O
O      0.87946   0.2166   0.7947     O
H         0.88    0.682    0.223     H
C       0.8806   0.7845   0.1618     C
C       0.8828   0.7778   0.7385     C
O      0.88836  0.24677   0.0735     O
C       0.8933   0.7459   0.4133     C
O       0.8991   0.2061   0.2602     O
C       0.9004   0.6376   0.0796     C
C       0.9029   0.6727   0.1301     C
O       0.9045   0.1942   0.8937     O
C       0.9051   0.2183   0.3189     C
O      0.90794  0.32658   0.0877     O
C       0.9133   0.2059   0.8353     C
H       0.9186   0.7877   0.8565     H
C        0.919   0.2794   0.0871     C
H       0.9237   0.6387   0.0455     H
H       0.9315   0.7172    0.638     H
C       0.9317   0.7636     0.14     C
H        0.933   0.7405   0.2954     H
H       0.9333   0.7125    0.522     H
C        0.937   0.7822   0.7617     C
H         0.94   0.2258   0.4391     H
C       0.9417   0.7123   0.1274     C
C        0.946    0.787    0.828     C
C       0.9471   0.7518   0.3921     C
H       0.9476    0.215    0.717     H
C       0.9494   0.7411   0.6142     C
C       0.9514   0.7377   0.5432     C
H       0.9568    0.191   0.1103     H
C       0.9573   0.2308   0.3453     C
C       0.9583   0.7487   0.3251     C
H       0.9619   0.8314   0.1439     H
C       0.9662   0.2108   0.8111     C
C       0.9668   0.2304   0.4102     C
C        0.969    0.798   0.1346     C
C       0.9719    0.265   0.1042     C
C        0.973   0.7783   0.6462     C
C        0.975   0.2148   0.7455     C
C       0.9773   0.7815   0.7188     C
C       0.9776   0.7684   0.5085     C
C       0.9816   0.2152   0.1153     C
C       0.9859   0.7637   0.4361     C
H       0.9872   0.2444   0.2575     H
H       0.9874   0.1629   0.5162     H
H       0.9881   0.1577   0.6299     H
C       0.9914   0.6991   0.1098     C
C        0.994   0.7907   0.8549     C
C       0.9941   0.2424   0.3023     C
C       0.9968   0.8151    0.609     C
C       0.9982   0.8115    0.541     C
H        0.999   0.7941      0.9     H
H       0.9993   0.6657   0.1018     H
