data_I
_chemical_name_common  '/home/zhangsd/repos/MofS-CGCNN/ML/data/WS24/clean_cifs/KAVJAT'
_cell_length_a 23.40715
_cell_length_b 23.40690
_cell_length_c 23.40690
_cell_angle_alpha 109.47100
_cell_angle_beta  109.47144
_cell_angle_gamma 109.47144
_space_group_name_H-M_alt      'P 1'


loop_
_space_group_symop_operation_xyz
  'x, y, z' 

loop_
_atom_site_label
_atom_site_fract_x
_atom_site_fract_y
_atom_site_fract_z
_atom_site_type_symbol
Pr         0.0      0.0      0.5    Pr
Pr         0.0      0.0   0.6696    Pr
C       0.0048    0.373    0.915     C
O       0.0073   0.8875     0.44     O
C       0.0104   0.3107   0.8813     C
C        0.016   0.1265   0.7683     C
C       0.0162   0.1906   0.8112     C
O       0.0272   0.9326    0.244     O
O       0.0306   0.0843   0.4479     O
C        0.031   0.8135   0.1651     C
C       0.0346   0.7535   0.1327     C
N       0.0406   0.6933   0.3121     N
C        0.042   0.9102    0.415     C
C        0.045   0.7998   0.3608     C
H       0.0512   0.1886    0.431     H
O       0.0521   0.6364   0.0827     O
O       0.0525   0.4327     0.94     O
O       0.0537   0.9694   0.4173     O
O       0.0565   0.1316   0.7433     O
O         0.06   0.4475   0.0673     O
C        0.061   0.3158   0.8608     C
C        0.063   0.2562   0.8238     C
O       0.0673     0.56   0.9475     O
O       0.0674   0.0946   0.3114     O
C       0.0676   0.7608   0.3238     C
H        0.069   0.7576   0.1202     H
C       0.0706   0.8709   0.3813     C
O       0.0751   0.9435   0.6868     O
O       0.0827   0.5521   0.1364     O
O       0.0843   0.0537   0.6364     O
C        0.085   0.4952    0.127     C
C       0.0898   0.1318   0.5048     C
O       0.0946   0.0272   0.7832     O
C       0.0981   0.2189   0.4654     C
C       0.1105    0.984   0.7523     C
O       0.1117   0.6868   0.2433     O
O       0.1125   0.1198   0.5525     O
C       0.1187   0.4896   0.1893     C
N       0.1188   0.2715   0.8121     N
O       0.1198   0.0073   0.5673     O
H       0.1202    0.569   0.2576     H
C       0.1206    0.795   0.3112     C
C       0.1208   0.9019   0.3673     C
C       0.1265   0.1105   0.3582     C
C        0.127    0.585   0.9952     C
C       0.1291   0.1997   0.5104     C
O       0.1316   0.0751   0.3883     O
C       0.1318    0.042    0.627     C
C       0.1327   0.5346   0.2535     C
C       0.1341   0.2825    0.469     C
O       0.1364   0.5827   0.0521     O
H       0.1374   0.9488   0.3798     H
C       0.1392    0.439   0.1842     C
C       0.1418   0.7523   0.2683     C
C       0.1484   0.8659   0.3349     C
N       0.1527   0.8812   0.6933     N
C       0.1651    0.531   0.3135     C
Pr      0.1696   0.6696   0.1696    Pr
C       0.1744   0.9838    0.795     C
C       0.1762    0.437   0.2438     C
C       0.1842   0.6392    0.939     C
C       0.1865   0.2175   0.3516     C
O       0.1868   0.7433   0.1117     O
N       0.1879   0.3812   0.2285     N
H       0.1886   0.1374   0.7576     H
O       0.1886   0.7832    0.256     O
C       0.1888   0.4838   0.3094     C
C       0.1893   0.6187   0.9896     C
C       0.1906   0.1744   0.3794     C
C       0.1932    0.937   0.7608     C
N       0.1933   0.8121   0.0406     N
C       0.1997   0.0706   0.6893     C
C       0.2002   0.2452    0.561     C
C        0.205   0.3256   0.5162     C
O       0.2168   0.4054   0.4728     O
C       0.2175    0.031   0.8659     C
C       0.2189   0.1208   0.7535     C
N       0.2285   0.6879   0.8812     N
C       0.2317    0.484   0.3735     C
C       0.2392   0.3068    0.563     C
H       0.2424   0.3114   0.3626     H
O       0.2433   0.6117   0.1868     O
C       0.2438   0.6762    0.937     C
O        0.244   0.5272   0.4326     O
C       0.2452    0.045   0.6842     C
C       0.2465   0.2811   0.3792     C
C       0.2477   0.3895    0.516     C
C       0.2523   0.7683   0.1418     C
C       0.2535   0.6327   0.0346     C
C       0.2548    0.939   0.7998     C
O        0.256   0.6886   0.2832     O
C       0.2562   0.1932   0.4324     C
O       0.2567   0.4435   0.3684     O
H       0.2576   0.6202    0.069     H
C       0.2608   0.8238   0.0676     C
C       0.2683   0.6418   0.2523     C
N       0.2715   0.1527   0.4594     N
C       0.2811   0.0346   0.9019     C
C       0.2825   0.1484   0.8135     C
O       0.2832    0.756   0.1886     O
C        0.295   0.8112   0.1206     C
C       0.2998   0.8608    0.045     C
C       0.3003   0.9896   0.8709     C
N       0.3067   0.3473   0.6188     N
C       0.3068   0.0676   0.7438     C
C       0.3094   0.6888   0.9838     C
C       0.3107   0.3003   0.4294     C
C       0.3112   0.6206    0.295     C
H       0.3114    0.069   0.9488     H
O       0.3114   0.5674   0.5946     O
N       0.3121   0.5406   0.1933     N
O       0.3132   0.4249   0.5565     O
C       0.3135   0.6651    0.031     C
C       0.3158   0.2548    0.455     C
C       0.3238   0.5676   0.2608     C
C       0.3256   0.1206   0.8094     C
Pr      0.3304      0.5      0.5    Pr
C       0.3349   0.6484   0.3659     C
N       0.3473   0.0406   0.7285     N
C       0.3516   0.6865   0.7175     C
C       0.3582   0.6265   0.6105     C
C       0.3608    0.545   0.2998     C
H       0.3626   0.7424   0.8114     H
O       0.3636   0.4157   0.4463     O
C       0.3659   0.8349   0.1484     C
C       0.3673   0.6208   0.4019     C
C       0.3682   0.9952   0.9102     C
O       0.3684   0.7567   0.9435     O
C       0.3709   0.8813   0.0706     C
C        0.373   0.3682    0.458     C
C       0.3735   0.7317    0.984     C
C       0.3792   0.7465   0.7811     C
C       0.3794   0.6906   0.6744     C
H       0.3798   0.6374   0.4488     H
O       0.3802   0.9475   0.8875     O
N       0.3812   0.1933   0.1527     N
C       0.3813   0.5706   0.3709     C
O       0.3875     0.94   0.0073     O
O       0.3883   0.6316   0.5751     O
C       0.3895   0.1418   0.8735     C
C       0.4019   0.8673   0.1208     C
O       0.4054   0.1886   0.9326     O
C       0.4102    0.915    0.042     C
C        0.415    0.542   0.4102     C
O       0.4157   0.0521   0.9694     O
O       0.4173   0.5537   0.4694     O
O       0.4249   0.1117   0.8684     O
C       0.4294   0.8107   0.8003     C
H        0.431   0.5512   0.6886     H
C       0.4324   0.7562   0.6932     C
O       0.4326    0.744   0.0272     O
O       0.4327   0.3802   0.4927     O
C        0.437   0.2608   0.1932     C
C        0.439   0.2998   0.2548     C
O         0.44   0.5073   0.3875     O
O       0.4435   0.1868   0.0751     O
O       0.4463   0.8636   0.9157     O
O       0.4475   0.3875   0.3802     O
O       0.4479   0.5306   0.5843     O
H       0.4488   0.8798   0.1374     H
C        0.455   0.8158   0.7548     C
C        0.458    0.873   0.8682     C
N       0.4594   0.7715   0.6527     N
C       0.4654   0.5981   0.7189     C
C        0.469   0.6341   0.7825     C
O       0.4694   0.9173   0.0537     O
O       0.4728   0.7168   0.9054     O
C       0.4838    0.295   0.1744     C
C        0.484   0.2523   0.1105     C
C       0.4896   0.3709   0.3003     C
O       0.4927   0.9327   0.8802     O
C       0.4952   0.4102   0.3682     C
Pr         0.5      0.0      0.0    Pr
Pr         0.5   0.1696      0.0    Pr
Pr         0.5      0.5      0.5    Pr
Pr         0.5   0.8304      0.0    Pr
C       0.5048   0.5898   0.6318     C
O       0.5073   0.0673   0.1198     O
C       0.5104   0.6291   0.6997     C
C        0.516   0.7477   0.8895     C
C       0.5162    0.705   0.8256     C
O       0.5272   0.2832   0.0946     O
O       0.5306   0.0827   0.9463     O
C        0.531   0.3659   0.2175     C
C       0.5346   0.4019   0.2811     C
N       0.5406   0.2285   0.3473     N
C        0.542    0.127   0.1318     C
C        0.545   0.1842   0.2452     C
H       0.5512   0.1202   0.8626     H
O       0.5521   0.4694   0.4157     O
O       0.5525   0.6125   0.6198     O
O       0.5537   0.1364   0.0843     O
O       0.5565   0.8132   0.9249     O
O         0.56   0.4927   0.6125     O
C        0.561   0.7002   0.7452     C
C        0.563   0.7392   0.8068     C
O       0.5673   0.6198   0.5073     O
O       0.5674    0.256   0.9728     O
C       0.5676   0.2438   0.3068     C
H        0.569   0.4488   0.3114     H
C       0.5706   0.1893   0.1997     C
O       0.5751   0.8883   0.1316     O
O       0.5827   0.4463   0.5306     O
O       0.5843   0.9479   0.0306     O
C        0.585    0.458   0.5898     C
C       0.5898    0.085    0.958     C
O       0.5946   0.8114   0.0674     O
C       0.5981   0.1327   0.8792     C
C       0.6105   0.8582   0.1265     C
O       0.6117   0.3684   0.4249     O
O       0.6125     0.06   0.9927     O
C       0.6187   0.4294   0.6291     C
N       0.6188   0.8067   0.8473     N
O       0.6198   0.0525   0.1125     O
H       0.6202   0.3626   0.5512     H
C       0.6206   0.3094   0.3256     C
C       0.6208   0.2535   0.2189     C
C       0.6265   0.2683    0.016     C
C        0.627   0.6318    0.542     C
C       0.6291   0.1187   0.9294     C
O       0.6316   0.2433   0.0565     O
C       0.6318   0.0048   0.0898     C
C       0.6327   0.3792   0.5981     C
C       0.6341   0.1651   0.8516     C
O       0.6364   0.5843   0.5537     O
H       0.6374   0.2576   0.1886     H
C       0.6392    0.455   0.7002     C
C       0.6418   0.3735   0.3895     C
C       0.6484   0.3135   0.2825     C
N       0.6527   0.9594   0.2715     N
C       0.6651   0.3516   0.6341     C
Pr      0.6696      0.5      0.5    Pr
C       0.6744   0.8794   0.1906     C
C       0.6762   0.4324   0.7392     C
C       0.6842   0.7452    0.545     C
C       0.6865   0.3349    0.969     C
O       0.6868   0.5751   0.4435     O
N       0.6879   0.4594   0.8067     N
O       0.6886   0.4326   0.4054     O
H       0.6886    0.931   0.0512     H
C       0.6888   0.3794    0.705     C
C       0.6893   0.6997   0.5706     C
C       0.6906   0.3112   0.0162     C
C       0.6932   0.9324   0.2562     C
N       0.6933   0.6527   0.3812     N
C       0.6997   0.0104   0.1291     C
C       0.7002   0.1392    0.955     C
C        0.705   0.1888   0.8794     C
O       0.7168    0.244   0.8114     O
C       0.7175   0.8516   0.1865     C
C       0.7189   0.9654   0.0981     C
N       0.7285   0.8473   0.5406     N
C       0.7317   0.3582   0.7477     C
C       0.7392   0.1762   0.9324     C
H       0.7424   0.3798    0.931     H
O       0.7433   0.5565   0.6316     O
C       0.7438   0.8068   0.5676     C
O        0.744   0.3114   0.7168     O
C       0.7452    0.061   0.2002     C
C       0.7465   0.3673   0.9654     C
C       0.7477   0.2317   0.8582     C
C       0.7523   0.6105    0.484     C
C       0.7535   0.7189   0.6208     C
C       0.7548    0.955   0.3158     C
O        0.756   0.4728   0.5674     O
C       0.7562   0.3238    0.063     C
O       0.7567   0.3883   0.8132     O
H       0.7576   0.6886   0.6374     H
C       0.7608   0.6932    0.437     C
C       0.7683    0.516   0.6265     C
N       0.7715   0.3121   0.1188     N
C       0.7811   0.8792   0.2465     C
C       0.7825    0.969   0.1341     C
O       0.7832   0.5946   0.5272     O
C        0.795   0.6744   0.4838     C
C       0.7998   0.7548    0.439     C
C       0.8003   0.9294   0.3107     C
N       0.8067   0.1879   0.9594     N
C       0.8068    0.063   0.2392     C
C       0.8094   0.8256   0.6206     C
C       0.8107   0.3813   0.0104     C
C       0.8112   0.5162   0.6906     C
O       0.8114   0.2168    0.744     O
H       0.8114   0.8626   0.2424     H
N       0.8121   0.6188   0.7715     N
O       0.8132   0.2567   0.8883     O
C       0.8135   0.7825   0.6484     C
C       0.8158   0.3608    0.061     C
C       0.8238    0.563   0.7562     C
C       0.8256   0.0162    0.205     C
Pr      0.8304   0.3304   0.8304    Pr
C       0.8349    0.469   0.6865     C
N       0.8473   0.1188   0.3067     N
C       0.8516   0.1341   0.6651     C
C       0.8582   0.2477   0.7317     C
C       0.8608    0.561   0.8158     C
H       0.8626   0.0512   0.6202     H
O       0.8636   0.4173   0.9479     O
C       0.8659   0.7175    0.531     C
C       0.8673   0.4654   0.7465     C
C       0.8682    0.958    0.373     C
O       0.8684   0.9249   0.6117     O
C       0.8709   0.8003   0.4896     C
C        0.873    0.415   0.0048     C
C       0.8735   0.8895   0.6418     C
C       0.8792   0.0981   0.6327     C
C       0.8794    0.205   0.6888     C
H       0.8798    0.431   0.7424     H
O       0.8802   0.9927   0.4327     O
N       0.8812   0.7285   0.1879     N
C       0.8813   0.5104   0.8107     C
O       0.8875   0.8802   0.4475     O
O       0.8883   0.3132   0.7567     O
C       0.8895    0.016   0.2477     C
C       0.9019   0.7811   0.5346     C
O       0.9054   0.9728   0.2168     O
C       0.9102   0.8682   0.4952     C
C        0.915   0.5048    0.873     C
O       0.9157   0.9463   0.3636     O
O       0.9173   0.4479   0.8636     O
O       0.9249   0.0565   0.3132     O
C       0.9294   0.1291   0.6187     C
H        0.931   0.2424   0.8798     H
C       0.9324   0.2392   0.6762     C
O       0.9326   0.9054   0.6886     O
O       0.9327     0.44   0.0525     O
C        0.937   0.7438   0.1762     C
C        0.939   0.6842   0.1392     C
O         0.94   0.5525   0.9327     O
O       0.9435   0.8684   0.2567     O
O       0.9463   0.0306   0.5827     O
O       0.9475   0.5673     0.06     O
O       0.9479   0.3636   0.9173     O
H       0.9488   0.8114    0.569     H
C        0.955   0.2002   0.6392     C
C        0.958   0.0898    0.585     C
N       0.9594   0.3067   0.6879     N
C       0.9654   0.2465   0.8673     C
C        0.969   0.1865   0.8349     C
O       0.9694   0.9157   0.5521     O
O       0.9728   0.0674    0.756     O
C       0.9838   0.8094   0.1888     C
C        0.984   0.8735   0.2317     C
C       0.9896   0.6893   0.1187     C
O       0.9927   0.1125     0.56     O
C       0.9952    0.627    0.085     C
Pr         1.0      0.5      1.0    Pr
Pr         1.0      1.0   0.3304    Pr
