data_I
_chemical_name_common  '/home/zhangsd/repos/MofS-CGCNN/ML/data/WS24/clean_cifs/KEBDOM'
_cell_length_a 13.61100
_cell_length_b 14.58000
_cell_length_c 15.04100
_cell_angle_alpha 71.92200
_cell_angle_beta  65.00600
_cell_angle_gamma 80.58600
_space_group_name_H-M_alt      'P 1'


loop_
_space_group_symop_operation_xyz
  'x, y, z' 

loop_
_atom_site_label
_atom_site_fract_x
_atom_site_fract_y
_atom_site_fract_z
_atom_site_type_symbol
C       0.0026   0.5443    0.746     C
H       0.0125   0.5189   0.2142     H
C       0.0253   0.0888   0.1799     C
C       0.0328   0.7912   0.1364     C
C       0.0363   0.3902   0.9764     C
H       0.0406   0.8269   0.0709     H
C       0.0416   0.7426   0.9266     C
H        0.046   0.0306   0.2165     H
C       0.0466   0.2843   0.7008     C
C       0.0484   0.6255   0.4352     C
H       0.0496   0.4517   0.9317     H
N       0.0514    0.826    0.577     N
C       0.0525   0.2954   0.3116     C
C        0.054   0.7277   0.6287     C
N       0.0545   0.6521   0.9887     N
C        0.056   0.1464   0.3938     C
C       0.0607   0.2467   0.0757     C
N       0.0637    0.233   0.7862     N
C       0.0637   0.3663   0.5321     C
C        0.065   0.7106   0.2673     C
C       0.0762   0.9017   0.8221     C
H       0.0796   0.5932   0.4813     H
H       0.0803   0.0846   0.4194     H
C       0.0812   0.3897   0.2508     C
C       0.0976   0.1631   0.1293     C
H       0.1059   0.3918   0.4634     H
C       0.1097   0.5679   0.6853     C
N       0.1108   0.3351   0.0122     N
C       0.1116   0.8181   0.8727     C
C       0.1132   0.6644   0.3355     C
C       0.1144   0.3222   0.5964     C
N       0.1145   0.7589   0.1635     N
H       0.1179   0.0729   0.8979     H
N       0.1212    0.214   0.3275     N
H       0.1215   0.9538    0.788     H
H       0.1356    0.842   0.3824     H
C       0.1394   0.6599   0.6281     C
C       0.1418   0.8825   0.4983     C
H        0.153   0.4061   0.2107     H
H       0.1635   0.5193   0.6835     H
H       0.1654   0.9423   0.5905     H
H       0.1658   0.1572   0.1311     H
C        0.167   0.2025    0.796     C
C       0.1716   0.8799   0.3979     C
C        0.177   0.1125   0.8601     C
H       0.1814   0.8117   0.8711     H
H       0.1827   0.5015   0.9829     H
H       0.1883   0.6601   0.3136     H
C       0.1894   0.9404   0.5233     C
H       0.1896   0.3172   0.5732     H
H       0.2038   0.1225   0.5659     H
O       0.2091   0.9306    0.982     O
H       0.2116   0.6762   0.5912     H
C       0.2173   0.3603   0.9853     C
H        0.228   0.6172   0.0401     H
C       0.2381   0.4541    0.974     C
O       0.2417   0.8883   0.1924     O
H       0.2496   0.3226   0.6978     H
C       0.2564   0.9358   0.3228     C
C       0.2567   0.2618   0.7394     C
C        0.276   0.9977   0.4454     C
C        0.278    0.121   0.5267     C
C        0.279   0.0818   0.8671     C
Mn     0.28034  0.81858  0.07516    Mn
H       0.2846   0.2273   0.9751     H
C       0.2867   0.9863   0.9376     C
C       0.2938   0.9345    0.211     C
H       0.2953   0.3491   0.2892     H
H       0.2961   0.8235   0.6678     H
C       0.2976   0.6336   0.9921     C
C       0.2995   0.2893   0.9694     C
C       0.3052   0.9952   0.3453     C
H       0.3144   0.9466   0.7257     H
H       0.3149   0.4995   0.4728     H
H       0.3179   0.4472   0.7392     H
H       0.3254   0.2015    0.256     H
N       0.3261   0.0594   0.4665     N
N       0.3358   0.7177   0.9706     N
N       0.3436   0.1766   0.5248     N
C       0.3451   0.4758   0.9489     C
C       0.3561   0.2294   0.7458     C
H       0.3592   0.0349   0.2927     H
C       0.3629   0.3345   0.2427     C
C       0.3641   0.8482   0.6442     C
N       0.3652    0.572   0.9402     N
C       0.3657   0.1393   0.8096     C
O       0.3741   0.9625   0.9519     O
C       0.3755   0.9223   0.6798     C
N       0.3758   0.6887   0.4138     N
O       0.3803   0.9781   0.1519     O
C       0.3809   0.2451   0.2227     C
H       0.3857   0.5996   0.6779     H
C        0.388     0.51   0.4322     C
C       0.3902   0.4578   0.6955     C
C        0.405    0.313   0.9448     C
O        0.409   0.7423   0.1093     O
C       0.4283   0.4055   0.9358     C
C       0.4297   0.6021   0.3973     C
H       0.4303   0.4613   0.2115     H
C       0.4318    0.548   0.6593     C
H       0.4325   0.1178   0.8129     H
C       0.4351   0.0783   0.4194     C
H       0.4356   0.3726   0.4275     H
H       0.4361   0.8178   0.3588     H
C       0.4415   0.7127   0.8962     C
C       0.4418   0.4024   0.1959     C
H       0.4433   0.7642   0.5499     H
C       0.4465   0.1524   0.4568     C
N       0.4491   0.2854   0.6851     N
C       0.4502   0.7524   0.3626     C
C       0.4516   0.8119   0.5751     C
O         0.46   0.1491   0.9665     O
C       0.4601   0.4351   0.4039     C
C       0.4605   0.3835   0.6642     C
C       0.4618   0.6219    0.875     C
C       0.4754   0.9604   0.6486     C
C       0.4802   0.2194   0.1539     C
H       0.4822   0.0099   0.6723     H
H       0.4931   0.1587   0.1423     H
C       0.4957   0.2337   0.9321     C
H       0.4984   0.4201   0.9213     H
Mn         0.5      0.0      0.0    Mn
H       0.5016   0.5799   0.0787     H
C       0.5043   0.7663   0.0679     C
H       0.5069   0.8413   0.8577     H
H       0.5178   0.9901   0.3277     H
C       0.5198   0.7806   0.8461     C
C       0.5246   0.0396   0.3514     C
C       0.5382   0.3781    0.125     C
C       0.5395   0.6165   0.3358     C
C       0.5399   0.5649   0.5961     C
O         0.54   0.8509   0.0335     O
C       0.5484   0.1881   0.4249     C
C       0.5498   0.2476   0.6374     C
N       0.5509   0.7146   0.3149     N
C       0.5535   0.8476   0.5432     C
H       0.5567   0.2358   0.4501     H
C       0.5582   0.5976   0.8041     C
C       0.5585   0.2873   0.1038     C
H       0.5639   0.1822   0.6412     H
H       0.5644   0.6274   0.5725     H
C       0.5649   0.9217   0.5806     C
H       0.5675   0.8822   0.1871     H
C       0.5682    0.452   0.3407     C
H       0.5697   0.5387   0.7885     H
C       0.5703   0.3979   0.6027     C
C       0.5717   0.5945   0.0642     C
O        0.591   0.2577   0.8907     O
C        0.595    0.687   0.0552     C
C       0.6098   0.5422   0.3045     C
C        0.612     0.49   0.5678     C
H       0.6143   0.4004   0.3221     H
C       0.6191   0.7549   0.7773     C
O       0.6197   0.0219   0.8481     O
N       0.6242   0.3113   0.5862     N
C       0.6245   0.0777   0.3202     C
O       0.6259   0.0375   0.0481     O
C       0.6343   0.8607   0.1904     C
N       0.6348    0.428   0.0598     N
C       0.6359   0.1518   0.3558     C
C       0.6371   0.6655   0.7573     C
H       0.6408   0.9651   0.7073     H
C       0.6439   0.7706   0.2542     C
C       0.6549   0.5242   0.0511     C
N       0.6564   0.8234   0.4752     N
N       0.6642   0.2823   0.0294     N
N       0.6739   0.9406   0.5335     N
H       0.6746   0.7985    0.744     H
H       0.6821   0.5528   0.2608     H
H       0.6851   0.5005   0.5272     H
H       0.6856   0.0534   0.2743     H
C       0.6948   0.0048   0.6547     C
C       0.7005   0.7107   0.0306     C
C       0.7024   0.3664   0.0079     C
H       0.7039   0.1765   0.3322     H
H       0.7047   0.6509   0.7108     H
C       0.7062   0.0655    0.789     C
C       0.7133   0.0137   0.0624     C
H       0.7154   0.7727   0.0249     H
Mn     0.71966  0.18142  0.92484    Mn
C        0.721   0.9182   0.1329     C
C        0.722    0.879   0.4733     C
C        0.724   0.0023   0.5546     C
C       0.7433   0.7382   0.2606     C
C       0.7436   0.0642   0.6772     C
H       0.7504   0.6774   0.3022     H
O       0.7583   0.1117   0.8076     O
C       0.7619   0.5459    0.026     C
H        0.772   0.3828   0.9599     H
C       0.7827   0.6397   0.0147     C
H       0.7884   0.3238   0.4088     H
O       0.7909   0.0694    0.018     O
H       0.7962   0.8775   0.4341     H
H       0.8104   0.6828   0.4268     H
C       0.8106   0.0596   0.4767     C
H       0.8117   0.3399   0.6864     H
H       0.8173   0.4985   0.0171     H
H       0.8186   0.1883   0.1289     H
C        0.823   0.8875   0.1399     C
C       0.8284   0.1201   0.6021     C
C        0.833   0.7975    0.204     C
H       0.8342   0.8428   0.8689     H
H       0.8346   0.0577   0.4095     H
H       0.8365   0.4807   0.3165     H
H        0.847   0.5939   0.7893     H
C       0.8582   0.1175   0.5017     C
C       0.8606   0.3401   0.3719     C
H       0.8644    0.158   0.6176     H
H       0.8785   0.0462    0.212     H
N       0.8788    0.786   0.6725     N
H       0.8821   0.9271   0.1021     H
N       0.8855   0.2411   0.8365     N
C       0.8856   0.6778   0.4036     C
C       0.8868   0.3356   0.6645     C
C       0.8884   0.1819   0.1273     C
N       0.8892   0.6649   0.9878     N
C       0.8903   0.4321   0.3147     C
H       0.8941   0.6082   0.5366     H
C       0.9024   0.8369   0.8707     C
C       0.9188   0.6103   0.7492     C
H       0.9197   0.9154   0.5806     H
H       0.9204   0.4068   0.5187     H
C       0.9238   0.0983   0.1779     C
C        0.935   0.2894   0.7327     C
C       0.9363   0.6337   0.4679     C
N       0.9363    0.767   0.2138     N
C       0.9393   0.7533   0.9243     C
C        0.944   0.8536   0.6062     C
N       0.9455   0.3479   0.0113     N
C        0.946   0.2723   0.3713     C
C       0.9475   0.7046   0.6884     C
N       0.9486    0.174    0.423     N
H       0.9504   0.5483   0.0683     H
C       0.9516   0.3745   0.5648     C
C       0.9534   0.7157   0.2992     C
H        0.954   0.9694   0.7835     H
C       0.9584   0.2574   0.0734     C
H       0.9594   0.1731   0.9291     H
C       0.9637   0.6098   0.0236     C
C       0.9672   0.2088   0.8636     C
C       0.9747   0.9112   0.8201     C
H       0.9875   0.4811   0.7858     H
C       0.9974   0.4557    0.254     C
