data_I
_chemical_name_common  '/home/zhangsd/repos/MofS-CGCNN/ML/data/WS24/clean_cifs/KEQJEX'
_cell_length_a  6.81310
_cell_length_b 11.15500
_cell_length_c 15.78200
_cell_angle_alpha 90.00000
_cell_angle_beta  90.00000
_cell_angle_gamma 103.07800
_space_group_name_H-M_alt      'P 1'


loop_
_space_group_symop_operation_xyz
  'x, y, z' 

loop_
_atom_site_label
_atom_site_fract_x
_atom_site_fract_y
_atom_site_fract_z
_atom_site_type_symbol
C       0.0037   0.1612   0.2853     C
C       0.0037   0.1612   0.7147     C
C       0.0169   0.2807   0.1569     C
C       0.0169   0.2807   0.8431     C
C       0.0279   0.2943      0.0     C
H       0.0303   0.1378      0.5     H
H       0.0627   0.1111   0.3215     H
H       0.0627   0.1111   0.6785     H
C       0.1029   0.2111   0.2127     C
C       0.1029   0.2111   0.7873     C
H       0.1031   0.7581      0.0     H
C       0.1223   0.3321   0.0763     C
C       0.1223   0.3321   0.9237     C
O        0.158   0.1835      0.5     O
C       0.1707   0.6983   0.1759     C
C       0.1707   0.6983   0.8241     C
C       0.1818   0.8155    0.305     C
C       0.1818   0.8155    0.695     C
H       0.2155    0.272      0.5     H
H       0.2325   0.6514   0.1384     H
H       0.2325   0.6514   0.8616     H
H       0.2327   0.1974   0.2006     H
H       0.2327   0.1974   0.7994     H
O       0.2399   0.9609  0.41319     O
O       0.2399   0.9609  0.58681     O
C       0.2682   0.7456   0.2496     C
C       0.2682   0.7456   0.7504     C
C       0.2954   0.8729  0.38172     C
C       0.2954   0.8729  0.61828     C
C       0.3136   0.4152  0.07888     C
C       0.3136   0.4152  0.92112     C
H       0.3482   0.4295   0.2086     H
H       0.3482   0.4295   0.7914     H
Zn     0.37182  0.08955      0.5    Zn
H       0.3964   0.7301   0.2625     H
H       0.3964   0.7301   0.7375     H
C       0.4039   0.4561      0.0     C
C       0.4101   0.4586   0.1563     C
C       0.4101   0.4586   0.8437     C
O       0.4408   0.8322  0.40663     O
O       0.4408   0.8322  0.59337     O
O       0.5592   0.1678  0.40663     O
O       0.5592   0.1678  0.59337     O
C       0.5899   0.5414   0.1563     C
C       0.5899   0.5414   0.8437     C
C       0.5961   0.5439      0.0     C
H       0.6036   0.2699   0.2625     H
H       0.6036   0.2699   0.7375     H
Zn     0.62818  0.91045      0.5    Zn
H       0.6518   0.5705   0.2086     H
H       0.6518   0.5705   0.7914     H
C       0.6864   0.5848  0.07888     C
C       0.6864   0.5848  0.92112     C
C       0.7046   0.1271  0.38172     C
C       0.7046   0.1271  0.61828     C
C       0.7318   0.2544   0.2496     C
C       0.7318   0.2544   0.7504     C
O       0.7601   0.0391  0.41319     O
O       0.7601   0.0391  0.58681     O
H       0.7673   0.8026   0.2006     H
H       0.7673   0.8026   0.7994     H
H       0.7675   0.3486   0.1384     H
H       0.7675   0.3486   0.8616     H
H       0.7845    0.728      0.5     H
C       0.8182   0.1845    0.305     C
C       0.8182   0.1845    0.695     C
C       0.8293   0.3017   0.1759     C
C       0.8293   0.3017   0.8241     C
O        0.842   0.8165      0.5     O
C       0.8777   0.6679   0.0763     C
C       0.8777   0.6679   0.9237     C
H       0.8969   0.2419      0.0     H
C       0.8971   0.7889   0.2127     C
C       0.8971   0.7889   0.7873     C
H       0.9373   0.8889   0.3215     H
H       0.9373   0.8889   0.6785     H
H       0.9697   0.8622      0.5     H
C       0.9721   0.7057      0.0     C
C       0.9831   0.7193   0.1569     C
C       0.9831   0.7193   0.8431     C
C       0.9963   0.8388   0.2853     C
C       0.9963   0.8388   0.7147     C
