data_I
_chemical_name_common  '/home/zhangsd/repos/MofS-CGCNN/ML/data/WS24/clean_cifs/KEWZAP'
_cell_length_a 13.62960
_cell_length_b 15.04890
_cell_length_c 15.33440
_cell_angle_alpha 90.00000
_cell_angle_beta  90.00000
_cell_angle_gamma 116.03000
_space_group_name_H-M_alt      'P 1'


loop_
_space_group_symop_operation_xyz
  'x, y, z' 

loop_
_atom_site_label
_atom_site_fract_x
_atom_site_fract_y
_atom_site_fract_z
_atom_site_type_symbol
Mn         0.0      0.0      0.0    Mn
C       0.0015   0.3691    0.252     C
C       0.0046   0.8864   0.7041     C
O        0.006   0.8667   0.9559     O
H       0.0064   0.0302   0.1978     H
C       0.0076   0.7395    0.867     C
O       0.0201   0.4655   0.3796     O
C       0.0428   0.9592   0.7667     C
C       0.0464   0.2197   0.0693     C
H       0.0514   0.8191   0.6098     H
C       0.0539   0.3366   0.1903     C
C       0.0668   0.4471   0.3172     C
C       0.0774   0.8698   0.6508     C
H       0.0775   0.6194   0.5366     H
H       0.0999   0.5895   0.4393     H
O       0.1085   0.6297   0.4781     O
C       0.1117   0.6713   0.7458     C
C       0.1126    0.171   0.3038     C
O       0.1204   0.0966  0.90043     O
C       0.1208    0.781   0.8639     C
H       0.1298   0.3656   0.1875     H
O       0.1373   0.0232   0.0906     O
O       0.1416   0.2786   0.0444     O
H       0.1465   0.6492   0.7051     H
C       0.1539   0.0169   0.7773     C
H       0.1619   0.8328   0.9011     H
O       0.1672   0.5036   0.2941     O
H       0.1678   0.5439   0.2578     H
O       0.1716   0.4607   0.3319     O
C       0.1729   0.7454   0.8052     C
C       0.1896   0.9292   0.6589     C
C       0.1905   0.0948   0.8456     C
H       0.1967   0.4969   0.3743     H
H       0.1978   0.9575   0.2286     H
C       0.2095   0.2107   0.3037     C
O       0.2099   0.3214    0.852     O
O       0.2128   0.8393   0.3476     O
O       0.2219   0.8335   0.5543     O
C       0.2276   0.0028   0.7226     C
C       0.2342   0.0874   0.0968     C
H       0.2381   0.3065   0.8021     H
Mn     0.23892   0.2418  0.95897    Mn
H       0.2393   0.3808   0.8625     H
H       0.2607   0.6192   0.3625     H
Mn     0.26108   0.7582  0.45897    Mn
H       0.2619   0.6935   0.3021     H
C       0.2658   0.9126   0.5968     C
C       0.2724   0.9972   0.2226     C
O       0.2781   0.1665   0.0543     O
O       0.2872   0.1607   0.8476     O
O       0.2901   0.6786    0.352     O
C       0.2905   0.7893   0.8037     C
H       0.3022   0.0425   0.7286     H
H       0.3033   0.5031   0.8743     H
C       0.3095   0.9052   0.3456     C
C       0.3104   0.0708   0.1589     C
C       0.3271   0.2546   0.3052     C
O       0.3284   0.5393   0.8319     O
H       0.3322   0.4561   0.7578     H
O       0.3328   0.4964   0.7941     O
H       0.3381   0.1672   0.4011     H
C       0.3461   0.9831   0.2773     C
H       0.3535   0.3508   0.2051     H
O       0.3584   0.7214   0.5444     O
O       0.3627   0.9768   0.5906     O
H       0.3702   0.6344   0.6875     H
C       0.3792    0.219   0.3639     C
O       0.3796   0.9034  0.40043     O
C       0.3874    0.829   0.8038     C
C       0.3883   0.3287   0.2458     C
O       0.3915   0.3703   0.9781     O
H       0.4001   0.4105   0.9393     H
H       0.4225   0.3806   0.0366     H
C       0.4226   0.1302   0.1508     C
C       0.4332   0.5529   0.8172     C
C       0.4461   0.6634   0.6903     C
H       0.4486   0.1809   0.1098     H
C       0.4536   0.7803   0.5693     C
C       0.4572   0.0408   0.2667     C
O       0.4799   0.5345   0.8796     O
C       0.4924   0.2605    0.367     C
H       0.4936   0.9698   0.6978     H
O        0.494   0.1333   0.4559     O
C       0.4954   0.1136   0.2041     C
C       0.4985   0.6309    0.752     C
Mn         0.5      0.0      0.5    Mn
C       0.5015   0.3691    0.248     C
C       0.5046   0.8864   0.7959     C
O        0.506   0.8667   0.5441     O
H       0.5064   0.0302   0.3022     H
C       0.5076   0.7395    0.633     C
O       0.5201   0.4655   0.1204     O
C       0.5428   0.9592   0.7333     C
C       0.5464   0.2197   0.4307     C
H       0.5514   0.8191   0.8902     H
C       0.5539   0.3366   0.3097     C
C       0.5668   0.4471   0.1828     C
C       0.5774   0.8698   0.8492     C
H       0.5775   0.6194   0.9634     H
H       0.5999   0.5895   0.0607     H
O       0.6085   0.6297   0.0219     O
C       0.6117   0.6713   0.7542     C
C       0.6126    0.171   0.1962     C
O       0.6204   0.0966  0.59957     O
C       0.6208    0.781   0.6361     C
H       0.6298   0.3656   0.3125     H
O       0.6373   0.0232   0.4094     O
O       0.6416   0.2786   0.4556     O
H       0.6465   0.6492   0.7949     H
C       0.6539   0.0169   0.7227     C
H       0.6619   0.8328   0.5989     H
O       0.6672   0.5036   0.2059     O
H       0.6678   0.5439   0.2422     H
O       0.6716   0.4607   0.1681     O
C       0.6729   0.7454   0.6948     C
C       0.6896   0.9292   0.8411     C
C       0.6905   0.0948   0.6544     C
H       0.6967   0.4969   0.1257     H
H       0.6978   0.9575   0.2714     H
C       0.7095   0.2107   0.1963     C
O       0.7099   0.3214    0.648     O
O       0.7128   0.8393   0.1524     O
O       0.7219   0.8335   0.9457     O
C       0.7276   0.0028   0.7774     C
C       0.7342   0.0874   0.4032     C
H       0.7381   0.3065   0.6979     H
Mn     0.73892   0.2418  0.54103    Mn
H       0.7393   0.3808   0.6375     H
H       0.7607   0.6192   0.1375     H
Mn     0.76108   0.7582  0.04103    Mn
H       0.7619   0.6935   0.1979     H
C       0.7658   0.9126   0.9032     C
C       0.7724   0.9972   0.2774     C
O       0.7781   0.1665   0.4457     O
O       0.7872   0.1607   0.6524     O
O       0.7901   0.6786    0.148     O
C       0.7905   0.7893   0.6963     C
H       0.8022   0.0425   0.7714     H
H       0.8033   0.5031   0.6257     H
C       0.8095   0.9052   0.1544     C
C       0.8104   0.0708   0.3411     C
C       0.8271   0.2546   0.1948     C
O       0.8284   0.5393   0.6681     O
H       0.8322   0.4561   0.7422     H
O       0.8328   0.4964   0.7059     O
H       0.8381   0.1672   0.0989     H
C       0.8461   0.9831   0.2227     C
H       0.8535   0.3508   0.2949     H
O       0.8584   0.7214   0.9556     O
O       0.8627   0.9768   0.9094     O
H       0.8702   0.6344   0.8125     H
C       0.8792    0.219   0.1361     C
O       0.8796   0.9034  0.09957     O
C       0.8874    0.829   0.6962     C
C       0.8883   0.3287   0.2542     C
O       0.8915   0.3703   0.5219     O
H       0.9001   0.4105   0.5607     H
H       0.9225   0.3806   0.4634     H
C       0.9226   0.1302   0.3492     C
C       0.9332   0.5529   0.6828     C
C       0.9461   0.6634   0.8097     C
H       0.9486   0.1809   0.3902     H
C       0.9536   0.7803   0.9307     C
C       0.9572   0.0408   0.2333     C
O       0.9799   0.5345   0.6204     O
C       0.9924   0.2605    0.133     C
H       0.9936   0.9698   0.8022     H
O        0.994   0.1333   0.0441     O
C       0.9954   0.1136   0.2959     C
C       0.9985   0.6309    0.748     C
