data_I
_chemical_name_common  '/home/zhangsd/repos/MofS-CGCNN/ML/data/WS24/clean_cifs/KEWZOD'
_cell_length_a 11.44140
_cell_length_b 15.13090
_cell_length_c 18.08550
_cell_angle_alpha 90.00000
_cell_angle_beta  90.00000
_cell_angle_gamma 90.00000
_space_group_name_H-M_alt      'P 1'


loop_
_space_group_symop_operation_xyz
  'x, y, z' 

loop_
_atom_site_label
_atom_site_fract_x
_atom_site_fract_y
_atom_site_fract_z
_atom_site_type_symbol
C       0.0646   0.0556   0.4023     C
C       0.0646   0.4444   0.9023     C
C       0.0646   0.5556   0.0977     C
C       0.0646   0.9444   0.5977     C
H        0.088    0.171   0.4484     H
H        0.088    0.329   0.9484     H
H        0.088    0.671   0.0516     H
H        0.088    0.829   0.5516     H
H        0.092   0.0642   0.6369     H
H        0.092   0.4358   0.1369     H
H        0.092   0.5642   0.8631     H
H        0.092   0.9358   0.3631     H
C       0.1263   0.1217   0.4295     C
C       0.1263   0.3783   0.9295     C
C       0.1263   0.6217   0.0705     C
C       0.1263   0.8783   0.5705     C
C       0.1296   0.0133   0.6204     C
C       0.1296   0.4867   0.1204     C
C       0.1296   0.5133   0.8796     C
C       0.1296   0.9867   0.3796     C
C       0.2464   0.0113   0.6202     C
C       0.2464   0.4887   0.1202     C
C       0.2464   0.5113   0.8798     C
C       0.2464   0.9887   0.3798     C
C       0.2492   0.1189   0.4303     C
C       0.2492   0.3811   0.9303     C
C       0.2492   0.6189   0.0697     C
C       0.2492   0.8811   0.5697     C
H       0.2855   0.0596   0.6401     H
H       0.2855   0.4404   0.1401     H
H       0.2855   0.5596   0.8599     H
H       0.2855   0.9404   0.3599     H
H       0.2894    0.167   0.4497     H
H       0.2894    0.333   0.9497     H
H       0.2894    0.667   0.0503     H
H       0.2894    0.833   0.5503     H
N       0.3092   0.0527   0.4055     N
N       0.3092   0.4473   0.9055     N
N       0.3092   0.5527   0.0945     N
N       0.3092   0.9473   0.5945     N
C          0.5   0.0328   0.0187     C
H          0.5   0.0382   0.1635     H
Zn         0.5  0.05213  0.40158    Zn
O          0.5   0.0718   0.2936     O
O          0.5   0.0804   0.6002     O
C          0.5   0.0952   0.1443     C
C          0.5   0.1075   0.0661     C
O          0.5   0.1359   0.4865     O
C          0.5   0.1431   0.5553     C
C          0.5    0.151   0.2738     C
C          0.5   0.1661   0.1916     C
C          0.5    0.194   0.0386     C
H          0.5   0.1996    0.695     H
H          0.5   0.2034   0.9878     H
O          0.5   0.2116   0.3158     O
C          0.5   0.2349   0.5858     C
C          0.5   0.2479   0.6632     C
C          0.5   0.2521   0.1632     C
C          0.5   0.2651   0.0858     C
O          0.5   0.2884   0.8158     O
H          0.5   0.2966   0.4878     H
H          0.5   0.3004    0.195     H
C          0.5    0.306   0.5386     C
C          0.5   0.3339   0.6916     C
C          0.5    0.349   0.7738     C
C          0.5   0.3569   0.0553     C
O          0.5   0.3641   0.9865     O
C          0.5   0.3925   0.5661     C
C          0.5   0.4048   0.6443     C
O          0.5   0.4196   0.1002     O
O          0.5   0.4282   0.7936     O
Zn         0.5  0.44787  0.90158    Zn
H          0.5   0.4618   0.6635     H
C          0.5   0.4672   0.5187     C
C          0.5   0.5328   0.4813     C
H          0.5   0.5382   0.3365     H
Zn         0.5  0.55213  0.09842    Zn
O          0.5   0.5718   0.2064     O
O          0.5   0.5804   0.8998     O
C          0.5   0.5952   0.3557     C
C          0.5   0.6075   0.4339     C
O          0.5   0.6359   0.0135     O
C          0.5   0.6431   0.9447     C
C          0.5    0.651   0.2262     C
C          0.5   0.6661   0.3084     C
C          0.5    0.694   0.4614     C
H          0.5   0.6996    0.805     H
H          0.5   0.7034   0.5122     H
O          0.5   0.7116   0.1842     O
C          0.5   0.7349   0.9142     C
C          0.5   0.7479   0.8368     C
C          0.5   0.7521   0.3368     C
C          0.5   0.7651   0.4142     C
O          0.5   0.7884   0.6842     O
H          0.5   0.7966   0.0122     H
H          0.5   0.8004    0.305     H
C          0.5    0.806   0.9614     C
C          0.5   0.8339   0.8084     C
C          0.5    0.849   0.7262     C
C          0.5   0.8569   0.4447     C
O          0.5   0.8641   0.5135     O
C          0.5   0.8925   0.9339     C
C          0.5   0.9048   0.8557     C
O          0.5   0.9196   0.3998     O
O          0.5   0.9282   0.7064     O
Zn         0.5  0.94787  0.59842    Zn
H          0.5   0.9618   0.8365     H
C          0.5   0.9672   0.9813     C
N       0.6908   0.0527   0.4055     N
N       0.6908   0.4473   0.9055     N
N       0.6908   0.5527   0.0945     N
N       0.6908   0.9473   0.5945     N
H       0.7106    0.167   0.4497     H
H       0.7106    0.333   0.9497     H
H       0.7106    0.667   0.0503     H
H       0.7106    0.833   0.5503     H
H       0.7145   0.0596   0.6401     H
H       0.7145   0.4404   0.1401     H
H       0.7145   0.5596   0.8599     H
H       0.7145   0.9404   0.3599     H
C       0.7508   0.1189   0.4303     C
C       0.7508   0.3811   0.9303     C
C       0.7508   0.6189   0.0697     C
C       0.7508   0.8811   0.5697     C
C       0.7536   0.0113   0.6202     C
C       0.7536   0.4887   0.1202     C
C       0.7536   0.5113   0.8798     C
C       0.7536   0.9887   0.3798     C
C       0.8704   0.0133   0.6204     C
C       0.8704   0.4867   0.1204     C
C       0.8704   0.5133   0.8796     C
C       0.8704   0.9867   0.3796     C
C       0.8737   0.1217   0.4295     C
C       0.8737   0.3783   0.9295     C
C       0.8737   0.6217   0.0705     C
C       0.8737   0.8783   0.5705     C
H        0.908   0.0642   0.6369     H
H        0.908   0.4358   0.1369     H
H        0.908   0.5642   0.8631     H
H        0.908   0.9358   0.3631     H
H        0.912    0.171   0.4484     H
H        0.912    0.329   0.9484     H
H        0.912    0.671   0.0516     H
H        0.912    0.829   0.5516     H
C       0.9354   0.0556   0.4023     C
C       0.9354   0.4444   0.9023     C
C       0.9354   0.5556   0.0977     C
C       0.9354   0.9444   0.5977     C
