data_I
_chemical_name_common  '/home/zhangsd/repos/MofS-CGCNN/ML/data/WS24/clean_cifs/KEYNAF'
_cell_length_a  9.36123
_cell_length_b  9.36123
_cell_length_c 22.72100
_cell_angle_alpha 101.69564
_cell_angle_beta  101.69564
_cell_angle_gamma 90.91536
_space_group_name_H-M_alt      'P 1'


loop_
_space_group_symop_operation_xyz
  'x, y, z' 

loop_
_atom_site_label
_atom_site_fract_x
_atom_site_fract_y
_atom_site_fract_z
_atom_site_type_symbol
C      0.01413  0.98293  0.50546     C
C      0.02508  0.27768  0.04916     C
H       0.0327   0.2439   0.9286     H
O      0.04353  0.89513  0.74326     O
C       0.0473   0.6055   0.7502     C
N      0.04874  0.04854  0.61468     N
C       0.0529   0.4549    0.748     C
C       0.0636    0.688   0.2094     C
C       0.1042   0.2286   0.2906     C
O      0.11148  0.58588  0.17636     O
H       0.1153   0.6717   0.7786     H
H        0.127   0.4222    0.775     H
O      0.14264  0.33344  0.04568     O
O      0.14513  0.79353  0.24326     O
O      0.14857  0.89877  0.90434     O
O      0.14877  0.89857  0.40434     O
O      0.15187  0.30027  0.25674     O
C      0.16365  0.00505   0.5085     C
O      0.18512  0.15952  0.32364     O
C      0.19267  0.06847  0.61774     C
Na     0.19985  0.05371  0.83756    Na
H       0.2028   0.7002   0.9676     H
Na     0.21615  0.36229  0.16244    Na
C      0.22592  0.97852  0.45084     C
O      0.22655  0.13715   0.7281     O
C      0.22852  0.97592  0.95084     C
C      0.23293  0.76413  0.00546     C
H       0.2422   0.6122   0.0566     H
C      0.25384  0.04924  0.56708     C
C      0.25505  0.91365   0.0085     C
C       0.2564    0.712   0.0592     C
C      0.28674  0.11014  0.68208     C
O      0.28776  0.09696  0.95432     O
N      0.29854  0.79874  0.11468     N
C      0.29924  0.00384  0.06708     C
Na     0.30371  0.94985  0.33756    Na
H       0.3153   0.1041   0.0714     H
C      0.31847  0.94267  0.11774     C
Na      0.3402   0.3402      0.0    Na
O      0.34696  0.03776  0.45432     O
O      0.34754  0.48874  0.92308     O
H       0.3541   0.0653   0.5714     H
Cd    0.358628 0.710888 0.205776    Cd
C      0.36014  0.03674  0.18208     C
O      0.36355  0.27235   0.8633     O
O      0.36543  0.17203  0.18706     O
C      0.37492  0.41072  0.87604     C
H       0.3776   0.6926   0.8598     H
O      0.38715  0.97655   0.2281     O
Cd    0.402852 0.255112 0.294224    Cd
O      0.40905  0.49845   0.2719     O
O      0.40905  0.50025   0.1367     O
O      0.40952  0.93512  0.82364     O
O      0.42203  0.11543  0.68706     O
C      0.42264  0.63364  0.83168     C
C      0.42806  0.60466  0.31792     C
O      0.42837  0.73497  0.31294     O
C      0.43214  0.48434  0.83128     C
N      0.43386  0.43406  0.38532     N
H       0.4356   0.3056   0.4434     H
C       0.4472   0.4028   0.4408     C
C      0.45073  0.57493  0.38226     C
C      0.47747  0.50867  0.49454     C
C       0.4786   0.8542   0.7906     C
C      0.47997  0.69217  0.79034     C
C      0.48216  0.68676  0.43292     C
H       0.4852   0.4826   0.5324     H
H       0.4939   0.7827   0.4286     H
O      0.49423  0.74443  0.59566     O
C      0.49655  0.65515   0.4915     C
N       0.4985   0.3987   0.7912     N
Cd    0.505112 0.152852 0.794224    Cd
O      0.52235  0.11355   0.3633     O
C      0.52768  0.77508  0.54916     C
C      0.53468  0.49888  0.12396     C
C       0.5471   0.6053   0.7498     C
O      0.55027  0.90187  0.75674     O
C       0.5549   0.4569    0.752     C
H       0.5556   0.1856   0.9434     H
O      0.56566  0.42446  0.07692     O
O      0.58344  0.89264  0.54568     O
H       0.5867   0.6431   0.7214     H
Na      0.5902   0.0902      0.5    Na
H        0.602   0.3972    0.725     H
N       0.6075   0.7073   0.2088     N
Na     0.61229  0.96615  0.66244    Na
H       0.6472    0.352    0.225     H
N       0.6487   0.2485   0.2912     N
C       0.6528   0.1972   0.9408     C
C      0.65306  0.60086  0.16872     C
C      0.66072  0.12492  0.37604     C
H       0.6722    0.877    0.275     H
O      0.67446  0.31566  0.57692     O
N      0.68406  0.18386  0.88532     N
C       0.7049   0.8029    0.248     C
C       0.7069   0.3049    0.252     C
H       0.7326   0.2352   0.0324     H
C      0.73434  0.18214  0.33128     C
O      0.73874  0.09754  0.42308     O
O      0.74845  0.15905   0.7719     O
C      0.74888  0.28468  0.62396     C
O      0.75025  0.15905   0.6367     O
C      0.75867  0.22747  0.99454     C
H       0.7678   0.5828   0.6402     H
C      0.80196  0.59096  0.16832     C
C      0.82493  0.20073  0.88226     C
H       0.8328   0.5178   0.1402     H
O      0.83588  0.86148  0.67636     O
C      0.84096  0.55196  0.66832     C
C      0.85086  0.40306  0.66872     C
C      0.85466  0.17806  0.81792     C
C       0.8553   0.2971   0.2498     C
C       0.8555   0.7973   0.2502     C
H       0.8622   0.9922   0.5566     H
C      0.88364  0.17264  0.33168     C
H       0.8931   0.3367   0.2214     H
C      0.90183  0.68963  0.20966     C
C      0.90515  0.24655   0.9915     C
H       0.9217   0.8653   0.2786     H
C      0.93676  0.23216  0.93292     C
C        0.938   0.8136   0.7094     C
C      0.93963  0.65183  0.70966     C
C      0.94217  0.22997  0.29034     C
H       0.9426   0.1276   0.3598     H
H       0.9502   0.9528   0.4676     H
N       0.9573   0.3575   0.7088     N
Cd    0.960888 0.108628 0.705776    Cd
C        0.962   0.0064   0.5592     C
O      0.98497  0.17837  0.81294     O
O      0.99443  0.24423  0.09566     O
