data_I
_chemical_name_common  '/home/zhangsd/repos/MofS-CGCNN/ML/data/WS24/clean_cifs/KINKID'
_cell_length_a 10.88900
_cell_length_b 16.86400
_cell_length_c 29.72900
_cell_angle_alpha 90.00000
_cell_angle_beta  92.97600
_cell_angle_gamma 90.00000
_space_group_name_H-M_alt      'P 1'


loop_
_space_group_symop_operation_xyz
  'x, y, z' 

loop_
_atom_site_label
_atom_site_fract_x
_atom_site_fract_y
_atom_site_fract_z
_atom_site_type_symbol
C       0.0019   0.6868  0.66576     C
N       0.0026  0.46674   0.7335     N
N       0.0046  0.95622  0.74295     N
H       0.0067   0.6574   0.8353     H
H       0.0069   0.2732   0.8451     H
H       0.0074   0.4473   0.6495     H
C         0.01  0.72739  0.36471     C
C       0.0101  0.29788  0.25412     C
O       0.0114   0.6762  0.58609     O
C       0.0128  0.27093  0.68131     C
H       0.0136   0.9345   0.5056     H
H        0.025   0.6919   0.3009     H
C       0.0266  0.46436  0.85071     C
C       0.0289    0.226  0.55708     C
N       0.0295  0.52294  0.22687     N
H       0.0307     0.06   0.8123     H
C       0.0356    0.247  0.78069     C
H       0.0363   0.7295   0.2311     H
N       0.0382  0.85344  0.55694     N
N       0.0457  0.85575  0.03979     N
O      0.04717  0.18763   0.0655     O
C        0.048  0.22006  0.60751     C
C       0.0483   0.2981  0.38147     C
N       0.0497  0.98009  0.26356     N
O       0.0501  0.72823  0.45948     O
H       0.0526   0.2798   0.2298     H
C       0.0531  0.92264   0.5333     C
H       0.0532   0.5198    0.144     H
H       0.0588   0.9404   0.9908     H
C         0.06  0.28597  0.29749     C
C       0.0606  0.24783   0.8265     C
C        0.061  0.45571  0.80696     C
C        0.063  0.52439   0.3442     C
C        0.064  0.95086  0.78739     C
H       0.0652   0.6905   0.3773     H
H       0.0669    0.447   0.0079     H
C       0.0674  0.01139  0.81931     C
H       0.0693   0.1557   0.1482     H
H       0.0731   0.4454    0.476     H
H       0.0744   0.0801   0.3355     H
O       0.0779   0.6689  0.01749     O
Cd    0.081852 0.242065 0.988994    Cd
H       0.0846   0.4556   0.9161     H
C       0.0864   0.9228  0.01919     C
C       0.0869  0.50689  0.29992     C
C       0.0919  0.21438  0.70186     C
C       0.0921  0.65758  0.83839     C
H       0.0977   0.8128   0.1003     H
O       0.1012  0.18413  0.53461     O
H        0.102   0.6573   0.9062     H
C        0.102  0.66374  0.75386     C
C       0.1064  0.97259  0.30823     C
C       0.1072  0.85252  0.07907     C
Cd    0.107227 0.241063 0.465337    Cd
C       0.1087  0.03051  0.34167     C
C       0.1087  0.44987  0.88669     C
C       0.1099  0.85967  0.59341     C
C       0.1114  0.64621  0.67343     C
C       0.1158  0.21168  0.75132     C
H        0.117    0.668   0.0405     H
H       0.1188   0.8208   0.6155     H
H       0.1215   0.8397   0.7757     H
C       0.1222  0.87973   0.7972     C
C       0.1236  0.42751  0.50004     C
C       0.1249  0.42652  0.02889     C
C        0.125  0.99962   0.8614     C
H       0.1261   0.0397   0.8829     H
C       0.1262  0.16372  0.62756     C
H       0.1276   0.5127   0.4088     H
H         0.13    0.673   0.9956     H
O       0.1326  0.25798  0.91849     O
C       0.1335  0.97098  0.55612     C
H       0.1347   0.2598    0.302     H
H       0.1417   0.5247   0.5416     H
C       0.1432  0.50009  0.37916     C
O      0.14462  0.25735  0.38733     O
C       0.1467  0.16018  0.67364     C
C       0.1494  0.65787  0.88107     C
H       0.1521   0.6263   0.6491     H
C       0.1547  0.15664   0.1514     C
C       0.1589   0.1704   0.0679     C
H        0.159   0.0211   0.5475     H
H       0.1591   0.9104   0.6811     H
H       0.1592    0.899   0.1705     H
C       0.1601  0.65749  0.79993     C
H       0.1604   0.8615   0.2944     H
C       0.1604  0.89973  0.31698     C
C       0.1606  0.47184  0.53628     C
C       0.1613  0.63485  0.71657     C
C       0.1619  0.01458  0.38424     C
H       0.1628    0.053   0.4067     H
H       0.1642   0.1538    0.219     H
H       0.1655   0.1277   0.6095     H
C       0.1658   0.2109  0.84523     C
H       0.1664    0.521   0.0701     H
N       0.1679  0.34912  0.02922     N
N       0.1699  0.93041  0.59483     N
N       0.1713  0.35238  0.50401     N
C       0.1727  0.95972  0.04618     C
C       0.1787   0.4299  0.79883     C
C       0.1788  0.46789  0.06325     C
C       0.1809  0.92735  0.87106     C
C       0.1816  0.86789  0.83893     C
N       0.1861  0.91432  0.08462     N
H       0.1871    0.647   0.1714     H
C       0.1915  0.46408  0.29073     C
C       0.1932  0.20995  0.89538     C
H       0.1979    0.121   0.6862     H
H       0.2018   0.4222   0.7695     H
H       0.2078   0.4522   0.2611     H
O       0.2081  0.67369  0.53349     O
H       0.2085   0.7995    0.928     H
C       0.2118  0.15567  0.19394     C
C       0.2136  0.94044  0.39263     C
H       0.2144   0.0063     0.04     H
C       0.2145  0.88308  0.35899     C
C       0.2194  0.17458  0.77073     C
H       0.2217   0.8202   0.8454     H
H       0.2227    0.807   0.4458     H
C       0.2234    0.159  0.11329     C
O      0.22349  0.16781  0.03347     O
H       0.2259   0.6499   0.2478     H
O       0.2269  0.66274  0.08976     O
C        0.227  0.42675  0.87843     C
C       0.2291  0.93912  0.67485     C
N       0.2322  0.42228  0.56369     N
C       0.2352  0.35117  0.54266     C
H       0.2352   0.6076   0.7209     H
C       0.2386   0.9159  0.16524     C
N       0.2433  0.91509  0.91381     N
C       0.2436  0.17336  0.81666     C
C       0.2465  0.45696  0.36971     C
C       0.2472  0.34486  0.06377     C
H       0.2489   0.3341   0.6353     H
H       0.2511   0.8341   0.3647     H
C       0.2528  0.84486  0.93623     C
C       0.2535  0.95696  0.63029     C
C       0.2564  0.67336  0.18334     C
N       0.2567  0.41509  0.08619     N
C       0.2614   0.4159  0.83476     C
H       0.2648   0.1076   0.2791     H
C       0.2648  0.85117  0.45734     C
N       0.2678  0.92228  0.43631     N
C       0.2709  0.43912  0.32515     C
C        0.273  0.92675  0.12157     C
O       0.2731  0.16274  0.91024     O
H       0.2741   0.1499   0.7522     H
O      0.27651  0.66781  0.96653     O
C       0.2766    0.659  0.88671     C
H       0.2773    0.307   0.5542     H
H       0.2783   0.3202   0.1546     H
C       0.2806  0.67458  0.22927     C
C       0.2855  0.38308  0.64101     C
H       0.2856   0.5063     0.96     H
C       0.2864  0.44044  0.60737     C
C       0.2882  0.65567  0.80606     C
H       0.2915   0.2995    0.072     H
O       0.2919  0.17369  0.46651     O
H       0.2922   0.9522   0.7389     H
H       0.2982   0.9222   0.2305     H
H       0.3021    0.621   0.3138     H
C       0.3068  0.70995  0.10462     C
C       0.3085  0.96408  0.70927     C
H       0.3129    0.147   0.8286     H
N       0.3139  0.41432  0.91538     N
C       0.3184  0.36789  0.16107     C
C       0.3191  0.42735  0.12894     C
C       0.3212  0.96789  0.93675     C
C       0.3213   0.9299  0.20117     C
C       0.3273  0.45972  0.95382     C
N       0.3287  0.85238  0.49599     N
N       0.3301  0.43041  0.40517     N
N       0.3321  0.84912  0.97078     N
H       0.3336    0.021   0.9299     H
C       0.3342   0.7109  0.15477     C
H       0.3345   0.6277   0.3905     H
H       0.3358   0.6538    0.781     H
H       0.3372    0.553   0.5933     H
C       0.3381  0.51458  0.61576     C
C       0.3387  0.13485  0.28343     C
C       0.3394  0.97184  0.46372     C
H       0.3396   0.3615   0.7056     H
C       0.3396  0.39973  0.68302     C
C       0.3399  0.15749  0.20007     C
H       0.3408    0.399   0.8295     H
H       0.3409   0.4104   0.3189     H
H        0.341   0.5211   0.4525     H
C       0.3411   0.6704   0.9321     C
C       0.3453  0.65664   0.8486     C
H       0.3479   0.1263   0.3509     H
C       0.3506  0.15787  0.11893     C
C       0.3533  0.66018  0.32636     C
O      0.35538  0.75735  0.61267     O
C       0.3568    9e-05  0.62084     C
H       0.3583   0.0247   0.4584     H
H       0.3653   0.7598    0.698     H
C       0.3665  0.47098  0.44388     C
O       0.3674  0.75798  0.08151     O
H         0.37    0.173   0.0044     H
H       0.3724   0.0127   0.5912     H
C       0.3738  0.66372  0.37244     C
H       0.3739   0.5397   0.1171     H
C        0.375  0.49962   0.1386     C
C       0.3751  0.92652  0.97111     C
C       0.3764  0.92751  0.49996     C
C       0.3778  0.37973   0.2028     C
H       0.3785   0.3397   0.2243     H
H       0.3812   0.3208   0.3845     H
H        0.383    0.168   0.9595     H
C       0.3842  0.71168  0.24868     C
C       0.3886  0.14621  0.32657     C
C       0.3901  0.35967  0.40659     C
C       0.3913  0.53051  0.65833     C
C       0.3913  0.94987  0.11331     C
Cd    0.392773 0.741063 0.534663    Cd
C       0.3928  0.35252  0.92093     C
C       0.3936  0.47259  0.69177     C
H        0.398   0.1573   0.0938     H
C        0.398  0.16374  0.24614     C
O       0.3988  0.68413  0.46539     O
H       0.4023   0.3128   0.8997     H
C       0.4079  0.15758  0.16161     C
C       0.4081  0.71438  0.29814     C
C       0.4131  0.00689  0.70008     C
C       0.4136   0.4228  0.98081     C
H       0.4154   0.9556   0.0839     H
Cd    0.418148 0.742065 0.011006    Cd
O       0.4221   0.1689  0.98251     O
H       0.4256   0.5801   0.6645     H
H       0.4269   0.9454    0.524     H
H       0.4307   0.6557   0.8518     H
C       0.4326  0.51139  0.18069     C
H       0.4331    0.947   0.9921     H
H       0.4348   0.1905   0.6227     H
C        0.436  0.45086  0.21261     C
C        0.437  0.02439   0.6558     C
C        0.439  0.95571  0.19304     C
C       0.4394  0.74783   0.1735     C
C         0.44  0.78597  0.70251     C
H       0.4412   0.4404   0.0092     H
H       0.4468   0.0198    0.856     H
C       0.4469  0.42264   0.4667     C
H       0.4474   0.7798   0.7702     H
O       0.4499  0.22823  0.54052     O
N       0.4503  0.48009  0.73644     N
C       0.4517   0.7981  0.61853     C
C        0.452  0.72006  0.39249     C
O      0.45283  0.68763   0.9345     O
N       0.4543  0.35575  0.96021     N
N       0.4618  0.35344  0.44306     N
H       0.4637   0.2295   0.7689     H
C       0.4644    0.747  0.21931     C
H       0.4693     0.56   0.1877     H
N       0.4705  0.02294  0.77313     N
C       0.4711    0.726  0.44292     C
C       0.4734  0.96436  0.14929     C
H        0.475   0.1919   0.6991     H
H       0.4864   0.4345   0.4944     H
C       0.4872  0.77093  0.31869     C
O       0.4886   0.1762  0.41391     O
C       0.4899  0.79788  0.74588     C
C         0.49  0.22739  0.63529     C
H       0.4926   0.9473   0.3505     H
H       0.4931   0.7732   0.1549     H
H       0.4933   0.1574   0.1647     H
N       0.4954  0.45622  0.25705     N
N       0.4974  0.96674   0.2665     N
C       0.4981   0.1868  0.33424     C
C       0.5019   0.8132  0.66576     C
N       0.5026  0.03326   0.7335     N
N       0.5046  0.54378  0.74295     N
H       0.5067   0.8426   0.8353     H
H       0.5069   0.2268   0.8451     H
H       0.5074   0.0527   0.6495     H
C         0.51  0.77261  0.36471     C
C       0.5101  0.20212  0.25412     C
O       0.5114   0.8238  0.58609     O
C       0.5128  0.22907  0.68131     C
H       0.5136   0.5655   0.5056     H
H        0.525   0.8081   0.3009     H
C       0.5266  0.03564  0.85071     C
C       0.5289    0.274  0.55708     C
N       0.5295  0.97706  0.22687     N
H       0.5307     0.44   0.8123     H
C       0.5356    0.253  0.78069     C
H       0.5363   0.7705   0.2311     H
N       0.5382  0.64656  0.55694     N
N       0.5457  0.64425  0.03979     N
O      0.54717  0.31237   0.0655     O
C        0.548  0.27994  0.60751     C
C       0.5483   0.2019  0.38147     C
N       0.5497  0.51991  0.26356     N
O       0.5501  0.77177  0.45948     O
H       0.5526   0.2202   0.2298     H
C       0.5531  0.57736   0.5333     C
H       0.5532   0.9802    0.144     H
H       0.5588   0.5596   0.9908     H
C         0.56  0.21403  0.29749     C
C       0.5606  0.25217   0.8265     C
C        0.561  0.04429  0.80696     C
C        0.563  0.97561   0.3442     C
C        0.564  0.54914  0.78739     C
H       0.5652   0.8095   0.3773     H
H       0.5669    0.053   0.0079     H
C       0.5674  0.48861  0.81931     C
H       0.5693   0.3443   0.1482     H
H       0.5731   0.0546    0.476     H
H       0.5744   0.4199   0.3355     H
O       0.5779   0.8311  0.01749     O
Cd    0.581852 0.257935 0.988994    Cd
H       0.5846   0.0444   0.9161     H
C       0.5864   0.5772  0.01919     C
C       0.5869  0.99311  0.29992     C
C       0.5919  0.28562  0.70186     C
C       0.5921  0.84242  0.83839     C
H       0.5977   0.6872   0.1003     H
O       0.6012  0.31587  0.53461     O
C        0.602  0.83626  0.75386     C
H        0.602   0.8427   0.9062     H
C       0.6064  0.52741  0.30823     C
C       0.6072  0.64748  0.07907     C
Cd    0.607227 0.258937 0.465337    Cd
C       0.6087  0.05013  0.88669     C
C       0.6087  0.46949  0.34167     C
C       0.6099  0.64033  0.59341     C
C       0.6114  0.85379  0.67343     C
C       0.6158  0.28832  0.75132     C
H        0.617    0.832   0.0405     H
H       0.6188   0.6792   0.6155     H
H       0.6215   0.6603   0.7757     H
C       0.6222  0.62027   0.7972     C
C       0.6236  0.07249  0.50004     C
C       0.6249  0.07348  0.02889     C
C        0.625  0.50038   0.8614     C
H       0.6261   0.4603   0.8829     H
C       0.6262  0.33628  0.62756     C
H       0.6276   0.9873   0.4088     H
H         0.63    0.827   0.9956     H
O       0.6326  0.24202  0.91849     O
C       0.6335  0.52902  0.55612     C
H       0.6347   0.2402    0.302     H
H       0.6417   0.9753   0.5416     H
C       0.6432  0.99991  0.37916     C
O      0.64462  0.24265  0.38733     O
C       0.6467  0.33982  0.67364     C
C       0.6494  0.84213  0.88107     C
H       0.6521   0.8737   0.6491     H
C       0.6547  0.34336   0.1514     C
C       0.6589   0.3296   0.0679     C
H        0.659   0.4789   0.5475     H
H       0.6591   0.5896   0.6811     H
H       0.6592    0.601   0.1705     H
C       0.6601  0.84251  0.79993     C
C       0.6604  0.60027  0.31698     C
H       0.6604   0.6385   0.2944     H
C       0.6606  0.02816  0.53628     C
C       0.6613  0.86515  0.71657     C
C       0.6619  0.48542  0.38424     C
H       0.6628    0.447   0.4067     H
H       0.6642   0.3462    0.219     H
H       0.6655   0.3723   0.6095     H
C       0.6658   0.2891  0.84523     C
H       0.6664    0.979   0.0701     H
N       0.6679  0.15088  0.02922     N
N       0.6699  0.56959  0.59483     N
N       0.6713  0.14762  0.50401     N
C       0.6727  0.54028  0.04618     C
C       0.6787   0.0701  0.79883     C
C       0.6788  0.03211  0.06325     C
C       0.6809  0.57265  0.87106     C
C       0.6816  0.63211  0.83893     C
N       0.6861  0.58568  0.08462     N
H       0.6871    0.853   0.1714     H
C       0.6915  0.03592  0.29073     C
C       0.6932  0.29005  0.89538     C
H       0.6979    0.379   0.6862     H
H       0.7018   0.0778   0.7695     H
H       0.7078   0.0478   0.2611     H
O       0.7081  0.82631  0.53349     O
H       0.7085   0.7005    0.928     H
C       0.7118  0.34433  0.19394     C
C       0.7136  0.55956  0.39263     C
H       0.7144   0.4937     0.04     H
C       0.7145  0.61692  0.35899     C
C       0.7194  0.32542  0.77073     C
H       0.7217   0.6798   0.8454     H
H       0.7227    0.693   0.4458     H
C       0.7234    0.341  0.11329     C
O      0.72349  0.33219  0.03347     O
H       0.7259   0.8501   0.2478     H
O       0.7269  0.83726  0.08976     O
C        0.727  0.07325  0.87843     C
C       0.7291  0.56088  0.67485     C
N       0.7322  0.07772  0.56369     N
C       0.7352  0.14883  0.54266     C
H       0.7352   0.8924   0.7209     H
C       0.7386   0.5841  0.16524     C
N       0.7433  0.58491  0.91381     N
C       0.7436  0.32664  0.81666     C
C       0.7465  0.04304  0.36971     C
C       0.7472  0.15514  0.06377     C
H       0.7489   0.1659   0.6353     H
H       0.7511   0.6659   0.3647     H
C       0.7528  0.65514  0.93623     C
C       0.7535  0.54304  0.63029     C
C       0.7564  0.82664  0.18334     C
N       0.7567  0.08491  0.08619     N
C       0.7614   0.0841  0.83476     C
H       0.7648   0.3924   0.2791     H
C       0.7648  0.64883  0.45734     C
N       0.7678  0.57772  0.43631     N
C       0.7709  0.06088  0.32515     C
C        0.773  0.57325  0.12157     C
O       0.7731  0.33726  0.91024     O
H       0.7741   0.3501   0.7522     H
O      0.77651  0.83219  0.96653     O
C       0.7766    0.841  0.88671     C
H       0.7773    0.193   0.5542     H
H       0.7783   0.1798   0.1546     H
C       0.7806  0.82542  0.22927     C
C       0.7855  0.11692  0.64101     C
H       0.7856   0.9937     0.96     H
C       0.7864  0.05956  0.60737     C
C       0.7882  0.84433  0.80606     C
H       0.7915   0.2005    0.072     H
O       0.7919  0.32631  0.46651     O
H       0.7922   0.5478   0.7389     H
H       0.7982   0.5778   0.2305     H
H       0.8021    0.879   0.3138     H
C       0.8068  0.79005  0.10462     C
C       0.8085  0.53592  0.70927     C
H       0.8129    0.353   0.8286     H
N       0.8139  0.08568  0.91538     N
C       0.8184  0.13211  0.16107     C
C       0.8191  0.07265  0.12894     C
C       0.8212  0.53211  0.93675     C
C       0.8213   0.5701  0.20117     C
C       0.8273  0.04028  0.95382     C
N       0.8287  0.64762  0.49599     N
N       0.8301  0.06959  0.40517     N
N       0.8321  0.65088  0.97078     N
H       0.8336    0.479   0.9299     H
C       0.8342   0.7891  0.15477     C
H       0.8345   0.8723   0.3905     H
H       0.8358   0.8462    0.781     H
H       0.8372    0.947   0.5933     H
C       0.8381  0.98542  0.61576     C
C       0.8387  0.36515  0.28343     C
C       0.8394  0.52816  0.46372     C
C       0.8396  0.10027  0.68302     C
H       0.8396   0.1385   0.7056     H
C       0.8399  0.34251  0.20007     C
H       0.8408    0.101   0.8295     H
H       0.8409   0.0896   0.3189     H
H        0.841   0.9789   0.4525     H
C       0.8411   0.8296   0.9321     C
C       0.8453  0.84336   0.8486     C
H       0.8479   0.3737   0.3509     H
C       0.8506  0.34213  0.11893     C
C       0.8533  0.83982  0.32636     C
O      0.85538  0.74265  0.61267     O
C       0.8568  0.49991  0.62084     C
H       0.8583   0.4753   0.4584     H
H       0.8653   0.7402    0.698     H
C       0.8665  0.02902  0.44388     C
O       0.8674  0.74202  0.08151     O
H         0.87    0.327   0.0044     H
H       0.8724   0.4873   0.5912     H
C       0.8738  0.83628  0.37244     C
H       0.8739   0.9603   0.1171     H
C        0.875  0.00038   0.1386     C
C       0.8751  0.57348  0.97111     C
C       0.8764  0.57249  0.49996     C
C       0.8778  0.12027   0.2028     C
H       0.8785   0.1603   0.2243     H
H       0.8812   0.1792   0.3845     H
H        0.883    0.332   0.9595     H
C       0.8842  0.78832  0.24868     C
C       0.8886  0.35379  0.32657     C
C       0.8901  0.14033  0.40659     C
C       0.8913  0.55013  0.11331     C
C       0.8913  0.96949  0.65833     C
Cd    0.892773 0.758937 0.534663    Cd
C       0.8928  0.14748  0.92093     C
C       0.8936  0.02741  0.69177     C
C        0.898  0.33626  0.24614     C
H        0.898   0.3427   0.0938     H
O       0.8988  0.81587  0.46539     O
H       0.9023   0.1872   0.8997     H
C       0.9079  0.34242  0.16161     C
C       0.9081  0.78562  0.29814     C
C       0.9131  0.49311  0.70008     C
C       0.9136   0.0772  0.98081     C
H       0.9154   0.5444   0.0839     H
Cd    0.918148 0.757935 0.011006    Cd
O       0.9221   0.3311  0.98251     O
H       0.9256   0.9199   0.6645     H
H       0.9269   0.5546    0.524     H
H       0.9307   0.8443   0.8518     H
C       0.9326  0.98861  0.18069     C
H       0.9331    0.553   0.9921     H
H       0.9348   0.3095   0.6227     H
C        0.936  0.04914  0.21261     C
C        0.937  0.47561   0.6558     C
C        0.939  0.54429  0.19304     C
C       0.9394  0.75217   0.1735     C
C         0.94  0.71403  0.70251     C
H       0.9412   0.0596   0.0092     H
H       0.9468   0.4802    0.856     H
C       0.9469  0.07736   0.4667     C
H       0.9474   0.7202   0.7702     H
O       0.9499  0.27177  0.54052     O
N       0.9503  0.01991  0.73644     N
C       0.9517   0.7019  0.61853     C
C        0.952  0.77994  0.39249     C
O      0.95283  0.81237   0.9345     O
N       0.9543  0.14425  0.96021     N
N       0.9618  0.14656  0.44306     N
H       0.9637   0.2705   0.7689     H
C       0.9644    0.753  0.21931     C
H       0.9693     0.94   0.1877     H
N       0.9705  0.47706  0.77313     N
C       0.9711    0.774  0.44292     C
C       0.9734  0.53564  0.14929     C
H        0.975   0.3081   0.6991     H
H       0.9864   0.0655   0.4944     H
C       0.9872  0.72907  0.31869     C
O       0.9886   0.3238  0.41391     O
C       0.9899  0.70212  0.74588     C
C         0.99  0.27261  0.63529     C
H       0.9926   0.5527   0.3505     H
H       0.9931   0.7268   0.1549     H
H       0.9933   0.3426   0.1647     H
N       0.9954  0.04378  0.25705     N
N       0.9974  0.53326   0.2665     N
C       0.9981   0.3132  0.33424     C
