data_I
_chemical_name_common  '/home/zhangsd/repos/MofS-CGCNN/ML/data/WS24/clean_cifs/KIYHOR'
_cell_length_a 10.37290
_cell_length_b 12.83440
_cell_length_c 17.53870
_cell_angle_alpha 93.84900
_cell_angle_beta  90.00000
_cell_angle_gamma 90.00000
_space_group_name_H-M_alt      'P 1'


loop_
_space_group_symop_operation_xyz
  'x, y, z' 

loop_
_atom_site_label
_atom_site_fract_x
_atom_site_fract_y
_atom_site_fract_z
_atom_site_type_symbol
H       0.0052   0.1293   0.5955     H
C       0.0052  0.31581  0.88587     C
H       0.0099   0.6851   0.7423     H
O      0.01645  0.30628  0.66731     O
C        0.026   0.8161  0.43537     C
H       0.0322   0.9438     0.84     H
H       0.0393    0.482   0.5594     H
C       0.0411  0.90509  0.88265     C
N      0.04137  0.64536   0.1758     N
H       0.0455   0.2057   0.5338     H
C       0.0488  0.16155  0.00278     C
Co     0.05375  0.43431 0.740657    Co
C       0.0607   0.3466  0.28238     C
C       0.0621  0.10647  0.06788     C
C       0.0685    0.723  0.38202     C
C        0.069  0.79443  0.01179     C
N      0.08523  0.74048   0.0795     N
N      0.08844   0.4513   0.2841     N
H       0.0892   0.3257   0.9034     H
H       0.0898    0.001   0.3866     H
H       0.0987   0.4455   0.1151     H
H       0.1039   0.7565    0.567     H
H        0.118   0.1685   0.9698     H
C       0.1204   0.5019  0.57765     C
C       0.1291   0.8606  0.48748     C
O      0.14192  0.54792  0.82494     O
H       0.1453   0.5334    0.009     H
C       0.1501  0.29626  0.32139     C
H       0.1528   0.2252   0.3287     H
C       0.1554    0.812  0.55418     C
C       0.1565  0.85809  0.89813     C
N      0.16326  0.49202  0.65091     N
C       0.1664   0.6798  0.18198     C
H       0.1677   0.0318   0.1966     H
C       0.1684   0.4252  0.08424     C
C       0.1722  0.80239  0.96247     C
O       0.1752  0.68274  0.38966     O
C       0.1776   0.0126  0.40421     C
N      0.18273  0.06157  0.08447     N
H       0.1866   0.0861   0.4202     H
C       0.1948  0.46311  0.32401     C
C       0.1953   0.7385  0.12299     C
C       0.1963   0.4768  0.02032     C
C       0.2025  0.94803  0.47187     C
H       0.2085   0.5601   0.4853     H
C       0.2134   0.5448  0.53631     C
C       0.2196   0.0286  0.15328     C
H       0.2229    0.665    0.221     H
H       0.2265   0.2708   0.6138     H
H       0.2292   0.3091    0.146     H
C       0.2298  0.48507  0.83871     C
H       0.2363   0.5267   0.3343     H
N      0.23662   0.3708  0.34841     N
O      0.24031  0.40009  0.80019     O
C       0.2448   0.3434  0.10184     C
H       0.2493   0.2709   0.4724     H
H       0.2507   0.7709   0.9724     H
C       0.2552   0.8434  0.60184     C
O      0.25969  0.90009  0.30019     O
N      0.26338   0.8708  0.84841     N
H       0.2637   0.0267   0.8343     H
C       0.2702  0.98507  0.33871     C
H       0.2708   0.8091    0.646     H
H       0.2735   0.7708   0.1138     H
H       0.2771    0.165    0.721     H
C       0.2804   0.5286  0.65328     C
C       0.2866   0.0448  0.03631     C
H       0.2915   0.0601   0.9853     H
C       0.2975  0.44803  0.97187     C
C       0.3037   0.9768  0.52032     C
C       0.3047   0.2385  0.62299     C
C       0.3052  0.96311  0.82401     C
H       0.3134   0.5861   0.9202     H
N      0.31727  0.56157  0.58447     N
C       0.3224   0.5126  0.90421     C
O       0.3248  0.18274  0.88966     O
C       0.3278  0.30239  0.46247     C
C       0.3316   0.9252  0.58424     C
H       0.3323   0.5318   0.6966     H
C       0.3336   0.1798  0.68198     C
N      0.33674  0.99202  0.15091     N
C       0.3435  0.35809  0.39813     C
C       0.3446    0.312  0.05418     C
H       0.3472   0.7252   0.8287     H
C       0.3499  0.79626  0.82139     C
H       0.3547   0.0334    0.509     H
O      0.35808  0.04792  0.32494     O
C       0.3709   0.3606  0.98748     C
C       0.3796   0.0019  0.07765     C
H        0.382   0.6685   0.4698     H
H       0.3961   0.2565    0.067     H
H       0.4013   0.9455   0.6151     H
H       0.4102    0.501   0.8866     H
H       0.4108   0.8257   0.4034     H
N      0.41156   0.9513   0.7841     N
N      0.41477  0.24048   0.5795     N
C        0.431  0.29443  0.51179     C
C       0.4315    0.223  0.88202     C
C       0.4379  0.60647  0.56788     C
C       0.4393   0.8466  0.78238     C
Co     0.44625  0.93431 0.240657    Co
C       0.4512  0.66155  0.50278     C
H       0.4545   0.7057   0.0338     H
N      0.45863  0.14536   0.6758     N
C       0.4589  0.40509  0.38265     C
H       0.4607    0.982   0.0594     H
H       0.4678   0.4438     0.34     H
C        0.474   0.3161  0.93537     C
O      0.48355  0.80628  0.16731     O
H       0.4901   0.1851   0.2423     H
H       0.4948   0.6293   0.0955     H
C       0.4948  0.81581  0.38587     C
C       0.5052  0.18419  0.61413     C
H       0.5052   0.3707   0.9045     H
H       0.5099   0.8149   0.7577     H
O      0.51645  0.19372  0.83269     O
C        0.526   0.6839  0.06463     C
H       0.5322   0.5562     0.66     H
H       0.5393    0.018   0.9406     H
C       0.5411  0.59491  0.61735     C
N      0.54137  0.85464   0.3242     N
H       0.5455   0.2943   0.9662     H
C       0.5488  0.33845  0.49722     C
Co     0.55375  0.06569 0.759343    Co
C       0.5607   0.1534  0.21762     C
C       0.5621  0.39353  0.43212     C
C       0.5685    0.777  0.11798     C
C        0.569  0.70557  0.48821     C
N      0.58523  0.75952   0.4205     N
N      0.58844   0.0487   0.2159     N
H       0.5892   0.1743   0.5966     H
H       0.5898    0.499   0.1134     H
H       0.5987   0.0545   0.3849     H
H       0.6039   0.7435    0.933     H
H        0.618   0.3315   0.5302     H
C       0.6204   0.9981  0.92235     C
C       0.6291   0.6394  0.01252     C
O      0.64192  0.95208  0.67506     O
H       0.6453   0.9666    0.491     H
C       0.6501  0.20374  0.17861     C
H       0.6528   0.2748   0.1713     H
C       0.6554    0.688  0.94582     C
C       0.6565  0.64191  0.60187     C
N      0.66326  0.00798  0.84909     N
C       0.6664   0.8202  0.31802     C
H       0.6677   0.4682   0.3034     H
C       0.6684   0.0748  0.41576     C
C       0.6722  0.69761  0.53753     C
O       0.6752  0.81726  0.11034     O
C       0.6776   0.4874  0.09579     C
N      0.68273  0.43843  0.41553     N
H       0.6866   0.4139   0.0798     H
C       0.6948  0.03689  0.17599     C
C       0.6953   0.7615  0.37701     C
C       0.6963   0.0232  0.47968     C
C       0.7025  0.55197  0.02813     C
H       0.7085   0.9399   0.0147     H
C       0.7134   0.9552  0.96369     C
C       0.7196   0.4714  0.34672     C
H       0.7229    0.835    0.279     H
H       0.7265   0.2292   0.8862     H
H       0.7292   0.1909    0.354     H
C       0.7298  0.01493  0.66129     C
H       0.7363   0.9733   0.1657     H
N      0.73662   0.1292  0.15159     N
O      0.74031  0.09991  0.69981     O
C       0.7448   0.1566  0.39816     C
H       0.7493   0.2291   0.0276     H
H       0.7507   0.7291   0.5276     H
C       0.7552   0.6566  0.89816     C
O      0.75969  0.59991  0.19981     O
N      0.76338   0.6292  0.65159     N
H       0.7637   0.4733   0.6657     H
C       0.7702  0.51493  0.16129     C
H       0.7708   0.6909    0.854     H
H       0.7735   0.7292   0.3862     H
H       0.7771    0.335    0.779     H
C       0.7804   0.9714  0.84672     C
C       0.7866   0.4552  0.46369     C
H       0.7915   0.4399   0.5147     H
C       0.7975  0.05197  0.52813     C
C       0.8037   0.5232  0.97968     C
C       0.8047   0.2615  0.87701     C
C       0.8052  0.53689  0.67599     C
H       0.8134   0.9139   0.5798     H
N      0.81727  0.93843  0.91553     N
C       0.8224   0.9874  0.59579     C
O       0.8248  0.31726  0.61034     O
C       0.8278  0.19761  0.03753     C
C       0.8316   0.5748  0.91576     C
H       0.8323   0.9682   0.8034     H
C       0.8336   0.3202  0.81802     C
N      0.83674  0.50798  0.34909     N
C       0.8435  0.14191  0.10187     C
C       0.8446    0.188  0.44582     C
H       0.8472   0.7748   0.6713     H
C       0.8499  0.70374  0.67861     C
H       0.8547   0.4666    0.991     H
O      0.85808  0.45208  0.17506     O
C       0.8709   0.1394  0.51252     C
C       0.8796   0.4981  0.42235     C
H        0.882   0.8315   0.0302     H
H       0.8961   0.2435    0.433     H
H       0.9013   0.5545   0.8849     H
H       0.9102    0.999   0.6134     H
H       0.9108   0.6743   0.0966     H
N      0.91156   0.5487   0.7159     N
N      0.91477  0.25952   0.9205     N
C        0.931  0.20557  0.98821     C
C       0.9315    0.277  0.61798     C
C       0.9379  0.89353  0.93212     C
C       0.9393   0.6534  0.71762     C
Co     0.94625  0.56569 0.259343    Co
C       0.9512  0.83845  0.99722     C
H       0.9545   0.7943   0.4662     H
N      0.95863  0.35464   0.8242     N
C       0.9589  0.09491  0.11735     C
H       0.9607    0.518   0.4406     H
H       0.9678   0.0562     0.16     H
C        0.974   0.1839  0.56463     C
O      0.98355  0.69372  0.33269     O
H       0.9901   0.3149   0.2577     H
C       0.9948  0.68419  0.11413     C
H       0.9948   0.8707   0.4045     H
