data_I
_chemical_name_common  '/home/zhangsd/repos/MofS-CGCNN/ML/data/WS24/clean_cifs/KOBFIR'
_cell_length_a 12.67510
_cell_length_b 12.67510
_cell_length_c 32.24300
_cell_angle_alpha 90.00000
_cell_angle_beta  90.00000
_cell_angle_gamma 120.00000
_space_group_name_H-M_alt      'P 1'


loop_
_space_group_symop_operation_xyz
  'x, y, z' 

loop_
_atom_site_label
_atom_site_fract_x
_atom_site_fract_y
_atom_site_fract_z
_atom_site_type_symbol
Cd         0.0      0.0      0.0    Cd
Cd         0.0      0.0      0.5    Cd
H       0.0001   0.6425   0.8183     H
C      0.01397  0.40093  0.50873     C
H      0.02417  0.69093  0.15163     H
H      0.02427  0.33343  0.51503     H
N      0.03591  0.15919  0.04544     N
C         0.04   0.2752   0.1109     C
C       0.0407   0.2139  0.07478     C
C      0.04833  0.60137  0.52756     C
C      0.05363  0.31937  0.84207     C
C      0.05787  0.58553  0.21395     C
C      0.05813  0.43147  0.77757     C
C      0.06093  0.49987  0.53554     C
N       0.0611  0.88252  0.53853     N
H       0.0626   0.2308   0.8932     H
C       0.0653   0.7803  0.86089     C
C       0.0676   0.7203   0.8246     C
C      0.08113  0.80567  0.54729     C
C      0.09813  0.70667  0.55577     C
H      0.10253  0.49847  0.55987     H
C       0.1056   0.2724  0.86887     C
C      0.11363  0.38167  0.80578     C
N      0.11748  0.17859  0.53853     N
C      0.11943  0.49347  0.74145     C
N      0.12328  0.96409  0.04544     N
C        0.139   0.3912  0.11938     C
N      0.15475  0.60556  0.20519     N
N      0.15919  0.12328  0.95456     N
C      0.16013  0.70737  0.59189     C
H      0.16513  0.72927  0.77347     H
C      0.16653  0.77227   0.7978     C
C       0.1668   0.8944  0.86887     C
H       0.1682   0.9374   0.8932     H
C       0.1732   0.9593  0.07478     C
N      0.17414  0.54339  0.71211     N
N      0.17859   0.0611  0.46147     N
C      0.19433  0.27547  0.54729     C
N      0.21005  0.70258  0.62123     N
C       0.2139   0.1732  0.92522     C
N      0.21585  0.48808  0.12814     N
C       0.2197    0.285  0.86089     C
C      0.22773  0.39427   0.7978     C
H       0.2308   0.1682   0.1068     H
C       0.2352     0.96   0.1109     C
C       0.2522    0.861  0.11938     C
C      0.26573  0.94637  0.84207     C
C      0.26803  0.88637  0.80578     C
H      0.27073  0.43587  0.77347     H
N      0.27223  0.78415  0.12814     N
C       0.2724   0.1668  0.13113     C
C       0.2752   0.2352   0.8891     C
C      0.27547  0.08113  0.45271     C
C       0.2797   0.3473   0.8246     C
C        0.285   0.0653  0.13911     C
C      0.29263  0.45277  0.59189     C
C      0.29333  0.39147  0.55577     C
N      0.29742  0.50748  0.62123     N
H      0.30907  0.33323  0.15163     H
H      0.30917  0.97573  0.51503     H
C      0.31937  0.26573  0.15793     C
H      0.33323  0.02417  0.84837     H
Cd     0.33333  0.66667  0.16667    Cd
Cd     0.33333  0.66667  0.66667    Cd
H      0.33343  0.30917  0.48497     H
C       0.3473   0.0676   0.1754     C
H       0.3575   0.3576   0.8183     H
H       0.3576   0.0001   0.1817     H
N      0.36924  0.82586  0.71211     N
C      0.37333  0.94187  0.77757     C
C      0.37403  0.88057  0.74145     C
C      0.38167  0.26803  0.19422     C
C      0.38697  0.98603  0.50873     C
C       0.3912   0.2522  0.88062     C
C      0.39147  0.09813  0.44423     C
C      0.39427  0.16653   0.2022     C
N      0.39444  0.54918  0.20519     N
H      0.39593  0.89747  0.55987     H
C      0.39863  0.44697  0.52756     C
C      0.40093  0.38697  0.49127     C
C      0.41447  0.47233  0.21395     C
C      0.43147  0.37333  0.22243     C
H      0.43587  0.16513  0.22653     H
C      0.43893  0.93907  0.53554     C
C      0.44697  0.04833  0.47244     C
N      0.45082  0.84525  0.20519     N
C      0.45277  0.16013  0.40811     C
N      0.45661  0.63076  0.71211     N
C      0.47233  0.05787  0.78605     C
N      0.48808  0.27223  0.87186     N
N      0.49252  0.78995  0.62123     N
C      0.49347  0.37403  0.25855     C
H      0.49847  0.39593  0.44013     H
C      0.49987  0.43893  0.46446     C
C      0.50013  0.56107  0.53554     C
H      0.50153  0.60407  0.55987     H
C      0.50653  0.62597  0.74145     C
N      0.50748  0.21005  0.37877     N
N      0.51192  0.72777  0.12814     N
C      0.52767  0.94213  0.21395     C
N      0.54339  0.36924  0.28789     N
C      0.54723  0.83987  0.59189     C
N      0.54918  0.15475  0.79481     N
C      0.55303  0.95167  0.52756     C
C      0.56107  0.06093  0.46446     C
H      0.56413  0.83487  0.77347     H
C      0.56853  0.62667  0.77757     C
C      0.58553  0.52767  0.78605     C
C      0.59907  0.61303  0.50873     C
C      0.60137  0.55303  0.47244     C
H      0.60407  0.10253  0.44013     H
N      0.60556  0.45082  0.79481     N
C      0.60573  0.83347   0.7978     C
C      0.60853  0.90187  0.55577     C
C       0.6088   0.7478  0.11938     C
C      0.61303  0.01397  0.49127     C
C      0.61833  0.73197  0.80578     C
C      0.62597  0.11943  0.25855     C
C      0.62667  0.05813  0.22243     C
N      0.63076  0.17414  0.28789     N
H       0.6424   0.9999   0.8183     H
H       0.6425   0.6424   0.1817     H
C       0.6527   0.9324   0.8246     C
H      0.66657  0.69083  0.51503     H
Cd     0.66667  0.33333  0.33333    Cd
Cd     0.66667  0.33333  0.83333    Cd
H      0.66677  0.97583  0.15163     H
C      0.68063  0.73427  0.84207     C
H      0.69083  0.02427  0.48497     H
H      0.69093  0.66677  0.84837     H
N      0.70258  0.49252  0.37877     N
C      0.70667  0.60853  0.44423     C
C      0.70737  0.54723  0.40811     C
C        0.715   0.9347  0.86089     C
C       0.7203   0.6527   0.1754     C
C      0.72453  0.91887  0.54729     C
C       0.7248   0.7648   0.1109     C
C       0.7276   0.8332  0.86887     C
N      0.72777  0.21585  0.87186     N
H      0.72927  0.56413  0.22653     H
C      0.73197  0.11363  0.19422     C
C      0.73427  0.05363  0.15793     C
C       0.7478    0.139  0.88062     C
C       0.7648     0.04   0.8891     C
H       0.7692   0.8318   0.8932     H
C      0.77227  0.60573   0.2022     C
C       0.7803    0.715  0.13911     C
N      0.78415  0.51192  0.87186     N
C       0.7861   0.8268  0.07478     C
N      0.78995  0.29742  0.37877     N
C      0.80567  0.72453  0.45271     C
N      0.82141   0.9389  0.53853     N
N      0.82586  0.45661  0.28789     N
C       0.8268   0.0407  0.92522     C
H       0.8318   0.0626   0.1068     H
C       0.8332   0.1056  0.13113     C
C      0.83347  0.22773   0.2022     C
H      0.83487  0.27073  0.22653     H
C      0.83987  0.29263  0.40811     C
N      0.84081  0.87672  0.04544     N
N      0.84525  0.39444  0.79481     N
C        0.861   0.6088  0.88062     C
N      0.87672  0.03591  0.95456     N
C      0.88057  0.50653  0.25855     C
N      0.88252  0.82141  0.46147     N
C      0.88637  0.61833  0.19422     C
C       0.8944   0.7276  0.13113     C
H      0.89747  0.50153  0.44013     H
C      0.90187  0.29333  0.44423     C
C      0.91887  0.19433  0.45271     C
C       0.9324   0.2797   0.1754     C
C       0.9347   0.2197  0.13911     C
H       0.9374   0.7692   0.1068     H
N       0.9389  0.11748  0.46147     N
C      0.93907  0.50013  0.46446     C
C      0.94187  0.56853  0.22243     C
C      0.94213  0.41447  0.78605     C
C      0.94637  0.68063  0.15793     C
C      0.95167  0.39863  0.47244     C
C       0.9593   0.7861  0.92522     C
C         0.96   0.7248   0.8891     C
N      0.96409  0.84081  0.95456     N
H      0.97573  0.66657  0.48497     H
H      0.97583  0.30907  0.84837     H
C      0.98603  0.59907  0.49127     C
H       0.9999   0.3575   0.1817     H
