data_I
_chemical_name_common  '/home/zhangsd/repos/MofS-CGCNN/ML/data/WS24/clean_cifs/KOMFUO'
_cell_length_a 10.64660
_cell_length_b 12.05020
_cell_length_c 12.79260
_cell_angle_alpha 90.00000
_cell_angle_beta  92.32000
_cell_angle_gamma 90.00000
_space_group_name_H-M_alt      'P 1'


loop_
_space_group_symop_operation_xyz
  'x, y, z' 

loop_
_atom_site_label
_atom_site_fract_x
_atom_site_fract_y
_atom_site_fract_z
_atom_site_type_symbol
H       0.0245   0.7663    0.846     H
N       0.0313   0.6999   0.7048     N
N        0.061   0.5809  0.27099     N
H       0.0675   0.5292    0.124     H
N        0.068   0.8731   0.4545     N
C         0.07   0.7557   0.7863     C
H       0.0824   0.0279    0.404     H
N       0.0917  0.38198  0.53656     N
C       0.1053   0.5307   0.1909     C
C       0.1118   0.9553    0.402     C
Cu     0.12299  0.62973   0.4952    Cu
H        0.125   0.2302   0.5919     H
N       0.1273   0.7029  0.63525     N
N        0.138   0.7806  0.42982     N
C       0.1456   0.3052   0.5938     C
N       0.1461   0.5614  0.35459     N
N        0.152  0.48119   0.5636     N
N       0.1862   0.7961  0.77174     N
H        0.193   0.9776   0.1367     H
H       0.2041   0.2742   0.8529     H
H       0.2073    0.013   0.8333     H
N       0.2074   0.9192  0.34346     N
N       0.2165   0.4801  0.21995     N
C       0.2195   0.7602   0.6773     C
C       0.2205     0.81   0.3639     C
H       0.2206   0.2633   0.1649     H
N       0.2368   0.3518  0.65679     N
C       0.2379   0.5016   0.3225     C
C       0.2387    0.461   0.6355     C
C       0.2613    0.961   0.8645     C
C       0.2621   0.0016   0.1775     C
N       0.2632   0.8518  0.84321     N
H       0.2794   0.7633   0.3351     H
C       0.2795     0.31   0.1361     C
C       0.2805   0.2602   0.8227     C
N       0.2835   0.9801  0.28005     N
N       0.2926   0.4192  0.15654     N
H       0.2927    0.513   0.6667     H
H       0.2959   0.7742   0.6471     H
H        0.307   0.4776   0.3633     H
N       0.3138   0.2961  0.72826     N
N        0.348  0.98119   0.9364     N
N       0.3539   0.0614  0.14541     N
C       0.3544   0.8052   0.9062     C
N        0.362   0.2806  0.07018     N
N       0.3727   0.2029  0.86475     N
H        0.375   0.7302   0.9081     H
Cu     0.37701  0.12973   0.0048    Cu
C       0.3882   0.4553    0.098     C
C       0.3947   0.0307   0.3091     C
N       0.4083  0.88198  0.96344     N
H       0.4176   0.5279    0.096     H
C         0.43   0.2557   0.7137     C
N        0.432   0.3731   0.0455     N
H       0.4325   0.0292    0.376     H
N        0.439   0.0809  0.22901     N
N       0.4687   0.1999   0.7952     N
H       0.4755   0.2663    0.654     H
H       0.5245   0.7337    0.346     H
N       0.5313   0.8001   0.2048     N
N        0.561   0.9191  0.77099     N
H       0.5675   0.9708    0.624     H
N        0.568   0.6269   0.9545     N
C         0.57   0.7443   0.2863     C
H       0.5824   0.4721    0.904     H
N       0.5917  0.11802  0.03656     N
C       0.6053   0.9693   0.6909     C
C       0.6118   0.5447    0.902     C
Cu     0.62299  0.87027   0.9952    Cu
H        0.625   0.2698   0.0919     H
N       0.6273   0.7971  0.13525     N
N        0.638   0.7194  0.92982     N
C       0.6456   0.1948   0.0938     C
N       0.6461   0.9386  0.85459     N
N        0.652  0.01881   0.0636     N
N       0.6862   0.7039  0.27174     N
H        0.693   0.5224   0.6367     H
H       0.7041   0.2258   0.3529     H
H       0.7073    0.487   0.3333     H
N       0.7074   0.5808  0.84346     N
N       0.7165   0.0199  0.71995     N
C       0.7195   0.7398   0.1773     C
C       0.7205     0.69   0.8639     C
H       0.7206   0.2367   0.6649     H
N       0.7368   0.1482  0.15679     N
C       0.7379   0.9984   0.8225     C
C       0.7387    0.039   0.1355     C
C       0.7613    0.539   0.3645     C
C       0.7621   0.4984   0.6775     C
N       0.7632   0.6482  0.34321     N
H       0.7794   0.7367   0.8351     H
C       0.7795     0.19   0.6361     C
C       0.7805   0.2398   0.3227     C
N       0.7835   0.5199  0.78005     N
N       0.7926   0.0808  0.65654     N
H       0.7927    0.987   0.1667     H
H       0.7959   0.7258   0.1471     H
H        0.807   0.0224   0.8633     H
N       0.8138   0.2039  0.22826     N
N        0.848  0.51881   0.4364     N
N       0.8539   0.4386  0.64541     N
C       0.8544   0.6948   0.4062     C
N        0.862   0.2194  0.57018     N
N       0.8727   0.2971  0.36475     N
H        0.875   0.7698   0.4081     H
Cu     0.87701  0.37027   0.5048    Cu
C       0.8882   0.0447    0.598     C
C       0.8947   0.4693   0.8091     C
N       0.9083  0.61802  0.46344     N
H       0.9176   0.9721    0.596     H
C         0.93   0.2443   0.2137     C
N        0.932   0.1269   0.5455     N
H       0.9325   0.4708    0.876     H
N        0.939   0.4191  0.72901     N
N       0.9687   0.3001   0.2952     N
H       0.9755   0.2337    0.154     H
