data_I
_chemical_name_common  '/home/zhangsd/repos/MofS-CGCNN/ML/data/WS24/clean_cifs/KOMFOI'
_cell_length_a  8.37838
_cell_length_b  8.37838
_cell_length_c 12.83700
_cell_angle_alpha 90.66148
_cell_angle_beta  90.66148
_cell_angle_gamma 98.26632
_space_group_name_H-M_alt      'P 1'


loop_
_space_group_symop_operation_xyz
  'x, y, z' 

loop_
_atom_site_label
_atom_site_fract_x
_atom_site_fract_y
_atom_site_fract_z
_atom_site_type_symbol
Cu         0.0      0.5      0.0    Cu
F       0.0018   0.6206   0.4461     F
F       0.0076   0.1434   0.6416     F
N      0.02928   0.4323  0.14853     N
S      0.03876  0.25518  0.61564     S
C      0.04594  0.65766  0.70053     C
H       0.0681   0.2217   0.8407     H
B       0.0883   0.7541   0.4011     B
N      0.10318  0.61138  0.78779     N
H       0.1086   0.6942    0.642     H
N      0.11708  0.35404  0.29432     N
F       0.1434   0.0076   0.1416     F
C       0.1598   0.4112   0.1983     C
C       0.1621   0.2645  0.87957     C
N      0.17085  0.37395  0.95265     N
F       0.1715   0.7979   0.0308     F
F        0.173   0.6986    0.319     F
N       0.1961   0.7305   0.0296     N
F       0.2021   0.8285   0.4692     F
C       0.2178   0.8554   0.0664     C
H       0.2217   0.0681   0.3407     H
N      0.22243  0.31167  0.36874     N
S      0.25518  0.03876  0.11564     S
C       0.2645   0.1621  0.37957     C
H       0.2663   0.4319   0.1724     H
N       0.2695   0.8039   0.4704     N
H       0.3057   0.5215   0.4493     H
H       0.3058   0.8914    0.858     H
C       0.3114     0.41  0.43927     C
N      0.31167  0.22243  0.86874     N
N      0.32803  0.40563  0.99085     N
C      0.34234  0.95406  0.79947     C
N      0.35404  0.11708  0.79432     N
N      0.37395  0.17085  0.45265     N
F       0.3794   0.9982   0.0539     F
N      0.38862  0.89682  0.71221     N
N      0.40563  0.32803  0.49085     N
C         0.41   0.3114  0.93927     C
C       0.4112   0.1598   0.6983     C
H       0.4319   0.2663   0.6724     H
N       0.4323  0.02928  0.64853     N
H       0.4785   0.6943   0.0507     H
Cu         0.5      0.0      0.5    Cu
H       0.5215   0.3057   0.9493     H
N       0.5677  0.97072  0.35147     N
H       0.5681   0.7337   0.3276     H
C       0.5888   0.8402   0.3017     C
C         0.59   0.6886  0.06073     C
N      0.59437  0.67197  0.50915     N
N      0.61138  0.10318  0.28779     N
F       0.6206   0.0018   0.9461     F
N      0.62605  0.82915  0.54735     N
N      0.64596  0.88292  0.20568     N
C      0.65766  0.04594  0.20053     C
N      0.67197  0.59437  0.00915     N
N      0.68833  0.77757  0.13126     N
C       0.6886     0.59  0.56073     C
H       0.6942   0.1086    0.142     H
H       0.6943   0.4785   0.5507     H
F       0.6986    0.173    0.819     F
N       0.7305   0.1961   0.5296     N
H       0.7337   0.5681   0.8276     H
C       0.7355   0.8379  0.62043     C
S      0.74482  0.96124  0.88436     S
B       0.7541   0.0883   0.9011     B
N      0.77757  0.68833  0.63126     N
H       0.7783   0.9319   0.6593     H
F       0.7979   0.1715   0.5308     F
N       0.8039   0.2695   0.9704     N
F       0.8285   0.2021   0.9692     F
N      0.82915  0.62605  0.04735     N
C       0.8379   0.7355  0.12043     C
C       0.8402   0.5888   0.8017     C
C       0.8554   0.2178   0.5664     C
F       0.8566   0.9924   0.8584     F
N      0.88292  0.64596  0.70568     N
H       0.8914   0.3058    0.358     H
N      0.89682  0.38862  0.21221     N
H       0.9319   0.7783   0.1593     H
C      0.95406  0.34234  0.29947     C
S      0.96124  0.74482  0.38436     S
N      0.97072   0.5677  0.85147     N
F       0.9924   0.8566   0.3584     F
F       0.9982   0.3794   0.5539     F
