data_I
_chemical_name_common  '/home/zhangsd/repos/MofS-CGCNN/ML/data/WS24/clean_cifs/KOMGEZ'
_cell_length_a 11.15140
_cell_length_b 11.15140
_cell_length_c 102.57800
_cell_angle_alpha 90.00000
_cell_angle_beta  90.00000
_cell_angle_gamma 120.00000
_space_group_name_H-M_alt      'P 1'


loop_
_space_group_symop_operation_xyz
  'x, y, z' 

loop_
_atom_site_label
_atom_site_fract_x
_atom_site_fract_y
_atom_site_fract_z
_atom_site_type_symbol
Cd         0.0      0.0      0.0    Cd
Cd         0.0      0.0   0.2298    Cd
Cd         0.0      0.0   0.2702    Cd
Cd         0.0      0.0      0.5    Cd
Cd         0.0      0.0   0.7298    Cd
Cd         0.0      0.0   0.7702    Cd
N          0.0  0.35195     0.75     N
N          0.0  0.47545     0.75     N
N          0.0  0.52455     0.25     N
N          0.0  0.64805     0.25     N
N      0.00343  0.37147  0.19233     N
N      0.00343  0.63197  0.69233     N
C      0.00887  0.24663  0.28846     C
C      0.00887  0.76223  0.78846     C
H       0.0095   0.3808   0.4356     H
H       0.0095   0.6287   0.9356     H
N      0.01227  0.17473  0.75663     N
N      0.01227  0.83753  0.25663     N
N      0.01862  0.33333  0.08333     N
N      0.01862  0.68528  0.58333     N
N      0.01867  0.30073  0.92117     N
N      0.01867  0.71793  0.42117     N
C      0.02067  0.28973  0.76048     C
C      0.02067  0.73093  0.26048     C
H      0.02253  0.47447  0.65297     H
H      0.02253  0.54807  0.15297     H
C      0.02377  0.50053  0.30685     C
C      0.02377  0.52323  0.80685     C
H      0.02437  0.41893  0.88303     H
H      0.02437  0.60543  0.38303     H
H       0.0266   0.4632   0.4783     H
H       0.0266   0.5634   0.9783     H
C       0.0269   0.2584  0.98362     C
C       0.0269   0.7685  0.48362     C
N       0.0289   0.4149  0.96694     N
N       0.0289    0.614  0.46694     N
N       0.0326   0.3846  0.58784     N
N       0.0326    0.648  0.08784     N
N       0.0347   0.3299  0.52566     N
N       0.0347   0.7048  0.02566     N
N      0.03547  0.20913  0.79481     N
N      0.03547  0.82633  0.29481     N
H      0.03797  0.32383  0.76893     H
H      0.03797  0.71413  0.26893     H
N      0.03813  0.33677  0.64101     N
N      0.03813  0.70137  0.14101     N
C       0.0436   0.3976  0.42715     C
C       0.0436    0.646  0.92715     C
H      0.04747  0.34283  0.39773     H
H      0.04747  0.70463  0.89773     H
N      0.05127  0.36593  0.24549     N
N      0.05127  0.68533  0.74549     N
N      0.05243  0.47937  0.68499     N
N      0.05243  0.57307  0.18499     N
N      0.05267  0.30443  0.30027     N
N      0.05267  0.74823  0.80027     N
C       0.0548   0.5122  0.47048     C
C       0.0548   0.5426  0.97048     C
H      0.06123  0.30897  0.21637     H
H      0.06123  0.75227  0.71637     H
N       0.0624   0.2013  0.51193     N
N       0.0624   0.8611  0.01193     N
C      0.06427  0.37693  0.40618     C
C      0.06427  0.68733  0.90618     C
H      0.06593  0.17987  0.57087     H
H      0.06593  0.88607  0.07087     H
C      0.07493  0.43517  0.65029     C
C      0.07493  0.63977  0.15029     C
C      0.07593  0.24987  0.57647     C
C      0.07593  0.82607  0.07647     C
N      0.07927  0.18953   0.2849     N
N      0.07927  0.88973   0.7849     N
N      0.08157  0.36223  0.86639     N
N      0.08157  0.71933  0.36639     N
C      0.08347  0.49273  0.24313     C
C      0.08347  0.59073  0.74313     C
H       0.0856   0.3577   0.9503     H
H       0.0856   0.7279   0.4503     H
C       0.0867   0.4289  0.95513     C
C       0.0867   0.6578  0.45513     C
H      0.08797  0.52073  0.80123     H
H      0.08797  0.56723  0.30123     H
N       0.0936   0.2809  0.01832     N
N       0.0936   0.8127  0.51832     N
C      0.09557  0.42003   0.8782     C
C      0.09557  0.67553   0.3782     C
H      0.09943  0.24537  0.13457     H
H      0.09943  0.85407  0.63457     H
C      0.10183  0.40827  0.18305     C
C      0.10183  0.69357  0.68305     C
H      0.10327  0.30673  0.81163     H
H      0.10327  0.79653  0.31163     H
N      0.11027  0.18953   0.7849     N
N      0.11027  0.92073   0.2849     N
H      0.11393  0.17987  0.07087     H
H      0.11393  0.93407  0.57087     H
H       0.1186   0.3108   0.9863     H
H       0.1186   0.8078   0.4863     H
C      0.12407  0.27853  0.80381     C
C      0.12407  0.84553  0.30381     C
N       0.1242    0.493  0.46148     N
N       0.1242   0.6312  0.96148     N
H      0.12987  0.35993  0.35503     H
H      0.12987  0.76993  0.85503     H
N      0.13203  0.52777   0.1786     N
N      0.13203  0.60427   0.6786     N
N       0.1389   0.2013  0.01193     N
N       0.1389   0.9376  0.51193     N
H      0.14113  0.35587  0.18037     H
H      0.14113  0.78527  0.68037     H
N      0.14212  0.33333  0.08333     N
N      0.14212  0.80878  0.58333     N
C      0.14343  0.30957  0.64019     C
C      0.14343  0.83387  0.14019     C
N       0.1438   0.5564  0.95157     N
N       0.1438   0.5874  0.45157     N
H      0.14593  0.24537  0.63457     H
H      0.14593  0.90057  0.13457     H
N      0.14603  0.38577  0.14835     N
N      0.14603  0.76027  0.64835     N
H      0.15347  0.55273  0.23753     H
H      0.15347  0.60073  0.73753     H
C      0.15447  0.27853  0.30381     C
C      0.15447  0.87593  0.80381     C
N       0.1586   0.5042   0.4233     N
N       0.1586   0.6544   0.9233     N
C       0.1594   0.4168   0.5902     C
C       0.1594   0.7426   0.0902     C
N      0.15967  0.45753  0.37185     N
N      0.15967  0.70213  0.87185     N
N      0.16247  0.17473  0.25663     N
N      0.16247  0.98773  0.75663     N
C      0.16613  0.30957  0.14019     C
C      0.16613  0.85657  0.64019     C
C       0.1672   0.3571  0.52648     C
C       0.1672   0.8101  0.02648     C
N      0.17087  0.49193  0.41003     N
N      0.17087  0.67893  0.91003     N
N      0.17367  0.20913  0.29481     N
N      0.17367  0.96453  0.79481     N
C      0.17393  0.24987  0.07647     C
C      0.17393  0.92407  0.57647     C
N      0.17473  0.01227  0.74337     N
N      0.17473  0.16247  0.24337     N
C      0.17887  0.38813  0.36285     C
C      0.17887  0.79073  0.86285     C
H      0.17987  0.06593  0.92913     H
H      0.17987  0.11393  0.42913     H
N       0.1873   0.2809  0.51832     N
N       0.1873   0.9064  0.01832     N
H       0.1874   0.4213   0.0321     H
H       0.1874   0.7661   0.5321     H
N      0.18953  0.07927   0.2151     N
N      0.18953  0.11027   0.7151     N
C       0.1899   0.3571  0.02648     C
C       0.1899   0.8328  0.52648     C
N      0.19122  0.33333  0.58333     N
N      0.19122  0.85788  0.08333     N
H       0.1922   0.3108   0.4863     H
H       0.1922   0.8814   0.9863     H
N      0.19443  0.46537  0.65474     N
N      0.19443  0.72907  0.15474     N
N       0.2013   0.0624  0.98807     N
N       0.2013   0.1389  0.48807     N
H      0.20347  0.30673  0.31163     H
H      0.20347  0.89673  0.81163     H
N      0.20913  0.03547  0.70519     N
N      0.20913  0.17367  0.20519     N
C      0.20927  0.38813  0.86285     C
C      0.20927  0.82113  0.36285     C
H      0.21473  0.35587  0.68037     H
H      0.21473  0.85887  0.18037     H
H       0.2194   0.4868   0.5958     H
H       0.2194   0.7326   0.0958     H
N      0.22307  0.47713  0.88176     N
N      0.22307  0.74593  0.38176     N
H      0.23007  0.35993  0.85503     H
H      0.23007  0.87013  0.35503     H
C       0.2315   0.2584  0.48362     C
C       0.2315   0.9731  0.98362     C
H       0.2339   0.4213   0.5321     H
H       0.2339   0.8126   0.0321     H
C      0.23777  0.24663  0.78846     C
C      0.23777  0.99113  0.28846     C
N      0.23973  0.38577  0.64835     N
N      0.23973  0.85397  0.14835     N
H      0.24537  0.09943  0.36543     H
H      0.24537  0.14593  0.86543     H
C      0.24663  0.00887  0.21154     C
C      0.24663  0.23777  0.71154     C
H      0.24773  0.30897  0.71637     H
H      0.24773  0.93877  0.21637     H
C      0.24987  0.07593  0.92353     C
C      0.24987  0.17393  0.42353     C
N      0.25177  0.30443  0.80027     N
N      0.25177  0.94733  0.30027     N
N      0.25407  0.47713  0.38176     N
N      0.25407  0.77693  0.88176     N
C       0.2574   0.4168   0.0902     C
C       0.2574   0.8406   0.5902     C
C       0.2584   0.0269  0.51638     C
C       0.2584   0.2315  0.01638     C
H       0.2674   0.4868   0.0958     H
H       0.2674   0.7806   0.5958     H
C      0.26907  0.28973  0.26048     C
C      0.26907  0.97933  0.76048     C
N      0.27093  0.46537  0.15474     N
N      0.27093  0.80557  0.65474     N
H       0.2721   0.3577   0.4503     H
H       0.2721   0.9144   0.9503     H
C      0.27853  0.12407  0.69619     C
C      0.27853  0.15447  0.19619     C
N      0.28067  0.36223  0.36639     N
N      0.28067  0.91843  0.86639     N
N       0.2809   0.0936  0.48168     N
N       0.2809   0.1873  0.98168     N
N      0.28207  0.30073  0.42117     N
N      0.28207  0.98133  0.92117     N
H      0.28587  0.32383  0.26893     H
H      0.28587  0.96203  0.76893     H
C      0.28973  0.02067  0.73952     C
C      0.28973  0.26907  0.23952     C
N       0.2952   0.3299  0.02566     N
N       0.2952   0.9653  0.52566     N
H      0.29537  0.34283  0.89773     H
H      0.29537  0.95253  0.39773     H
N      0.29787  0.45753  0.87185     N
N      0.29787  0.84033  0.37185     N
N      0.29863  0.33677  0.14101     N
N      0.29863  0.96187  0.64101     N
N      0.30073  0.01867  0.57883     N
N      0.30073  0.28207  0.07883     N
N      0.30443  0.05267  0.19973     N
N      0.30443  0.25177  0.69973     N
C      0.30643  0.40827  0.68305     C
C      0.30643  0.89817  0.18305     C
H      0.30673  0.10327  0.68837     H
H      0.30673  0.20347  0.18837     H
H      0.30897  0.06123  0.28363     H
H      0.30897  0.24773  0.78363     H
C      0.30957  0.14343  0.85981     C
C      0.30957  0.16613  0.35981     C
H       0.3108   0.1186   0.5137     H
H       0.3108   0.1922   0.0137     H
C      0.31267  0.37693  0.90618     C
C      0.31267  0.93573  0.40618     C
N      0.31467  0.36593  0.74549     N
N      0.31467  0.94873  0.24549     N
N      0.31472  0.33333  0.58333     N
N      0.31472  0.98138  0.08333     N
N      0.32107  0.49193  0.91003     N
N      0.32107  0.82913  0.41003     N
H      0.32383  0.03797  0.73107     H
H      0.32383  0.28587  0.23107     H
C      0.32447  0.42003   0.3782     C
C      0.32447  0.90443   0.8782     C
N       0.3299   0.0347  0.97434     N
N       0.3299   0.2952  0.47434     N
N      0.33333  0.01862  0.41667     N
N      0.33333  0.14212  0.41667     N
N      0.33333  0.19122  0.91667     N
N      0.33333  0.31472  0.91667     N
Cd     0.33333  0.66667  0.16667    Cd
Cd     0.33333  0.66667  0.39647    Cd
Cd     0.33333  0.66667  0.43687    Cd
Cd     0.33333  0.66667  0.66667    Cd
Cd     0.33333  0.66667  0.89647    Cd
Cd     0.33333  0.66667  0.93687    Cd
N      0.33677  0.03813  0.85899     N
N      0.33677  0.29863  0.35899     N
C       0.3422   0.4289  0.45513     C
C       0.3422   0.9133  0.95513     C
H      0.34283  0.04747  0.10227     H
H      0.34283  0.29537  0.60227     H
N       0.3456   0.5042   0.9233     N
N       0.3456   0.8414   0.4233     N
N      0.35195      0.0     0.75     N
N      0.35195  0.35195     0.25     N
N        0.352   0.3846  0.08784     N
N        0.352   0.9674  0.58784     N
C        0.354   0.3976  0.92715     C
C        0.354   0.9564  0.42715     C
H      0.35587  0.14113  0.31963     H
H      0.35587  0.21473  0.81963     H
C       0.3571   0.1672  0.97352     C
C       0.3571   0.1899  0.47352     C
H       0.3577   0.0856   0.5497     H
H       0.3577   0.2721   0.0497     H
H      0.35993  0.12987  0.14497     H
H      0.35993  0.23007  0.64497     H
C      0.36023  0.43517  0.15029     C
C      0.36023  0.92507  0.65029     C
N      0.36223  0.08157  0.63361     N
N      0.36223  0.28067  0.13361     N
N      0.36593  0.05127  0.25451     N
N      0.36593  0.31467  0.75451     N
N      0.36803  0.37147  0.69233     N
N      0.36803  0.99657  0.19233     N
N       0.3688    0.493  0.96148     N
N       0.3688   0.8758  0.46148     N
H       0.3713   0.3808   0.9356     H
H       0.3713   0.9905   0.4356     H
N      0.37147  0.00343  0.30767     N
N      0.37147  0.36803  0.80767     N
C      0.37693  0.06427  0.09382     C
C      0.37693  0.31267  0.59382     C
H       0.3808   0.0095   0.0644     H
H       0.3808   0.3713   0.5644     H
N       0.3846   0.0326  0.91216     N
N       0.3846    0.352  0.41216     N
N      0.38577  0.14603  0.35165     N
N      0.38577  0.23973  0.85165     N
N        0.386   0.4149  0.46694     N
N        0.386   0.9711  0.96694     N
C      0.38813  0.17887  0.13715     C
C      0.38813  0.20927  0.63715     C
H      0.39457  0.41893  0.38303     H
H      0.39457  0.97563  0.88303     H
N      0.39573  0.52777   0.6786     N
N      0.39573  0.86797   0.1786     N
C       0.3976   0.0436  0.07285     C
C       0.3976    0.354  0.57285     C
H      0.39927  0.55273  0.73753     H
H      0.39927  0.84653  0.23753     H
C      0.40827  0.10183  0.31695     C
C      0.40827  0.30643  0.81695     C
C      0.40927  0.49273  0.74313     C
C      0.40927  0.91653  0.24313     C
N       0.4126   0.5564  0.45157     N
N       0.4126   0.8562  0.95157     N
N       0.4149   0.0289  0.53306     N
N       0.4149    0.386  0.03306     N
C       0.4168   0.1594   0.9098     C
C       0.4168   0.2574   0.4098     C
H      0.41893  0.02437  0.61697     H
H      0.41893  0.39457  0.11697     H
C      0.42003  0.09557   0.6218     C
C      0.42003  0.32447   0.1218     C
H       0.4213   0.1874   0.4679     H
H       0.4213   0.2339   0.9679     H
N      0.42693  0.47937  0.18499     N
N      0.42693  0.94757  0.68499     N
C       0.4289   0.0867  0.54487     C
C       0.4289   0.3422  0.04487     C
H      0.43277  0.52073  0.30123     H
H      0.43277  0.91203  0.80123     H
C      0.43517  0.07493  0.84971     C
C      0.43517  0.36023  0.34971     C
H       0.4366   0.4632   0.9783     H
H       0.4366   0.9734   0.4783     H
N       0.4436   0.5874  0.95157     N
N       0.4436   0.8562  0.45157     N
H      0.44727  0.60073  0.23753     H
H      0.44727  0.84653  0.73753     H
H      0.45193  0.47447  0.15297     H
H      0.45193  0.97747  0.65297     H
C       0.4574   0.5122  0.97048     C
C       0.4574   0.9452  0.47048     C
N      0.45753  0.15967  0.12815     N
N      0.45753  0.29787  0.62815     N
H       0.4632   0.0266   0.0217     H
H       0.4632   0.4366   0.5217     H
N      0.46537  0.19443  0.84526     N
N      0.46537  0.27093  0.34526     N
N      0.47223  0.60427   0.1786     N
N      0.47223  0.86797   0.6786     N
H      0.47447  0.02253  0.84703     H
H      0.47447  0.45193  0.34703     H
N      0.47545      0.0     0.75     N
N      0.47545  0.47545     0.25     N
C      0.47677  0.50053  0.80685     C
C      0.47677  0.97623  0.30685     C
N      0.47713  0.22307  0.61824     N
N      0.47713  0.25407  0.11824     N
H      0.47927  0.56723  0.80123     H
H      0.47927  0.91203  0.30123     H
N      0.47937  0.05243  0.81501     N
N      0.47937  0.42693  0.31501     N
H       0.4868   0.2194   0.9042     H
H       0.4868   0.2674   0.4042     H
C       0.4878   0.5426  0.47048     C
C       0.4878   0.9452  0.97048     C
N      0.49193  0.17087  0.08997     N
N      0.49193  0.32107  0.58997     N
C      0.49273  0.08347  0.25687     C
C      0.49273  0.40927  0.75687     C
N        0.493   0.1242  0.03852     N
N        0.493   0.3688  0.53852     N
N       0.4958   0.6544   0.4233     N
N       0.4958   0.8414   0.9233     N
C      0.49947  0.52323  0.30685     C
C      0.49947  0.97623  0.80685     C
C      0.50053  0.02377  0.19315     C
C      0.50053  0.47677  0.69315     C
N       0.5042   0.1586   0.0767     N
N       0.5042   0.3456   0.5767     N
N        0.507   0.6312  0.46148     N
N        0.507   0.8758  0.96148     N
C      0.50727  0.59073  0.24313     C
C      0.50727  0.91653  0.74313     C
N      0.50807  0.67893  0.41003     N
N      0.50807  0.82913  0.91003     N
C       0.5122   0.0548  0.02952     C
C       0.5122   0.4574  0.52952     C
H       0.5132   0.7326   0.5958     H
H       0.5132   0.7806   0.0958     H
N      0.52063  0.57307  0.68499     N
N      0.52063  0.94757  0.18499     N
H      0.52073  0.08797  0.69877     H
H      0.52073  0.43277  0.19877     H
N      0.52287  0.74593  0.88176     N
N      0.52287  0.77693  0.38176     N
C      0.52323  0.02377  0.69315     C
C      0.52323  0.49947  0.19315     C
N      0.52455      0.0     0.25     N
N      0.52455  0.52455     0.75     N
H      0.52553  0.54807  0.65297     H
H      0.52553  0.97747  0.15297     H
N      0.52777  0.13203   0.3214     N
N      0.52777  0.39573   0.8214     N
N      0.53463  0.72907  0.65474     N
N      0.53463  0.80557  0.15474     N
H       0.5368   0.5634   0.4783     H
H       0.5368   0.9734   0.9783     H
N      0.54247  0.70213  0.37185     N
N      0.54247  0.84033  0.87185     N
C       0.5426   0.0548  0.52952     C
C       0.5426   0.4878  0.02952     C
H      0.54807  0.02253  0.34703     H
H      0.54807  0.52553  0.84703     H
H      0.55273  0.15347  0.26247     H
H      0.55273  0.39927  0.76247     H
N       0.5564   0.1438  0.54843     N
N       0.5564   0.4126  0.04843     N
H       0.5634   0.0266   0.5217     H
H       0.5634   0.5368   0.0217     H
C      0.56483  0.63977  0.65029     C
C      0.56483  0.92507  0.15029     C
H      0.56723  0.08797  0.19877     H
H      0.56723  0.47927  0.69877     H
C       0.5711   0.6578  0.95513     C
C       0.5711   0.9133  0.45513     C
N      0.57307  0.05243  0.31501     N
N      0.57307  0.52063  0.81501     N
H       0.5787   0.7661   0.0321     H
H       0.5787   0.8126   0.5321     H
C      0.57997  0.67553   0.8782     C
C      0.57997  0.90443   0.3782     C
H      0.58107  0.60543  0.88303     H
H      0.58107  0.97563  0.38303     H
C       0.5832   0.7426   0.5902     C
C       0.5832   0.8406   0.0902     C
N       0.5851    0.614  0.96694     N
N       0.5851   0.9711  0.46694     N
N       0.5874   0.1438  0.04843     N
N       0.5874   0.4436  0.54843     N
C      0.59073  0.08347  0.75687     C
C      0.59073  0.50727  0.25687     C
C      0.59173  0.69357  0.18305     C
C      0.59173  0.89817  0.68305     C
H      0.60073  0.15347  0.76247     H
H      0.60073  0.44727  0.26247     H
C       0.6024    0.646  0.42715     C
C       0.6024   0.9564  0.92715     C
N      0.60427  0.13203   0.8214     N
N      0.60427  0.47223   0.3214     N
H      0.60543  0.02437  0.11697     H
H      0.60543  0.58107  0.61697     H
C      0.61187  0.79073  0.36285     C
C      0.61187  0.82113  0.86285     C
N        0.614   0.0289  0.03306     N
N        0.614   0.5851  0.53306     N
N      0.61423  0.76027  0.14835     N
N      0.61423  0.85397  0.64835     N
N       0.6154    0.648  0.58784     N
N       0.6154   0.9674  0.08784     N
H       0.6192   0.6287   0.4356     H
H       0.6192   0.9905   0.9356     H
C      0.62307  0.68733  0.40618     C
C      0.62307  0.93573  0.90618     C
N      0.62853  0.63197  0.19233     N
N      0.62853  0.99657  0.69233     N
H       0.6287   0.0095   0.5644     H
H       0.6287   0.6192   0.0644     H
N       0.6312   0.1242  0.53852     N
N       0.6312    0.507  0.03852     N
N      0.63197  0.00343  0.80767     N
N      0.63197  0.62853  0.30767     N
N      0.63407  0.68533  0.24549     N
N      0.63407  0.94873  0.74549     N
N      0.63777  0.71933  0.86639     N
N      0.63777  0.91843  0.36639     N
C      0.63977  0.07493  0.34971     C
C      0.63977  0.56483  0.84971     C
H      0.64007  0.76993  0.35503     H
H      0.64007  0.87013  0.85503     H
H       0.6423   0.7279   0.9503     H
H       0.6423   0.9144   0.4503     H
C       0.6429   0.8101  0.52648     C
C       0.6429   0.8328  0.02648     C
H      0.64413  0.78527  0.18037     H
H      0.64413  0.85887  0.68037     H
C        0.646   0.0436  0.57285     C
C        0.646   0.6024  0.07285     C
N        0.648   0.0326  0.41216     N
N        0.648   0.6154  0.91216     N
N      0.64805      0.0     0.25     N
N      0.64805  0.64805     0.75     N
N       0.6544   0.1586   0.5767     N
N       0.6544   0.4958   0.0767     N
H      0.65717  0.70463  0.39773     H
H      0.65717  0.95253  0.89773     H
C       0.6578   0.0867  0.04487     C
C       0.6578   0.5711  0.54487     C
N      0.66323  0.70137  0.64101     N
N      0.66323  0.96187  0.14101     N
Cd     0.66667  0.33333  0.06313    Cd
Cd     0.66667  0.33333  0.10353    Cd
Cd     0.66667  0.33333  0.33333    Cd
Cd     0.66667  0.33333  0.56313    Cd
Cd     0.66667  0.33333  0.60353    Cd
Cd     0.66667  0.33333  0.83333    Cd
N      0.66667  0.68528  0.08333     N
N      0.66667  0.80878  0.08333     N
N      0.66667  0.85788  0.58333     N
N      0.66667  0.98138  0.58333     N
N       0.6701   0.7048  0.52566     N
N       0.6701   0.9653  0.02566     N
C      0.67553  0.09557   0.1218     C
C      0.67553  0.57997   0.6218     C
H      0.67617  0.71413  0.76893     H
H      0.67617  0.96203  0.26893     H
N      0.67893  0.17087  0.58997     N
N      0.67893  0.50807  0.08997     N
N      0.68528  0.01862  0.91667     N
N      0.68528  0.66667  0.41667     N
N      0.68533  0.05127  0.75451     N
N      0.68533  0.63407  0.25451     N
C      0.68733  0.06427  0.59382     C
C      0.68733  0.62307  0.09382     C
H       0.6892   0.8078   0.9863     H
H       0.6892   0.8814   0.4863     H
C      0.69043  0.83387  0.64019     C
C      0.69043  0.85657  0.14019     C
H      0.69103  0.75227  0.21637     H
H      0.69103  0.93877  0.71637     H
H      0.69327  0.79653  0.81163     H
H      0.69327  0.89673  0.31163     H
C      0.69357  0.10183  0.81695     C
C      0.69357  0.59173  0.31695     C
N      0.69557  0.74823  0.30027     N
N      0.69557  0.94733  0.80027     N
N      0.69927  0.71793  0.92117     N
N      0.69927  0.98133  0.42117     N
N      0.70137  0.03813  0.35899     N
N      0.70137  0.66323  0.85899     N
N      0.70213  0.15967  0.62815     N
N      0.70213  0.54247  0.12815     N
H      0.70463  0.04747  0.60227     H
H      0.70463  0.65717  0.10227     H
N       0.7048   0.0347  0.47434     N
N       0.7048   0.6701  0.97434     N
C      0.71027  0.73093  0.76048     C
C      0.71027  0.97933  0.26048     C
H      0.71413  0.03797  0.23107     H
H      0.71413  0.67617  0.73107     H
N      0.71793  0.01867  0.07883     N
N      0.71793  0.69927  0.57883     N
N       0.7191   0.8127  0.01832     N
N       0.7191   0.9064  0.51832     N
N      0.71933  0.08157  0.13361     N
N      0.71933  0.63777  0.63361     N
C      0.72147  0.84553  0.80381     C
C      0.72147  0.87593  0.30381     C
H       0.7279   0.0856   0.0497     H
H       0.7279   0.6423   0.5497     H
N      0.72907  0.19443  0.34526     N
N      0.72907  0.53463  0.84526     N
C      0.73093  0.02067  0.23952     C
C      0.73093  0.71027  0.73952     C
H       0.7326   0.2194   0.4042     H
H       0.7326   0.5132   0.9042     H
C       0.7416   0.7685  0.98362     C
C       0.7416   0.9731  0.48362     C
C       0.7426   0.1594   0.4098     C
C       0.7426   0.5832   0.9098     C
N      0.74593  0.22307  0.11824     N
N      0.74593  0.52287  0.61824     N
N      0.74823  0.05267  0.69973     N
N      0.74823  0.69557  0.19973     N
C      0.75013  0.82607  0.57647     C
C      0.75013  0.92407  0.07647     C
H      0.75227  0.06123  0.78363     H
H      0.75227  0.69103  0.28363     H
C      0.75337  0.76223  0.28846     C
C      0.75337  0.99113  0.78846     C
H      0.75463  0.85407  0.13457     H
H      0.75463  0.90057  0.63457     H
N      0.76027  0.14603  0.85165     N
N      0.76027  0.61423  0.35165     N
C      0.76223  0.00887  0.71154     C
C      0.76223  0.75337  0.21154     C
H       0.7661   0.1874   0.9679     H
H       0.7661   0.5787   0.4679     H
C       0.7685   0.0269  0.01638     C
C       0.7685   0.7416  0.51638     C
H      0.76993  0.12987  0.64497     H
H      0.76993  0.64007  0.14497     H
N      0.77693  0.25407  0.61824     N
N      0.77693  0.52287  0.11824     N
H       0.7806   0.2674   0.9042     H
H       0.7806   0.5132   0.4042     H
H      0.78527  0.14113  0.81963     H
H      0.78527  0.64413  0.31963     H
C      0.79073  0.17887  0.63715     C
C      0.79073  0.61187  0.13715     C
N      0.79087  0.82633  0.79481     N
N      0.79087  0.96453  0.29481     N
H      0.79653  0.10327  0.18837     H
H      0.79653  0.69327  0.68837     H
N       0.7987   0.8611  0.51193     N
N       0.7987   0.9376  0.01193     N
N      0.80557  0.27093  0.84526     N
N      0.80557  0.53463  0.34526     N
H       0.8078   0.1186   0.0137     H
H       0.8078   0.6892   0.5137     H
N      0.80878  0.14212  0.91667     N
N      0.80878  0.66667  0.41667     N
C       0.8101   0.1672  0.47352     C
C       0.8101   0.6429  0.97352     C
N      0.81047  0.88973   0.2849     N
N      0.81047  0.92073   0.7849     N
H       0.8126   0.2339   0.4679     H
H       0.8126   0.5787   0.9679     H
N       0.8127   0.0936  0.98168     N
N       0.8127   0.7191  0.48168     N
H      0.82013  0.88607  0.57087     H
H      0.82013  0.93407  0.07087     H
C      0.82113  0.20927  0.13715     C
C      0.82113  0.61187  0.63715     C
N      0.82527  0.83753  0.75663     N
N      0.82527  0.98773  0.25663     N
C      0.82607  0.07593  0.42353     C
C      0.82607  0.75013  0.92353     C
N      0.82633  0.03547  0.20519     N
N      0.82633  0.79087  0.70519     N
N      0.82913  0.32107  0.08997     N
N      0.82913  0.50807  0.58997     N
C       0.8328   0.1899  0.97352     C
C       0.8328   0.6429  0.47352     C
C      0.83387  0.14343  0.35981     C
C      0.83387  0.69043  0.85981     C
N      0.83753  0.01227  0.24337     N
N      0.83753  0.82527  0.74337     N
N      0.84033  0.29787  0.12815     N
N      0.84033  0.54247  0.62815     N
C       0.8406   0.2574   0.9098     C
C       0.8406   0.5832   0.4098     C
N       0.8414   0.3456   0.0767     N
N       0.8414   0.4958   0.5767     N
C      0.84553  0.12407  0.19619     C
C      0.84553  0.72147  0.69619     C
H      0.84653  0.39927  0.26247     H
H      0.84653  0.44727  0.76247     H
N      0.85397  0.23973  0.35165     N
N      0.85397  0.61423  0.85165     N
H      0.85407  0.09943  0.86543     H
H      0.85407  0.75463  0.36543     H
N       0.8562   0.4126  0.54843     N
N       0.8562   0.4436  0.04843     N
C      0.85657  0.16613  0.85981     C
C      0.85657  0.69043  0.35981     C
N      0.85788  0.19122  0.41667     N
N      0.85788  0.66667  0.91667     N
H      0.85887  0.21473  0.31963     H
H      0.85887  0.64413  0.81963     H
N       0.8611   0.0624  0.48807     N
N       0.8611   0.7987  0.98807     N
N      0.86797  0.39573   0.3214     N
N      0.86797  0.47223   0.8214     N
H      0.87013  0.23007  0.14497     H
H      0.87013  0.64007  0.64497     H
N       0.8758   0.3688  0.03852     N
N       0.8758    0.507  0.53852     N
C      0.87593  0.15447  0.69619     C
C      0.87593  0.72147  0.19619     C
H       0.8814   0.1922   0.5137     H
H       0.8814   0.6892   0.0137     H
H      0.88607  0.06593  0.42913     H
H      0.88607  0.82013  0.92913     H
N      0.88973  0.07927   0.7151     N
N      0.88973  0.81047   0.2151     N
H      0.89673  0.20347  0.68837     H
H      0.89673  0.69327  0.18837     H
C      0.89817  0.30643  0.31695     C
C      0.89817  0.59173  0.81695     C
H      0.90057  0.14593  0.36543     H
H      0.90057  0.75463  0.86543     H
C      0.90443  0.32447   0.6218     C
C      0.90443  0.57997   0.1218     C
N       0.9064   0.1873  0.48168     N
N       0.9064   0.7191  0.98168     N
H      0.91203  0.43277  0.69877     H
H      0.91203  0.47927  0.19877     H
C       0.9133   0.3422  0.54487     C
C       0.9133   0.5711  0.04487     C
H       0.9144   0.2721   0.5497     H
H       0.9144   0.6423   0.0497     H
C      0.91653  0.40927  0.25687     C
C      0.91653  0.50727  0.75687     C
N      0.91843  0.28067  0.63361     N
N      0.91843  0.63777  0.13361     N
N      0.92073  0.11027   0.2151     N
N      0.92073  0.81047   0.7151     N
C      0.92407  0.17393  0.92353     C
C      0.92407  0.75013  0.42353     C
C      0.92507  0.36023  0.84971     C
C      0.92507  0.56483  0.34971     C
H      0.93407  0.11393  0.92913     H
H      0.93407  0.82013  0.42913     H
C      0.93573  0.31267  0.09382     C
C      0.93573  0.62307  0.59382     C
N       0.9376   0.1389  0.98807     N
N       0.9376   0.7987  0.48807     N
H      0.93877  0.24773  0.28363     H
H      0.93877  0.69103  0.78363     H
C       0.9452   0.4574  0.02952     C
C       0.9452   0.4878  0.52952     C
N      0.94733  0.25177  0.19973     N
N      0.94733  0.69557  0.69973     N
N      0.94757  0.42693  0.81501     N
N      0.94757  0.52063  0.31501     N
N      0.94873  0.31467  0.25451     N
N      0.94873  0.63407  0.75451     N
H      0.95253  0.29537  0.10227     H
H      0.95253  0.65717  0.60227     H
C       0.9564    0.354  0.07285     C
C       0.9564   0.6024  0.57285     C
N      0.96187  0.29863  0.85899     N
N      0.96187  0.66323  0.35899     N
H      0.96203  0.28587  0.73107     H
H      0.96203  0.67617  0.23107     H
N      0.96453  0.17367  0.70519     N
N      0.96453  0.79087  0.20519     N
N       0.9653   0.2952  0.97434     N
N       0.9653   0.6701  0.47434     N
N       0.9674    0.352  0.91216     N
N       0.9674   0.6154  0.41216     N
N       0.9711    0.386  0.53306     N
N       0.9711   0.5851  0.03306     N
C       0.9731   0.2315  0.51638     C
C       0.9731   0.7416  0.01638     C
H       0.9734   0.4366   0.0217     H
H       0.9734   0.5368   0.5217     H
H      0.97563  0.39457  0.61697     H
H      0.97563  0.58107  0.11697     H
C      0.97623  0.47677  0.19315     C
C      0.97623  0.49947  0.69315     C
H      0.97747  0.45193  0.84703     H
H      0.97747  0.52553  0.34703     H
C      0.97933  0.26907  0.73952     C
C      0.97933  0.71027  0.23952     C
N      0.98133  0.28207  0.57883     N
N      0.98133  0.69927  0.07883     N
N      0.98138  0.31472  0.41667     N
N      0.98138  0.66667  0.91667     N
N      0.98773  0.16247  0.74337     N
N      0.98773  0.82527  0.24337     N
H       0.9905   0.3713   0.0644     H
H       0.9905   0.6192   0.5644     H
C      0.99113  0.23777  0.21154     C
C      0.99113  0.75337  0.71154     C
N      0.99657  0.36803  0.30767     N
N      0.99657  0.62853  0.80767     N
