data_I
_chemical_name_common  '/home/zhangsd/repos/MofS-CGCNN/ML/data/WS24/clean_cifs/KOMGOJ'
_cell_length_a 12.69100
_cell_length_b 12.69100
_cell_length_c 14.67230
_cell_angle_alpha 115.62515
_cell_angle_beta  115.62515
_cell_angle_gamma 90.00000
_space_group_name_H-M_alt      'P 1'


loop_
_space_group_symop_operation_xyz
  'x, y, z' 

loop_
_atom_site_label
_atom_site_fract_x
_atom_site_fract_y
_atom_site_fract_z
_atom_site_type_symbol
Cd         0.0      0.0      0.0    Cd
H        0.004   0.7991   0.2622     H
N       0.0201   0.0266   0.4184     N
N       0.0384   0.8829   0.7096     N
H       0.0561   0.3997   0.5582     H
H       0.0573   0.1806   0.8926     H
N       0.0651   0.7377   0.9154     N
N       0.0758   0.2052   0.4474     N
N       0.0878   0.5805   0.6298     N
N       0.0985   0.0985    0.197     N
C       0.1121   0.2087   0.2442     C
C       0.1122   0.4727   0.6086     C
N       0.1171   0.3288   0.2904     N
N       0.1187   0.8591   0.9886     N
C       0.1294   0.1813   0.9492     C
C       0.1311   0.0756   0.5116     C
C       0.1321   0.0355   0.2442     C
H       0.1398   0.5983    0.897     H
N       0.1409   0.1301   0.0114     N
C       0.1497   0.6811    0.935     C
N       0.1649   0.1848    0.532     N
N       0.1733   0.9616   0.2904     N
H       0.1753   0.0387   0.5536     H
C       0.1914    0.659   0.7064     C
H       0.2009   0.7418   0.7378     H
N       0.2251   0.4857    0.669     N
C       0.2321   0.8706   0.0508     C
N        0.239   0.2355   0.9804     N
N       0.2551    0.761   0.0196     N
H       0.2582   0.4631   0.2622     H
N       0.2623   0.1497   0.0846     N
H       0.2636     0.47    0.028     H
N       0.2643   0.2978   0.9306     N
C       0.2717    0.416    0.965     C
N       0.2763   0.6064   0.7312     N
C        0.285   0.2546   0.8416     C
H       0.2866    0.175   0.8012     H
H        0.288   0.9427   0.1074     H
N       0.2917   0.4433    0.899     N
N       0.3029   0.3387    0.819     N
C       0.3189   0.2147    0.065     C
Cd    0.338148 0.338148 0.676296    Cd
C        0.341    0.485   0.2936     C
N       0.3671   0.3472    0.532     N
N       0.3672   0.7357   0.0694     N
N       0.3716   0.2422   0.4474     N
H       0.3738   0.7134   0.1988     H
H       0.3783   0.5149   0.5536     H
C       0.3805    0.436   0.5116     C
C        0.391   0.2695   0.3812     C
N       0.3936   0.5451   0.2688     N
N       0.3983   0.3918   0.4184     N
H       0.3991   0.2163   0.3182     H
H       0.4017   0.2428    0.103     H
C        0.413    0.715   0.1584     C
N       0.4195    0.458   0.3702     N
H        0.442   0.7364    0.972     H
N       0.4439   0.1833    0.669     N
C        0.451   0.7283    0.035     C
N       0.4549   0.1248   0.7312     N
H       0.4851   0.8247   0.4464     H
C       0.4964   0.1359   0.6086     C
H       0.5021   0.1585   0.5582     H
N       0.5143   0.5561    0.331     N
H       0.5146   0.6262   0.8012     H
C        0.515   0.0474   0.7064     C
N       0.5161   0.4803    0.819     N
N       0.5197   0.6971    0.181     N
C       0.5273   0.5036   0.3914     C
H         0.53   0.2356    0.972     H
H       0.5369    0.996   0.7378     H
N        0.542   0.0493   0.6298     N
N       0.5443   0.7083    0.101     N
C       0.5566    0.587   0.8416     C
N       0.5567   0.3927    0.101     N
C        0.564   0.8689   0.4884     C
C        0.584   0.3067    0.035     C
H       0.6003   0.4979   0.4418     H
N       0.6073   0.4557    0.899     N
N       0.6082   0.9799   0.5816     N
N       0.6528   0.8351    0.468     N
N       0.6613   0.4839    0.181     N
Cd    0.661852 0.661852 0.323704    Cd
N       0.6663   0.6328   0.9306     N
N       0.6712   0.8267   0.7096     N
C       0.6933    0.549    0.965     C
H       0.7013   0.8602    0.103     H
N       0.7022   0.3337   0.0694     N
C       0.7305   0.0098   0.6188     C
N       0.7414   0.7449   0.9804     N
C       0.7454   0.4434   0.1584     C
C       0.7461   0.8503    0.065     C
H       0.7572   0.2987    0.897     H
N       0.7578   0.9242   0.5526     N
H       0.7644    0.558    0.028     H
N       0.7645   0.2586   0.0196     N
H       0.7837   0.0809   0.6818     H
C       0.7853   0.2539    0.935     C
C       0.7913   0.8679   0.7558     C
N       0.7948   0.6284   0.5526     N
N       0.8152   0.6329    0.468     N
N       0.8167   0.7749    0.331     N
C       0.8187   0.1802   0.0508     C
H       0.8194   0.1647   0.1074     H
C       0.8198   0.7679   0.9492     C
N       0.8223   0.9349   0.0846     N
H        0.825   0.4854   0.1988     H
H       0.8353    0.712   0.8926     H
H       0.8415   0.9439   0.4418     H
N       0.8503   0.1777   0.9154     N
C       0.8641   0.8878   0.3914     C
N       0.8699   0.1295   0.9886     N
N       0.8705   0.8813   0.0114     N
N       0.8752   0.7237   0.2688     N
C       0.8883    0.609   0.6188     C
H       0.8981   0.6009   0.6818     H
N       0.9015   0.9015    0.803     N
H       0.9191   0.1019   0.3182     H
C       0.9244   0.6195   0.4884     C
N       0.9507   0.9122   0.3702     N
C       0.9526   0.8086   0.2936     C
H       0.9613   0.6217   0.4464     H
C       0.9645   0.8879   0.7558     C
N       0.9734   0.6017   0.5816     N
C       0.9902   0.1117   0.3812     C
