data_I
_chemical_name_common  '/home/zhangsd/repos/MofS-CGCNN/ML/data/WS24/clean_cifs/KOMGAV'
_cell_length_a 10.97090
_cell_length_b 10.97090
_cell_length_c 13.36729
_cell_angle_alpha 65.77232
_cell_angle_beta  65.77232
_cell_angle_gamma 60.00000
_space_group_name_H-M_alt      'P 1'


loop_
_space_group_symop_operation_xyz
  'x, y, z' 

loop_
_atom_site_label
_atom_site_fract_x
_atom_site_fract_y
_atom_site_fract_z
_atom_site_type_symbol
Cu         0.0      1.0      0.0    Cu
N       0.0081   0.8815   0.8218     N
N      0.02974  0.38834  0.77938     N
H       0.0339   0.1134   0.3099     H
N       0.0344   0.7854   0.1017     N
H       0.0428   0.6134   0.8099     H
C      0.05274  0.27564  0.87208     C
C      0.06643  0.07593  0.24831     C
C      0.07593  0.60933  0.24831     C
N       0.0785   0.0344   0.1017     N
C      0.10933  0.57593  0.74831     C
N      0.11166  0.47026  0.72062     N
H       0.1134   0.5428   0.3099     H
N       0.1185   0.7114   0.1782     N
H       0.1204   0.2466   0.9109     H
N      0.19746  0.97026  0.22062     N
C      0.20046  0.94726  0.12792     C
N       0.2114   0.6185   0.6782     N
N       0.2146   0.9215   0.8983     N
H       0.2221   0.7466   0.4109     H
C      0.22436  0.44726  0.62792     C
H       0.2466   0.7221   0.9109     H
H       0.2534   0.3796   0.5891     H
C      0.27564  0.79954  0.87208     C
H       0.2779   0.8796   0.0891     H
N       0.2854   0.5344   0.6017     N
N       0.2886   0.0081   0.8218     N
C      0.29954  0.77564  0.37208     C
N      0.30254  0.88834  0.27938     N
H       0.3796   0.7779   0.5891     H
N       0.3815   0.5081   0.3218     N
H       0.3866   0.4661   0.1901     H
N      0.38834  0.80254  0.77938     N
C      0.39067  0.93357  0.75169     C
N       0.4215   0.7146   0.3983     N
C      0.42407  0.43357  0.25169     C
C      0.43357  0.89067  0.25169     C
C      0.44726  0.70046  0.62792     C
H       0.4572   0.9661   0.6901     H
N       0.4656   0.4215   0.3983     N
H       0.4661   0.9572   0.1901     H
N      0.47026  0.69746  0.72062     N
N       0.4919   0.2114   0.6782     N
Cu         0.5      0.5      0.5    Cu
N       0.5081   0.7886   0.3218     N
N      0.52974  0.30254  0.27938     N
H       0.5339   0.0428   0.8099     H
N       0.5344   0.5785   0.6017     N
H       0.5428   0.0339   0.3099     H
C      0.55274  0.29954  0.37208     C
C      0.56643  0.10933  0.74831     C
C      0.57593  0.56643  0.74831     C
N       0.5785   0.2854   0.6017     N
C      0.60933  0.06643  0.24831     C
N      0.61166  0.19746  0.22062     N
H       0.6134   0.5339   0.8099     H
N       0.6185   0.4919   0.6782     N
H       0.6204   0.2221   0.4109     H
N      0.69746  0.11166  0.72062     N
C      0.70046  0.22436  0.62792     C
N       0.7114   0.9919   0.1782     N
N       0.7146   0.4656   0.3983     N
H       0.7221   0.1204   0.9109     H
C      0.72436  0.20046  0.12792     C
H       0.7466   0.6204   0.4109     H
H       0.7534   0.2779   0.0891     H
C      0.77564  0.55274  0.37208     C
H       0.7779   0.2534   0.5891     H
N       0.7854   0.0785   0.1017     N
N       0.7886   0.3815   0.3218     N
C      0.79954  0.05274  0.87208     C
N      0.80254  0.02974  0.77938     N
H       0.8796   0.7534   0.0891     H
N       0.8815   0.2886   0.8218     N
H       0.8866   0.4572   0.6901     H
N      0.88834  0.52974  0.27938     N
C      0.89067  0.42407  0.25169     C
N       0.9215   0.9656   0.8983     N
C      0.92407  0.39067  0.75169     C
C      0.93357  0.92407  0.75169     C
C      0.94726  0.72436  0.12792     C
H       0.9572   0.3866   0.1901     H
N       0.9656   0.2146   0.8983     N
H       0.9661   0.8866   0.6901     H
N      0.97026  0.61166  0.22062     N
N       0.9919   0.1185   0.1782     N
