data_I
_chemical_name_common  '/home/zhangsd/repos/MofS-CGCNN/ML/data/WS24/clean_cifs/KOMGID'
_cell_length_a 12.74710
_cell_length_b 12.74710
_cell_length_c 22.54500
_cell_angle_alpha 90.00000
_cell_angle_beta  90.00000
_cell_angle_gamma 90.00000
_space_group_name_H-M_alt      'P 1'


loop_
_space_group_symop_operation_xyz
  'x, y, z' 

loop_
_atom_site_label
_atom_site_fract_x
_atom_site_fract_y
_atom_site_fract_z
_atom_site_type_symbol
Cd         0.0      0.0      0.0    Cd
Cd         0.0      0.0  0.33958    Cd
Cd         0.0      0.0  0.66042    Cd
N       0.0015   0.8356  0.54677     N
N       0.0236   0.1528   0.7734     N
H       0.0359   0.2644   0.4839     H
C       0.0585   0.2223  0.51513     C
N        0.063   0.1131  0.58735     N
H       0.0685   0.2478   0.8386     H
N       0.0798   0.2452   0.3642     N
N       0.0859   0.1007  0.73289     N
C       0.0884   0.2047   0.8074     C
H       0.0957   0.7591   0.2773     H
H       0.0982   0.7559   0.9474     H
N       0.1007   0.9141  0.26711     N
N       0.1057   0.1527   0.3365     N
N       0.1115   0.2143  0.95877     N
N       0.1131    0.937  0.41265     N
H       0.1187   0.7743   0.7164     H
H       0.1191   0.6537   0.1352     H
H       0.1211    0.783   0.4004     H
C       0.1215   0.8164   0.2563     C
N       0.1261   0.8702   0.0059     N
N       0.1298   0.1261   0.9941     N
C       0.1435   0.7851   0.9752     C
C       0.1436   0.8415  0.42145     C
C       0.1514   0.3121   0.3511     C
N       0.1527   0.8943   0.6635     N
N       0.1528   0.9764   0.2266     N
H       0.1537   0.3809   0.3648     H
H       0.1559   0.6951   0.5499     H
C       0.1585   0.1436  0.57855     C
N        0.159    0.214  0.53331     N
N       0.1644   0.0015  0.45323     N
C       0.1684   0.8086   0.6932     C
C       0.1836   0.1215   0.7437     C
N       0.1867   0.8122  0.20933     N
C       0.1871   0.2793   0.9684     C
N       0.1878   0.1867  0.79067     N
C       0.1879   0.6514   0.1489     C
C       0.1914   0.1684   0.3068     C
H       0.1951   0.3441   0.9501     H
C       0.2047   0.9116   0.1926     C
N        0.214    0.841  0.46669     N
N       0.2143   0.8885  0.04123     N
C       0.2149   0.1435   0.0248     C
H        0.217   0.1211   0.5996     H
C       0.2207   0.6871   0.5316     C
C       0.2223   0.9415  0.48487     C
N       0.2224   0.2681   0.3149     N
H       0.2257   0.1187   0.2836     H
N       0.2319   0.7224   0.1851     N
H       0.2356   0.5359   0.0161     H
N       0.2384   0.7467  0.99048     N
H       0.2409   0.0957   0.7227     H
H       0.2441   0.0982   0.0526     H
N       0.2452   0.9202   0.6358     N
N       0.2467   0.2616  0.50952     N
H       0.2478   0.9315   0.1614     H
H       0.2522   0.5685   0.6614     H
N       0.2533   0.2384  0.00952     N
N       0.2548   0.5798   0.1358     N
H       0.2559   0.4018   0.5526     H
H       0.2591   0.4043   0.2227     H
N       0.2616   0.7533  0.49048     N
H       0.2644   0.9641   0.5161     H
N       0.2681   0.7776   0.6851     N
H       0.2743   0.3813   0.7836     H
N       0.2776   0.2319   0.8149     N
C       0.2777   0.5585  0.98487     C
C       0.2793   0.8129   0.0316     C
H        0.283   0.3789   0.0996     H
C       0.2851   0.3565   0.5248     C
N       0.2857   0.6115  0.54123     N
N        0.286    0.659  0.96669     N
C       0.2953   0.5884   0.6926     C
H       0.3049   0.1559   0.4501     H
C       0.3086   0.3316   0.8068     C
C       0.3121   0.8486   0.6489     C
N       0.3122   0.3133  0.29067     N
C       0.3129   0.2207   0.4684     C
N       0.3133   0.6878  0.70933     N
C       0.3164   0.3785   0.2437     C
C       0.3316   0.6914   0.1932     C
N       0.3356   0.4985  0.95323     N
N        0.341    0.286  0.03331     N
C       0.3415   0.3564  0.07855     C
H       0.3441   0.8049   0.0499     H
H       0.3463   0.1191   0.8648     H
N       0.3472   0.5236   0.7266     N
N       0.3473   0.6057   0.1635     N
C       0.3486   0.1879   0.8511     C
C       0.3564   0.6585  0.92145     C
C       0.3565   0.7149   0.4752     C
N       0.3702   0.3739   0.4941     N
N       0.3739   0.6298   0.5059     N
C       0.3785   0.6836   0.7563     C
H       0.3789    0.717   0.9004     H
H       0.3809   0.8463   0.6352     H
H       0.3813   0.7257   0.2164     H
N       0.3869    0.563  0.91265     N
N       0.3885   0.2857  0.45877     N
N       0.3943   0.3473   0.8365     N
N       0.3993   0.5859  0.76711     N
H       0.4018   0.7441   0.4474     H
H       0.4043   0.7409   0.7773     H
C       0.4116   0.2953   0.3074     C
N       0.4141   0.3993  0.23289     N
N       0.4202   0.2548   0.8642     N
H       0.4315   0.2522   0.3386     H
N        0.437   0.3869  0.08735     N
C       0.4415   0.2777  0.01513     C
H       0.4641   0.2356   0.9839     H
N       0.4764   0.3472   0.2734     N
N       0.4985   0.6644  0.04677     N
Cd         0.5      0.5  0.16042    Cd
Cd         0.5      0.5      0.5    Cd
Cd         0.5      0.5  0.83958    Cd
N       0.5015   0.3356  0.04677     N
N       0.5236   0.6528   0.2734     N
H       0.5359   0.7644   0.9839     H
C       0.5585   0.7223  0.01513     C
N        0.563   0.6131  0.08735     N
H       0.5685   0.7478   0.3386     H
N       0.5798   0.7452   0.8642     N
N       0.5859   0.6007  0.23289     N
C       0.5884   0.7047   0.3074     C
H       0.5957   0.2591   0.7773     H
H       0.5982   0.2559   0.4474     H
N       0.6007   0.4141  0.76711     N
N       0.6057   0.6527   0.8365     N
N       0.6115   0.7143  0.45877     N
N       0.6131    0.437  0.91265     N
H       0.6187   0.2743   0.2164     H
H       0.6191   0.1537   0.6352     H
H       0.6211    0.283   0.9004     H
C       0.6215   0.3164   0.7563     C
N       0.6261   0.3702   0.5059     N
N       0.6298   0.6261   0.4941     N
C       0.6435   0.2851   0.4752     C
C       0.6436   0.3415  0.92145     C
C       0.6514   0.8121   0.8511     C
N       0.6527   0.3943   0.1635     N
N       0.6528   0.4764   0.7266     N
H       0.6537   0.8809   0.8648     H
H       0.6559   0.1951   0.0499     H
C       0.6585   0.6436  0.07855     C
N        0.659    0.714  0.03331     N
N       0.6644   0.5015  0.95323     N
C       0.6684   0.3086   0.1932     C
C       0.6836   0.6215   0.2437     C
N       0.6867   0.3122  0.70933     N
C       0.6871   0.7793   0.4684     C
N       0.6878   0.6867  0.29067     N
C       0.6879   0.1514   0.6489     C
C       0.6914   0.6684   0.8068     C
H       0.6951   0.8441   0.4501     H
C       0.7047   0.4116   0.6926     C
N        0.714    0.341  0.96669     N
N       0.7143   0.3885  0.54123     N
C       0.7149   0.6435   0.5248     C
H        0.717   0.6211   0.0996     H
C       0.7207   0.1871   0.0316     C
C       0.7223   0.4415  0.98487     C
N       0.7224   0.7681   0.8149     N
H       0.7257   0.6187   0.7836     H
N       0.7319   0.2224   0.6851     N
H       0.7356   0.0359   0.5161     H
N       0.7384   0.2467  0.49048     N
H       0.7409   0.5957   0.2227     H
H       0.7441   0.5982   0.5526     H
N       0.7452   0.4202   0.1358     N
N       0.7467   0.7616  0.00952     N
H       0.7478   0.4315   0.6614     H
H       0.7522   0.0685   0.1614     H
N       0.7533   0.7384  0.50952     N
N       0.7548   0.0798   0.6358     N
H       0.7559   0.9018   0.0526     H
H       0.7591   0.9043   0.7227     H
N       0.7616   0.2533  0.99048     N
H       0.7644   0.4641   0.0161     H
N       0.7681   0.2776   0.1851     N
H       0.7743   0.8813   0.2836     H
N       0.7776   0.7319   0.3149     N
C       0.7777   0.0585  0.48487     C
C       0.7793   0.3129   0.5316     C
H        0.783   0.8789   0.5996     H
C       0.7851   0.8565   0.0248     C
N       0.7857   0.1115  0.04123     N
N        0.786    0.159  0.46669     N
C       0.7953   0.0884   0.1926     C
H       0.8049   0.6559   0.9501     H
C       0.8086   0.8316   0.3068     C
C       0.8121   0.3486   0.1489     C
N       0.8122   0.8133  0.79067     N
C       0.8129   0.7207   0.9684     C
N       0.8133   0.1878  0.20933     N
C       0.8164   0.8785   0.7437     C
C       0.8316   0.1914   0.6932     C
N       0.8356   0.9985  0.45323     N
N        0.841    0.786  0.53331     N
C       0.8415   0.8564  0.57855     C
H       0.8441   0.3049   0.5499     H
H       0.8463   0.6191   0.3648     H
N       0.8472   0.0236   0.2266     N
N       0.8473   0.1057   0.6635     N
C       0.8486   0.6879   0.3511     C
C       0.8564   0.1585  0.42145     C
C       0.8565   0.2149   0.9752     C
N       0.8702   0.8739   0.9941     N
N       0.8739   0.1298   0.0059     N
C       0.8785   0.1836   0.2563     C
H       0.8789    0.217   0.4004     H
H       0.8809   0.3463   0.1352     H
H       0.8813   0.2257   0.7164     H
N       0.8869    0.063  0.41265     N
N       0.8885   0.7857  0.95877     N
N       0.8943   0.8473   0.3365     N
N       0.8993   0.0859  0.26711     N
H       0.9018   0.2441   0.9474     H
H       0.9043   0.2409   0.2773     H
C       0.9116   0.7953   0.8074     C
N       0.9141   0.8993  0.73289     N
N       0.9202   0.7548   0.3642     N
H       0.9315   0.7522   0.8386     H
N        0.937   0.8869  0.58735     N
C       0.9415   0.7777  0.51513     C
H       0.9641   0.7356   0.4839     H
N       0.9764   0.8472   0.7734     N
N       0.9985   0.1644  0.54677     N
