data_I
_chemical_name_common  '/home/zhangsd/repos/MofS-CGCNN/ML/data/WS24/clean_cifs/KUMGOQ'
_cell_length_a  9.28230
_cell_length_b 14.57500
_cell_length_c 19.37100
_cell_angle_alpha 90.00000
_cell_angle_beta  98.05000
_cell_angle_gamma 90.00000
_space_group_name_H-M_alt      'P 1'


loop_
_space_group_symop_operation_xyz
  'x, y, z' 

loop_
_atom_site_label
_atom_site_fract_x
_atom_site_fract_y
_atom_site_fract_z
_atom_site_type_symbol
C       0.0214   0.5453   0.1819     C
C       0.0214   0.9547   0.6819     C
S      0.03373  0.21602  0.77103     S
S      0.03373  0.28398  0.27103     S
H       0.0845   0.0106   0.1876     H
H       0.0845   0.4894   0.6876     H
N       0.0966   0.0168   0.6871     N
N       0.0966   0.4832   0.1871     N
Cu     0.11694  0.14224  0.31144    Cu
Cu     0.11694  0.35776  0.81144    Cu
S      0.16465   0.1012  0.93416     S
S      0.16465   0.3988  0.43416     S
C        0.176   0.0334   0.1826     C
C        0.176   0.4666   0.6826     C
H       0.1848   0.5293   0.5902     H
H       0.1848   0.9707   0.0902     H
Cu     0.20178  0.13593  0.71391    Cu
Cu     0.20178  0.36407  0.21391    Cu
W      0.22714  0.18905   0.8499     W
W      0.22714  0.31095   0.3499     W
C       0.2352   0.0083   0.1241     C
C       0.2352   0.4917   0.6241     C
N       0.2412   0.0881   0.2326     N
N       0.2412   0.4119   0.7326     N
Cu     0.24557  0.23308  0.98306    Cu
Cu     0.24557  0.26692  0.48306    Cu
N         0.25   0.1961   0.6298     N
N         0.25   0.3039   0.1298     N
C       0.2561   0.2268   0.5758     C
C       0.2561   0.2732   0.0758     C
S       0.3057  0.17558  0.39802     S
S       0.3057  0.32442  0.89802     S
C       0.3723    0.041   0.1177     C
C       0.3723    0.459   0.6177     C
C       0.3726   0.1183   0.2246     C
C       0.3726   0.3817   0.7246     C
N       0.3978   0.5578   0.5195     N
N       0.3978   0.9422   0.0195     N
S      0.39869  0.12524  0.80001     S
S      0.39869  0.37476  0.30001     S
H         0.42   0.1568   0.2588     H
H         0.42   0.3432   0.7588     H
C       0.4422   0.0195   0.0545     C
C       0.4422   0.4805   0.5545     C
C       0.4426   0.0962   0.1692     C
C       0.4426   0.4038   0.6692     C
N       0.4587   0.5776   0.4628     N
N       0.4587   0.9224   0.9628     N
H       0.4642    0.618   0.3335     H
H       0.4642    0.882   0.8335     H
H       0.5358    0.118   0.1665     H
H       0.5358    0.382   0.6665     H
N       0.5413   0.0776   0.0372     N
N       0.5413   0.4224   0.5372     N
C       0.5574   0.5962   0.3308     C
C       0.5574   0.9038   0.8308     C
C       0.5578   0.5195   0.4455     C
C       0.5578   0.9805   0.9455     C
H         0.58   0.6568   0.2412     H
H         0.58   0.8432   0.7412     H
S      0.60131  0.62524  0.69999     S
S      0.60131  0.87476  0.19999     S
N       0.6022   0.0578   0.9805     N
N       0.6022   0.4422   0.4805     N
C       0.6274   0.6183   0.2754     C
C       0.6274   0.8817   0.7754     C
C       0.6277    0.541   0.3823     C
C       0.6277    0.959   0.8823     C
S       0.6943  0.67558  0.10198     S
S       0.6943  0.82442  0.60198     S
C       0.7439   0.7268   0.9242     C
C       0.7439   0.7732   0.4242     C
N         0.75   0.6961   0.8702     N
N         0.75   0.8039   0.3702     N
Cu     0.75443  0.73308  0.51694    Cu
Cu     0.75443  0.76692  0.01694    Cu
N       0.7588   0.5881   0.2674     N
N       0.7588   0.9119   0.7674     N
C       0.7648   0.5083   0.3759     C
C       0.7648   0.9917   0.8759     C
W      0.77286  0.68905   0.6501     W
W      0.77286  0.81095   0.1501     W
Cu     0.79822  0.63593  0.78609    Cu
Cu     0.79822  0.86407  0.28609    Cu
H       0.8152   0.0293   0.9098     H
H       0.8152   0.4707   0.4098     H
C        0.824   0.5334   0.3174     C
C        0.824   0.9666   0.8174     C
S      0.83535   0.6012  0.56584     S
S      0.83535   0.8988  0.06584     S
Cu     0.88306  0.64224  0.18856    Cu
Cu     0.88306  0.85776  0.68856    Cu
N       0.9034   0.5168   0.8129     N
N       0.9034   0.9832   0.3129     N
H       0.9155   0.5106   0.3124     H
H       0.9155   0.9894   0.8124     H
S      0.96627  0.71602  0.72897     S
S      0.96627  0.78398  0.22897     S
C       0.9786   0.0453   0.3181     C
C       0.9786   0.4547   0.8181     C
