data_I
_chemical_name_common  '/home/zhangsd/repos/MofS-CGCNN/ML/data/WS24/clean_cifs/KUMGUW'
_cell_length_a 27.54500
_cell_length_b 27.54500
_cell_length_c 13.55500
_cell_angle_alpha 90.00000
_cell_angle_beta  90.00000
_cell_angle_gamma 120.00000
_space_group_name_H-M_alt      'P 1'


loop_
_space_group_symop_operation_xyz
  'x, y, z' 

loop_
_atom_site_label
_atom_site_fract_x
_atom_site_fract_y
_atom_site_fract_z
_atom_site_type_symbol
N       0.0043   0.4948   0.0979     N
N       0.0043   0.5095   0.5979     N
N       0.0291   0.4087   0.6662     N
N       0.0291   0.6204   0.1662     N
N       0.0336   0.4111   0.8351     N
N       0.0336   0.6225   0.3351     N
C       0.0443   0.5119   0.4495     C
C       0.0443   0.5324   0.9495     C
N       0.0507   0.5205   0.5454     N
N       0.0507   0.5302   0.0454     N
H       0.0562   0.5046   0.2563     H
H       0.0562   0.5516   0.7563     H
C       0.0575   0.4216   0.7458     C
C       0.0575   0.6359   0.2458     C
C       0.0906   0.5186   0.2879     C
C       0.0906    0.572   0.7879     C
C       0.0945   0.5256    0.389     C
C       0.0945   0.5689    0.889     C
C       0.1169   0.4525   0.7404     C
C       0.1169   0.6644   0.2404     C
H       0.1187   0.4552   0.5977     H
H       0.1187   0.6635   0.0977     H
H       0.1328   0.4714   0.8743     H
H       0.1328   0.6614   0.3743     H
H       0.1374   0.5281   0.1651     H
H       0.1374   0.6093   0.6651     H
C       0.1398   0.5332   0.2331     C
C       0.1398   0.6066   0.7331     C
C       0.1408   0.4665   0.6543     C
C       0.1408   0.6743   0.1543     C
C       0.1462   0.5463   0.4334     C
C       0.1462   0.5999   0.9334     C
C       0.1487   0.4761   0.8119     C
C       0.1487   0.6726   0.3119     C
H       0.1498    0.551   0.5014     H
H       0.1498   0.5988   0.0014     H
N       0.1896    0.554   0.2776     N
N       0.1896   0.6356   0.7776     N
C       0.1925   0.5599   0.3755     C
C       0.1925   0.6326   0.8755     C
C       0.2007   0.4993   0.6447     C
C       0.2007   0.7014   0.1447     C
C       0.2062   0.5088   0.8031     C
C       0.2062   0.6974   0.3031     C
H       0.2165    0.505   0.5822     H
H       0.2165   0.7115   0.0822     H
H       0.2269   0.5229   0.8608     H
H       0.2269    0.704   0.3608     H
H       0.2271   0.5737    0.406     H
H       0.2271   0.6534    0.906     H
N       0.2332   0.5211   0.7207     N
N       0.2332   0.7121   0.2207     N
S       0.2596  0.58902  0.03473     S
S       0.2596  0.67058  0.53473     S
Cu     0.26201  0.58018  0.20194    Cu
Cu     0.26201  0.68183  0.70194    Cu
N       0.2879   0.5211   0.2207     N
N       0.2879   0.7668   0.7207     N
H       0.2885    0.505   0.0822     H
H       0.2885   0.7835   0.5822     H
H        0.296   0.5229   0.3608     H
H        0.296   0.7731   0.8608     H
C       0.2986   0.4993   0.1447     C
C       0.2986   0.7993   0.6447     C
C       0.3026   0.5088   0.3031     C
C       0.3026   0.7938   0.8031     C
Cu     0.31817  0.58018  0.70194    Cu
Cu     0.31817  0.73799  0.20194    Cu
C       0.3257   0.4665   0.1543     C
C       0.3257   0.8592   0.6543     C
C       0.3274   0.4761   0.3119     C
C       0.3274   0.8513   0.8119     C
S      0.32942  0.58902  0.53473     S
S      0.32942   0.7404  0.03473     S
W      0.33333  0.66667  0.08695     W
S      0.33333  0.66667   0.2563     S
W      0.33333  0.66667  0.58695     W
S      0.33333  0.66667   0.7563     S
C       0.3356   0.4525   0.2404     C
C       0.3356   0.8831   0.7404     C
H       0.3365   0.4552   0.0977     H
H       0.3365   0.8813   0.5977     H
H       0.3386   0.4714   0.3743     H
H       0.3386   0.8672   0.8743     H
H       0.3466   0.5737    0.906     H
H       0.3466   0.7729    0.406     H
C       0.3641   0.4216   0.2458     C
C       0.3641   0.9425   0.7458     C
N       0.3644    0.554   0.7776     N
N       0.3644   0.8104   0.2776     N
C       0.3674   0.5599   0.8755     C
C       0.3674   0.8075   0.3755     C
N       0.3775   0.4111   0.3351     N
N       0.3775   0.9664   0.8351     N
N       0.3796   0.4087   0.1662     N
N       0.3796   0.9709   0.6662     N
H       0.3907   0.5281   0.6651     H
H       0.3907   0.8626   0.1651     H
C       0.3934   0.5332   0.7331     C
C       0.3934   0.8602   0.2331     C
C       0.4001   0.5463   0.9334     C
C       0.4001   0.8538   0.4334     C
H       0.4012    0.551   0.0014     H
H       0.4012   0.8502   0.5014     H
N       0.4087   0.0291   0.8338     N
N       0.4087   0.3796   0.3338     N
S      0.41098  0.67058  0.03473     S
S      0.41098   0.7404  0.53473     S
N       0.4111   0.0336   0.6649     N
N       0.4111   0.3775   0.1649     N
Cu     0.41982  0.68183  0.20194    Cu
Cu     0.41982  0.73799  0.70194    Cu
C       0.4216   0.0575   0.7542     C
C       0.4216   0.3641   0.2542     C
H       0.4263   0.6534    0.406     H
H       0.4263   0.7729    0.906     H
C        0.428   0.5186   0.7879     C
C        0.428   0.9094   0.2879     C
C       0.4311   0.5256    0.889     C
C       0.4311   0.9055    0.389     C
C       0.4401   0.6326   0.3755     C
C       0.4401   0.8075   0.8755     C
N        0.446   0.6356   0.2776     N
N        0.446   0.8104   0.7776     N
H       0.4484   0.5046   0.7563     H
H       0.4484   0.9438   0.2563     H
H        0.449   0.5988   0.5014     H
H        0.449   0.8502   0.0014     H
C       0.4525   0.1169   0.7596     C
C       0.4525   0.3356   0.2596     C
C       0.4537   0.5999   0.4334     C
C       0.4537   0.8538   0.9334     C
H       0.4552   0.1187   0.9023     H
H       0.4552   0.3365   0.4023     H
C       0.4665   0.1408   0.8457     C
C       0.4665   0.3257   0.3457     C
C       0.4668   0.6066   0.2331     C
C       0.4668   0.8602   0.7331     C
C       0.4676   0.5119   0.9495     C
C       0.4676   0.9557   0.4495     C
N       0.4698   0.5205   0.0454     N
N       0.4698   0.9493   0.5454     N
H       0.4714   0.1328   0.6257     H
H       0.4714   0.3386   0.1257     H
H       0.4719   0.6093   0.1651     H
H       0.4719   0.8626   0.6651     H
C       0.4744   0.5689    0.389     C
C       0.4744   0.9055    0.889     C
C       0.4761   0.1487   0.6881     C
C       0.4761   0.3274   0.1881     C
H       0.4771    0.704   0.8608     H
H       0.4771   0.7731   0.3608     H
N       0.4789   0.7121   0.7207     N
N       0.4789   0.7668   0.2207     N
N       0.4795   0.5302   0.5454     N
N       0.4795   0.9493   0.0454     N
C       0.4814    0.572   0.2879     C
C       0.4814   0.9094   0.7879     C
C       0.4881   0.5324   0.4495     C
C       0.4881   0.9557   0.9495     C
N       0.4905   0.4948   0.5979     N
N       0.4905   0.9957   0.0979     N
C       0.4912   0.6974   0.8031     C
C       0.4912   0.7938   0.3031     C
N       0.4948   0.0043   0.4021     N
N       0.4948   0.4905   0.9021     N
H        0.495   0.7115   0.5822     H
H        0.495   0.7835   0.0822     H
H       0.4954   0.5516   0.2563     H
H       0.4954   0.9438   0.7563     H
C       0.4993   0.2007   0.8553     C
C       0.4993   0.2986   0.3553     C
C       0.5007   0.7014   0.6447     C
C       0.5007   0.7993   0.1447     C
H       0.5046   0.0562   0.2437     H
H       0.5046   0.4484   0.7437     H
H        0.505   0.2165   0.9178     H
H        0.505   0.2885   0.4178     H
N       0.5052   0.5095   0.0979     N
N       0.5052   0.9957   0.5979     N
C       0.5088   0.2062   0.6969     C
C       0.5088   0.3026   0.1969     C
N       0.5095   0.0043   0.9021     N
N       0.5095   0.5052   0.4021     N
C       0.5119   0.0443   0.0505     C
C       0.5119   0.4676   0.5505     C
C       0.5186   0.0906   0.2121     C
C       0.5186    0.428   0.7121     C
N       0.5205   0.0507   0.9546     N
N       0.5205   0.4698   0.4546     N
N       0.5211   0.2332   0.7793     N
N       0.5211   0.2879   0.2793     N
H       0.5229   0.2269   0.6392     H
H       0.5229    0.296   0.1392     H
C       0.5239   0.6726   0.8119     C
C       0.5239   0.8513   0.3119     C
C       0.5256   0.0945    0.111     C
C       0.5256   0.4311    0.611     C
H       0.5281   0.1374   0.3349     H
H       0.5281   0.3907   0.8349     H
H       0.5286   0.6614   0.8743     H
H       0.5286   0.8672   0.3743     H
N       0.5302   0.0507   0.4546     N
N       0.5302   0.4795   0.9546     N
C       0.5324   0.0443   0.5505     C
C       0.5324   0.4881   0.0505     C
C       0.5332   0.1398   0.2669     C
C       0.5332   0.3934   0.7669     C
C       0.5335   0.6743   0.6543     C
C       0.5335   0.8592   0.1543     C
H       0.5448   0.6635   0.5977     H
H       0.5448   0.8813   0.0977     H
C       0.5463   0.1462   0.0666     C
C       0.5463   0.4001   0.5666     C
C       0.5475   0.6644   0.7404     C
C       0.5475   0.8831   0.2404     C
H        0.551   0.1498   0.9986     H
H        0.551   0.4012   0.4986     H
H       0.5516   0.0562   0.7437     H
H       0.5516   0.4954   0.2437     H
N        0.554   0.1896   0.2224     N
N        0.554   0.3644   0.7224     N
C       0.5599   0.1925   0.1245     C
C       0.5599   0.3674   0.6245     C
C       0.5689   0.0945    0.611     C
C       0.5689   0.4744    0.111     C
C        0.572   0.0906   0.7121     C
C        0.572   0.4814   0.2121     C
H       0.5737   0.2271    0.094     H
H       0.5737   0.3466    0.594     H
C       0.5784   0.6359   0.7458     C
C       0.5784   0.9425   0.2458     C
Cu     0.58018  0.26201  0.29806    Cu
Cu     0.58018  0.31817  0.79806    Cu
N       0.5889   0.6225   0.8351     N
N       0.5889   0.9664   0.3351     N
S      0.58902   0.2596  0.46527     S
S      0.58902  0.32942  0.96527     S
N       0.5913   0.6204   0.6662     N
N       0.5913   0.9709   0.1662     N
H       0.5988   0.1498   0.4986     H
H       0.5988    0.449   0.9986     H
C       0.5999   0.1462   0.5666     C
C       0.5999   0.4537   0.0666     C
C       0.6066   0.1398   0.7669     C
C       0.6066   0.4668   0.2669     C
H       0.6093   0.1374   0.8349     H
H       0.6093   0.4719   0.3349     H
N       0.6204   0.0291   0.3338     N
N       0.6204   0.5913   0.8338     N
N       0.6225   0.0336   0.1649     N
N       0.6225   0.5889   0.6649     N
C       0.6326   0.1925   0.6245     C
C       0.6326   0.4401   0.1245     C
N       0.6356   0.1896   0.7224     N
N       0.6356    0.446   0.2224     N
C       0.6359   0.0575   0.2542     C
C       0.6359   0.5784   0.7542     C
H       0.6534   0.2271    0.594     H
H       0.6534   0.4263    0.094     H
H       0.6614   0.1328   0.1257     H
H       0.6614   0.5286   0.6257     H
H       0.6635   0.1187   0.4023     H
H       0.6635   0.5448   0.9023     H
C       0.6644   0.1169   0.2596     C
C       0.6644   0.5475   0.7596     C
S      0.66667  0.33333   0.2437     S
W      0.66667  0.33333  0.41305     W
S      0.66667  0.33333   0.7437     S
W      0.66667  0.33333  0.91305     W
S      0.67058   0.2596  0.96527     S
S      0.67058  0.41098  0.46527     S
C       0.6726   0.1487   0.1881     C
C       0.6726   0.5239   0.6881     C
C       0.6743   0.1408   0.3457     C
C       0.6743   0.5335   0.8457     C
Cu     0.68183  0.26201  0.79806    Cu
Cu     0.68183  0.41982  0.29806    Cu
C       0.6974   0.2062   0.1969     C
C       0.6974   0.4912   0.6969     C
C       0.7014   0.2007   0.3553     C
C       0.7014   0.5007   0.8553     C
H        0.704   0.2269   0.1392     H
H        0.704   0.4771   0.6392     H
H       0.7115   0.2165   0.4178     H
H       0.7115    0.495   0.9178     H
N       0.7121   0.2332   0.2793     N
N       0.7121   0.4789   0.7793     N
Cu     0.73799  0.31817  0.29806    Cu
Cu     0.73799  0.41982  0.79806    Cu
S       0.7404  0.32942  0.46527     S
S       0.7404  0.41098  0.96527     S
N       0.7668   0.2879   0.7793     N
N       0.7668   0.4789   0.2793     N
H       0.7729   0.3466    0.094     H
H       0.7729   0.4263    0.594     H
H       0.7731    0.296   0.6392     H
H       0.7731   0.4771   0.1392     H
H       0.7835   0.2885   0.9178     H
H       0.7835    0.495   0.4178     H
C       0.7938   0.3026   0.6969     C
C       0.7938   0.4912   0.1969     C
C       0.7993   0.2986   0.8553     C
C       0.7993   0.5007   0.3553     C
C       0.8075   0.3674   0.1245     C
C       0.8075   0.4401   0.6245     C
N       0.8104   0.3644   0.2224     N
N       0.8104    0.446   0.7224     N
H       0.8502   0.4012   0.9986     H
H       0.8502    0.449   0.4986     H
C       0.8513   0.3274   0.6881     C
C       0.8513   0.5239   0.1881     C
C       0.8538   0.4001   0.0666     C
C       0.8538   0.4537   0.5666     C
C       0.8592   0.3257   0.8457     C
C       0.8592   0.5335   0.3457     C
C       0.8602   0.3934   0.2669     C
C       0.8602   0.4668   0.7669     C
H       0.8626   0.3907   0.3349     H
H       0.8626   0.4719   0.8349     H
H       0.8672   0.3386   0.6257     H
H       0.8672   0.5286   0.1257     H
H       0.8813   0.3365   0.9023     H
H       0.8813   0.5448   0.4023     H
C       0.8831   0.3356   0.7596     C
C       0.8831   0.5475   0.2596     C
C       0.9055   0.4311    0.111     C
C       0.9055   0.4744    0.611     C
C       0.9094    0.428   0.2121     C
C       0.9094   0.4814   0.7121     C
C       0.9425   0.3641   0.7542     C
C       0.9425   0.5784   0.2542     C
H       0.9438   0.4484   0.2437     H
H       0.9438   0.4954   0.7437     H
N       0.9493   0.4698   0.9546     N
N       0.9493   0.4795   0.4546     N
C       0.9557   0.4676   0.0505     C
C       0.9557   0.4881   0.5505     C
N       0.9664   0.3775   0.6649     N
N       0.9664   0.5889   0.1649     N
N       0.9709   0.3796   0.8338     N
N       0.9709   0.5913   0.3338     N
N       0.9957   0.4905   0.4021     N
N       0.9957   0.5052   0.9021     N
