data_I
_chemical_name_common  '/home/zhangsd/repos/MofS-CGCNN/ML/data/WS24/clean_cifs/LAGCUU'
_cell_length_a 20.94730
_cell_length_b 13.35320
_cell_length_c 11.15540
_cell_angle_alpha 90.00000
_cell_angle_beta  90.00000
_cell_angle_gamma 90.00000
_space_group_name_H-M_alt      'P 1'


loop_
_space_group_symop_operation_xyz
  'x, y, z' 

loop_
_atom_site_label
_atom_site_fract_x
_atom_site_fract_y
_atom_site_fract_z
_atom_site_type_symbol
H        0.007    0.356   0.5152     H
H        0.007    0.644   0.0152     H
C       0.0089    0.408    0.929     C
C       0.0089    0.592    0.429     C
H       0.0225   0.3743   0.8542     H
H       0.0225   0.6257   0.3542     H
H        0.027   0.4686   0.1561     H
H        0.027   0.5314   0.6561     H
C       0.0446   0.4808   0.5989     C
C       0.0446   0.5192   0.0989     C
C       0.0663   0.4616   0.9854     C
C       0.0663   0.5384   0.4854     C
H        0.085    0.491   0.4268     H
H        0.085    0.509   0.9268     H
H       0.0984   0.1912   0.8512     H
H       0.0984   0.8088   0.3512     H
H       0.0994   0.4119   0.0071     H
H       0.0994   0.5881   0.5071     H
H       0.1014   0.2413   0.9816     H
H       0.1014   0.7587   0.4816     H
C       0.1031   0.4331   0.6594     C
C       0.1031   0.5669   0.1594     C
O       0.1134   0.3423   0.6486     O
O       0.1134   0.6577   0.1486     O
C        0.123   0.1936    0.927     C
C        0.123   0.8064    0.427     C
N       0.1234   0.0934   0.9822     N
N       0.1234   0.9066   0.4822     N
H       0.1318   0.0184   0.8255     H
H       0.1318   0.9816   0.3255     H
H       0.1376   0.1463   0.1504     H
H       0.1376   0.8537   0.6504     H
O       0.1405   0.4922   0.7148     O
O       0.1405   0.5078   0.2148     O
H       0.1455   0.0498   0.4405     H
H       0.1455   0.9502   0.9405     H
H       0.1497   0.0284   0.1389     H
H       0.1497   0.9716   0.6389     H
C       0.1529   0.0171   0.9049     C
C       0.1529   0.9829   0.4049     C
C       0.1566   0.0938    0.099     C
C       0.1566   0.9062    0.599     C
H        0.201   0.4485   0.4965     H
H        0.201   0.5515   0.9965     H
P      0.20538  0.23876  0.89568     P
P      0.20538  0.76124  0.39568     P
H       0.2145   0.1209   0.7392     H
H       0.2145   0.2743   0.5444     H
H       0.2145   0.7257   0.0444     H
H       0.2145   0.8791   0.2392     H
H       0.2183   0.3675   0.3063     H
H       0.2183   0.6325   0.8063     H
H       0.2201   0.2628    0.104     H
H       0.2201   0.7372    0.604     H
N       0.2219   0.0318   0.8885     N
N       0.2219   0.9682   0.3885     N
Ag     0.22215  0.39144  0.79021    Ag
Ag     0.22215  0.60856  0.29021    Ag
N       0.2259    0.112   0.0883     N
N       0.2259    0.888   0.5883     N
C       0.2351    0.126   0.8189     C
C       0.2351    0.874   0.3189     C
C       0.2388   0.2146   0.0464     C
C       0.2388   0.7854   0.5464     C
C       0.2469   0.4632   0.5079     C
C       0.2469   0.5368   0.0079     C
H       0.2497   0.0297   0.5466     H
H       0.2497   0.9703   0.0466     H
H       0.2503   0.4703   0.0466     H
H       0.2503   0.5297   0.5466     H
C       0.2531   0.0368   0.0079     C
C       0.2531   0.9632   0.5079     C
C       0.2612   0.2854   0.5464     C
C       0.2612   0.7146   0.0464     C
C       0.2649    0.374   0.3189     C
C       0.2649    0.626   0.8189     C
N       0.2741    0.388   0.5883     N
N       0.2741    0.612   0.0883     N
Ag     0.27785  0.10856  0.29021    Ag
Ag     0.27785  0.89144  0.79021    Ag
N       0.2781   0.4682   0.3885     N
N       0.2781   0.5318   0.8885     N
H       0.2799   0.2372    0.604     H
H       0.2799   0.7628    0.104     H
H       0.2817   0.1325   0.8063     H
H       0.2817   0.8675   0.3063     H
H       0.2855   0.2257   0.0444     H
H       0.2855   0.3791   0.2392     H
H       0.2855   0.6209   0.7392     H
H       0.2855   0.7743   0.5444     H
P      0.29462  0.26124  0.39568     P
P      0.29462  0.73876  0.89568     P
H        0.299   0.0515   0.9965     H
H        0.299   0.9485   0.4965     H
C       0.3434   0.4062    0.599     C
C       0.3434   0.5938    0.099     C
C       0.3471   0.4829   0.4049     C
C       0.3471   0.5171   0.9049     C
H       0.3503   0.4716   0.6389     H
H       0.3503   0.5284   0.1389     H
H       0.3545   0.4502   0.9405     H
H       0.3545   0.5498   0.4405     H
O       0.3595   0.0078   0.2148     O
O       0.3595   0.9922   0.7148     O
H       0.3624   0.3537   0.6504     H
H       0.3624   0.6463   0.1504     H
H       0.3682   0.4816   0.3255     H
H       0.3682   0.5184   0.8255     H
N       0.3766   0.4066   0.4822     N
N       0.3766   0.5934   0.9822     N
C        0.377   0.3064    0.427     C
C        0.377   0.6936    0.927     C
O       0.3866   0.1577   0.1486     O
O       0.3866   0.8423   0.6486     O
C       0.3969   0.0669   0.1594     C
C       0.3969   0.9331   0.6594     C
H       0.3986   0.2587   0.4816     H
H       0.3986   0.7413   0.9816     H
H       0.4006   0.0881   0.5071     H
H       0.4006   0.9119   0.0071     H
H       0.4016   0.3088   0.3512     H
H       0.4016   0.6912   0.8512     H
H        0.415    0.009   0.9268     H
H        0.415    0.991   0.4268     H
C       0.4337   0.0384   0.4854     C
C       0.4337   0.9616   0.9854     C
C       0.4554   0.0192   0.0989     C
C       0.4554   0.9808   0.5989     C
H        0.473   0.0314   0.6561     H
H        0.473   0.9686   0.1561     H
H       0.4775   0.1257   0.3542     H
H       0.4775   0.8743   0.8542     H
C       0.4911    0.092    0.429     C
C       0.4911    0.908    0.929     C
H        0.493    0.144   0.0152     H
H        0.493    0.856   0.5152     H
H        0.507    0.144   0.4848     H
H        0.507    0.856   0.9848     H
C       0.5089    0.092    0.071     C
C       0.5089    0.908    0.571     C
H       0.5225   0.1257   0.1458     H
H       0.5225   0.8743   0.6458     H
H        0.527   0.0314   0.8439     H
H        0.527   0.9686   0.3439     H
C       0.5446   0.0192   0.4011     C
C       0.5446   0.9808   0.9011     C
C       0.5663   0.0384   0.0146     C
C       0.5663   0.9616   0.5146     C
H        0.585    0.009   0.5732     H
H        0.585    0.991   0.0732     H
H       0.5984   0.3088   0.1488     H
H       0.5984   0.6912   0.6488     H
H       0.5994   0.0881   0.9929     H
H       0.5994   0.9119   0.4929     H
H       0.6014   0.2587   0.0184     H
H       0.6014   0.7413   0.5184     H
C       0.6031   0.0669   0.3406     C
C       0.6031   0.9331   0.8406     C
O       0.6134   0.1577   0.3514     O
O       0.6134   0.8423   0.8514     O
C        0.623   0.3064    0.073     C
C        0.623   0.6936    0.573     C
N       0.6234   0.4066   0.0178     N
N       0.6234   0.5934   0.5178     N
H       0.6318   0.4816   0.1745     H
H       0.6318   0.5184   0.6745     H
H       0.6376   0.3537   0.8496     H
H       0.6376   0.6463   0.3496     H
O       0.6405   0.0078   0.2852     O
O       0.6405   0.9922   0.7852     O
H       0.6455   0.4502   0.5595     H
H       0.6455   0.5498   0.0595     H
H       0.6497   0.4716   0.8611     H
H       0.6497   0.5284   0.3611     H
C       0.6529   0.4829   0.0951     C
C       0.6529   0.5171   0.5951     C
C       0.6566   0.4062    0.901     C
C       0.6566   0.5938    0.401     C
H        0.701   0.0515   0.5035     H
H        0.701   0.9485   0.0035     H
P      0.70538  0.26124  0.10432     P
P      0.70538  0.73876  0.60432     P
H       0.7145   0.2257   0.4556     H
H       0.7145   0.3791   0.2608     H
H       0.7145   0.6209   0.7608     H
H       0.7145   0.7743   0.9556     H
H       0.7183   0.1325   0.6937     H
H       0.7183   0.8675   0.1937     H
H       0.7201   0.2372    0.896     H
H       0.7201   0.7628    0.396     H
N       0.7219   0.4682   0.1115     N
N       0.7219   0.5318   0.6115     N
Ag     0.72215  0.10856  0.20979    Ag
Ag     0.72215  0.89144  0.70979    Ag
N       0.7259    0.388   0.9117     N
N       0.7259    0.612   0.4117     N
C       0.7351    0.374   0.1811     C
C       0.7351    0.626   0.6811     C
C       0.7388   0.2854   0.9536     C
C       0.7388   0.7146   0.4536     C
C       0.7469   0.0368   0.4921     C
C       0.7469   0.9632   0.9921     C
H       0.7497   0.4703   0.4534     H
H       0.7497   0.5297   0.9534     H
H       0.7503   0.0297   0.9534     H
H       0.7503   0.9703   0.4534     H
C       0.7531   0.4632   0.9921     C
C       0.7531   0.5368   0.4921     C
C       0.7612   0.2146   0.4536     C
C       0.7612   0.7854   0.9536     C
C       0.7649    0.126   0.6811     C
C       0.7649    0.874   0.1811     C
N       0.7741    0.112   0.4117     N
N       0.7741    0.888   0.9117     N
Ag     0.77785  0.39144  0.70979    Ag
Ag     0.77785  0.60856  0.20979    Ag
N       0.7781   0.0318   0.6115     N
N       0.7781   0.9682   0.1115     N
H       0.7799   0.2628    0.396     H
H       0.7799   0.7372    0.896     H
H       0.7817   0.3675   0.1937     H
H       0.7817   0.6325   0.6937     H
H       0.7855   0.1209   0.7608     H
H       0.7855   0.2743   0.9556     H
H       0.7855   0.7257   0.4556     H
H       0.7855   0.8791   0.2608     H
P      0.79462  0.23876  0.60432     P
P      0.79462  0.76124  0.10432     P
H        0.799   0.4485   0.0035     H
H        0.799   0.5515   0.5035     H
C       0.8434   0.0938    0.401     C
C       0.8434   0.9062    0.901     C
C       0.8471   0.0171   0.5951     C
C       0.8471   0.9829   0.0951     C
H       0.8503   0.0284   0.3611     H
H       0.8503   0.9716   0.8611     H
H       0.8545   0.0498   0.0595     H
H       0.8545   0.9502   0.5595     H
O       0.8595   0.4922   0.7852     O
O       0.8595   0.5078   0.2852     O
H       0.8624   0.1463   0.3496     H
H       0.8624   0.8537   0.8496     H
H       0.8682   0.0184   0.6745     H
H       0.8682   0.9816   0.1745     H
N       0.8766   0.0934   0.5178     N
N       0.8766   0.9066   0.0178     N
C        0.877   0.1936    0.573     C
C        0.877   0.8064    0.073     C
O       0.8866   0.3423   0.8514     O
O       0.8866   0.6577   0.3514     O
C       0.8969   0.4331   0.8406     C
C       0.8969   0.5669   0.3406     C
H       0.8986   0.2413   0.5184     H
H       0.8986   0.7587   0.0184     H
H       0.9006   0.4119   0.4929     H
H       0.9006   0.5881   0.9929     H
H       0.9016   0.1912   0.6488     H
H       0.9016   0.8088   0.1488     H
H        0.915    0.491   0.0732     H
H        0.915    0.509   0.5732     H
C       0.9337   0.4616   0.5146     C
C       0.9337   0.5384   0.0146     C
C       0.9554   0.4808   0.9011     C
C       0.9554   0.5192   0.4011     C
H        0.973   0.4686   0.3439     H
H        0.973   0.5314   0.8439     H
H       0.9775   0.3743   0.6458     H
H       0.9775   0.6257   0.1458     H
C       0.9911    0.408    0.571     C
C       0.9911    0.592    0.071     C
H        0.993    0.356   0.9848     H
H        0.993    0.644   0.4848     H
