data_I
_chemical_name_common  '/home/zhangsd/repos/MofS-CGCNN/ML/data/WS24/clean_cifs/LAGCOO'
_cell_length_a 11.20600
_cell_length_b 11.61660
_cell_length_c 37.22090
_cell_angle_alpha 90.00000
_cell_angle_beta  90.00000
_cell_angle_gamma 90.00000
_space_group_name_H-M_alt      'P 1'


loop_
_space_group_symop_operation_xyz
  'x, y, z' 

loop_
_atom_site_label
_atom_site_fract_x
_atom_site_fract_y
_atom_site_fract_z
_atom_site_type_symbol
C       0.0171   0.6591    0.759     C
C       0.0171   0.8409    0.259     C
N       0.0172   0.5294   0.7614     N
N       0.0172   0.9706   0.2614     N
C       0.0279   0.5059   0.2019     C
C       0.0279   0.9941   0.7019     C
H       0.0298   0.5911   0.2009     H
H       0.0298   0.9089   0.7009     H
C       0.0346   0.6583   0.8316     C
C       0.0346   0.8417   0.3316     C
N       0.0396   0.5353   0.8284     N
N       0.0396   0.9647   0.3284     N
H       0.0495    0.182   0.6651     H
H       0.0495    0.318   0.1651     H
H       0.0524   0.6816   0.7357     H
H       0.0524   0.8184   0.2357     H
H       0.0667   0.1859   0.7408     H
H       0.0667   0.3141   0.2408     H
H       0.0792   0.6819   0.8534     H
H       0.0792   0.8181   0.3534     H
Ag     0.08455  0.56354  0.28787    Ag
Ag     0.08455  0.93646  0.78787    Ag
P       0.0951   0.7318  0.79356     P
P       0.0951   0.7682  0.29356     P
H       0.1111   0.0216   0.6994     H
H       0.1111   0.4784   0.1994     H
C       0.1497   0.0092   0.2607     C
C       0.1497   0.4908   0.7607     C
H        0.152   0.0944   0.2599     H
H        0.152   0.4056   0.7599     H
C       0.1631   0.0047   0.3256     C
C       0.1631   0.4953   0.8256     C
H       0.1636   0.0898   0.3271     H
H       0.1636   0.4102   0.8271     H
H       0.1865   0.5195   0.7383     H
H       0.1865   0.9805   0.2383     H
H       0.2083   0.5248   0.8466     H
H       0.2083   0.9752   0.3466     H
H       0.2144   0.1865   0.8109     H
H       0.2144   0.3135   0.3109     H
H       0.2259   0.1824   0.7681     H
H       0.2259   0.3176   0.2681     H
N       0.2262   0.5307   0.7923     N
N       0.2262   0.9693   0.2923     N
C       0.2345   0.6599   0.7909     C
C       0.2345   0.8401   0.2909     C
C       0.2655   0.1599   0.7909     C
C       0.2655   0.3401   0.2909     C
N       0.2738   0.0307   0.7923     N
N       0.2738   0.4693   0.2923     N
H       0.2741   0.6824   0.7681     H
H       0.2741   0.8176   0.2681     H
H       0.2856   0.6865   0.8109     H
H       0.2856   0.8135   0.3109     H
H       0.2917   0.0248   0.8466     H
H       0.2917   0.4752   0.3466     H
H       0.3135   0.0195   0.7383     H
H       0.3135   0.4805   0.2383     H
H       0.3364   0.5898   0.3271     H
H       0.3364   0.9102   0.8271     H
C       0.3369   0.5047   0.3256     C
C       0.3369   0.9953   0.8256     C
H        0.348   0.5944   0.2599     H
H        0.348   0.9056   0.7599     H
C       0.3503   0.5092   0.2607     C
C       0.3503   0.9908   0.7607     C
H       0.3889   0.5216   0.6994     H
H       0.3889   0.9784   0.1994     H
P       0.4049   0.2318  0.79356     P
P       0.4049   0.2682  0.29356     P
Ag     0.41545  0.06354  0.28787    Ag
Ag     0.41545  0.43646  0.78787    Ag
H       0.4208   0.1819   0.8534     H
H       0.4208   0.3181   0.3534     H
H       0.4333   0.6859   0.7408     H
H       0.4333   0.8141   0.2408     H
H       0.4476   0.1816   0.7357     H
H       0.4476   0.3184   0.2357     H
H       0.4505    0.682   0.6651     H
H       0.4505    0.818   0.1651     H
N       0.4604   0.0353   0.8284     N
N       0.4604   0.4647   0.3284     N
C       0.4654   0.1583   0.8316     C
C       0.4654   0.3417   0.3316     C
H       0.4702   0.0911   0.2009     H
H       0.4702   0.4089   0.7009     H
C       0.4721   0.0059   0.2019     C
C       0.4721   0.4941   0.7019     C
N       0.4828   0.0294   0.7614     N
N       0.4828   0.4706   0.2614     N
C       0.4829   0.1591    0.759     C
C       0.4829   0.3409    0.259     C
C       0.5171   0.6591    0.741     C
C       0.5171   0.8409    0.241     C
N       0.5172   0.5294   0.7386     N
N       0.5172   0.9706   0.2386     N
C       0.5279   0.5059   0.2981     C
C       0.5279   0.9941   0.7981     C
H       0.5298   0.5911   0.2991     H
H       0.5298   0.9089   0.7991     H
C       0.5346   0.6583   0.6684     C
C       0.5346   0.8417   0.1684     C
N       0.5396   0.5353   0.6716     N
N       0.5396   0.9647   0.1716     N
H       0.5495    0.182   0.8349     H
H       0.5495    0.318   0.3349     H
H       0.5524   0.6816   0.7643     H
H       0.5524   0.8184   0.2643     H
H       0.5667   0.1859   0.7592     H
H       0.5667   0.3141   0.2592     H
H       0.5792   0.6819   0.6466     H
H       0.5792   0.8181   0.1466     H
Ag     0.58455  0.56354  0.21213    Ag
Ag     0.58455  0.93646  0.71213    Ag
P       0.5951   0.7318  0.70644     P
P       0.5951   0.7682  0.20644     P
H       0.6111   0.0216   0.8006     H
H       0.6111   0.4784   0.3006     H
C       0.6497   0.0092   0.2393     C
C       0.6497   0.4908   0.7393     C
H        0.652   0.0944   0.2401     H
H        0.652   0.4056   0.7401     H
C       0.6631   0.0047   0.1744     C
C       0.6631   0.4953   0.6744     C
H       0.6636   0.0898   0.1729     H
H       0.6636   0.4102   0.6729     H
H       0.6865   0.5195   0.7617     H
H       0.6865   0.9805   0.2617     H
H       0.7083   0.5248   0.6534     H
H       0.7083   0.9752   0.1534     H
H       0.7144   0.1865   0.6891     H
H       0.7144   0.3135   0.1891     H
H       0.7259   0.1824   0.7319     H
H       0.7259   0.3176   0.2319     H
N       0.7262   0.5307   0.7077     N
N       0.7262   0.9693   0.2077     N
C       0.7345   0.6599   0.7091     C
C       0.7345   0.8401   0.2091     C
C       0.7655   0.1599   0.7091     C
C       0.7655   0.3401   0.2091     C
N       0.7738   0.0307   0.7077     N
N       0.7738   0.4693   0.2077     N
H       0.7741   0.6824   0.7319     H
H       0.7741   0.8176   0.2319     H
H       0.7856   0.6865   0.6891     H
H       0.7856   0.8135   0.1891     H
H       0.7917   0.0248   0.6534     H
H       0.7917   0.4752   0.1534     H
H       0.8135   0.0195   0.7617     H
H       0.8135   0.4805   0.2617     H
H       0.8364   0.5898   0.1729     H
H       0.8364   0.9102   0.6729     H
C       0.8369   0.5047   0.1744     C
C       0.8369   0.9953   0.6744     C
H        0.848   0.5944   0.2401     H
H        0.848   0.9056   0.7401     H
C       0.8503   0.5092   0.2393     C
C       0.8503   0.9908   0.7393     C
H       0.8889   0.5216   0.8006     H
H       0.8889   0.9784   0.3006     H
P       0.9049   0.2318  0.70644     P
P       0.9049   0.2682  0.20644     P
Ag     0.91545  0.06354  0.21213    Ag
Ag     0.91545  0.43646  0.71213    Ag
H       0.9208   0.1819   0.6466     H
H       0.9208   0.3181   0.1466     H
H       0.9333   0.6859   0.7592     H
H       0.9333   0.8141   0.2592     H
H       0.9476   0.1816   0.7643     H
H       0.9476   0.3184   0.2643     H
H       0.9505    0.682   0.8349     H
H       0.9505    0.818   0.3349     H
N       0.9604   0.0353   0.6716     N
N       0.9604   0.4647   0.1716     N
C       0.9654   0.1583   0.6684     C
C       0.9654   0.3417   0.1684     C
H       0.9702   0.0911   0.2991     H
H       0.9702   0.4089   0.7991     H
C       0.9721   0.0059   0.2981     C
C       0.9721   0.4941   0.7981     C
N       0.9828   0.0294   0.7386     N
N       0.9828   0.4706   0.2386     N
C       0.9829   0.1591    0.741     C
C       0.9829   0.3409    0.241     C
