data_I
_chemical_name_common  '/home/zhangsd/repos/MofS-CGCNN/ML/data/WS24/clean_cifs/LAVSUY'
_cell_length_a 10.29000
_cell_length_b 10.29000
_cell_length_c 14.50000
_cell_angle_alpha 90.00000
_cell_angle_beta  90.00000
_cell_angle_gamma 90.00000
_space_group_name_H-M_alt      'P 1'


loop_
_space_group_symop_operation_xyz
  'x, y, z' 

loop_
_atom_site_label
_atom_site_fract_x
_atom_site_fract_y
_atom_site_fract_z
_atom_site_type_symbol
H          0.0   0.1003      0.0     H
C          0.0   0.1907      0.0     C
C          0.0   0.3911      0.5     C
C          0.0   0.4602      0.0     C
C          0.0   0.5398      0.5     C
C          0.0   0.6089      0.0     C
C          0.0   0.8093      0.5     C
H          0.0   0.8997      0.5     H
C       0.0432   0.2608   0.0776     C
C       0.0432   0.7392   0.4224     C
C       0.0449   0.3954   0.0763     C
C       0.0449   0.6046   0.4237     C
O       0.0665   0.1127   0.6003     O
O       0.0665   0.8873   0.8997     O
O       0.0725   0.3362   0.4424     O
O       0.0725   0.6638   0.0576     O
H       0.0762   0.4415   0.1268     H
H       0.0762   0.5585   0.3732     H
C       0.0885   0.1838   0.1598     C
C       0.0885   0.8162   0.3402     C
O       0.0955   0.2415   0.2364     O
O       0.0955   0.7585   0.2636     O
H       0.1003      0.0     0.75     H
O       0.1127   0.0665   0.1497     O
O       0.1127   0.9335   0.3503     O
Y      0.14915  0.14915    0.375     Y
Y      0.14915  0.85085    0.125     Y
C       0.1838   0.0885   0.5902     C
C       0.1838   0.9115   0.9098     C
C       0.1907      0.0     0.75     C
O       0.2415   0.0955   0.5136     O
O       0.2415   0.9045   0.9864     O
C       0.2608   0.0432   0.6724     C
C       0.2608   0.9568   0.8276     C
O       0.3362   0.0725   0.3076     O
O       0.3362   0.9275   0.1924     O
C       0.3911      0.0     0.25     C
C       0.3954   0.0449   0.6737     C
C       0.3954   0.9551   0.8263     C
H       0.4415   0.0762   0.6232     H
H       0.4415   0.9238   0.8768     H
C       0.4602      0.0     0.75     C
C       0.5398      0.0     0.25     C
H       0.5585   0.0762   0.3768     H
H       0.5585   0.9238   0.1232     H
C       0.6046   0.0449   0.3263     C
C       0.6046   0.9551   0.1737     C
C       0.6089      0.0     0.75     C
O       0.6638   0.0725   0.6924     O
O       0.6638   0.9275   0.8076     O
C       0.7392   0.0432   0.3276     C
C       0.7392   0.9568   0.1724     C
O       0.7585   0.0955   0.4864     O
O       0.7585   0.9045   0.0136     O
C       0.8093      0.0     0.25     C
C       0.8162   0.0885   0.4098     C
C       0.8162   0.9115   0.0902     C
Y      0.85085  0.14915    0.625     Y
Y      0.85085  0.85085    0.875     Y
O       0.8873   0.0665   0.8503     O
O       0.8873   0.9335   0.6497     O
H       0.8997      0.0     0.25     H
O       0.9045   0.2415   0.7636     O
O       0.9045   0.7585   0.7364     O
C       0.9115   0.1838   0.8402     C
C       0.9115   0.8162   0.6598     C
H       0.9238   0.4415   0.8732     H
H       0.9238   0.5585   0.6268     H
O       0.9275   0.3362   0.5576     O
O       0.9275   0.6638   0.9424     O
O       0.9335   0.1127   0.3997     O
O       0.9335   0.8873   0.1003     O
C       0.9551   0.3954   0.9237     C
C       0.9551   0.6046   0.5763     C
C       0.9568   0.2608   0.9224     C
C       0.9568   0.7392   0.5776     C
