data_I
_chemical_name_common  '/home/zhangsd/repos/MofS-CGCNN/ML/data/WS24/clean_cifs/LAVTOT'
_cell_length_a 10.26700
_cell_length_b 10.26700
_cell_length_c 14.46200
_cell_angle_alpha 90.00000
_cell_angle_beta  90.00000
_cell_angle_gamma 90.00000
_space_group_name_H-M_alt      'P 1'


loop_
_space_group_symop_operation_xyz
  'x, y, z' 

loop_
_atom_site_label
_atom_site_fract_x
_atom_site_fract_y
_atom_site_fract_z
_atom_site_type_symbol
H          0.0   0.1025      0.0     H
C          0.0    0.193      0.0     C
C          0.0   0.3894      0.5     C
C          0.0   0.4651      0.0     C
C          0.0   0.5349      0.5     C
C          0.0   0.6106      0.0     C
C          0.0    0.807      0.5     C
H          0.0   0.8975      0.5     H
C       0.0438   0.2608   0.0773     C
C       0.0438   0.7392   0.4227     C
C       0.0444   0.3967   0.0771     C
C       0.0444   0.6033   0.4229     C
O        0.068   0.1116   0.5996     O
O        0.068   0.8884   0.9004     O
O       0.0719   0.3347  0.44175     O
O       0.0719   0.6653  0.05825     O
H       0.0746   0.4418   0.1286     H
H       0.0746   0.5582   0.3714     H
C       0.0868    0.184   0.1605     C
C       0.0868    0.816   0.3395     C
O       0.0943   0.2414  0.23714     O
O       0.0943   0.7586  0.26286     O
H       0.1025      0.0     0.75     H
O       0.1116    0.068   0.1504     O
O       0.1116    0.932   0.3496     O
Er     0.14741  0.14741    0.375    Er
Er     0.14741  0.85258    0.125    Er
C        0.184   0.0868   0.5895     C
C        0.184   0.9132   0.9105     C
C        0.193      0.0     0.75     C
O       0.2414   0.0943  0.51286     O
O       0.2414   0.9057  0.98714     O
C       0.2608   0.0438   0.6727     C
C       0.2608   0.9562   0.8273     C
O       0.3347   0.0719  0.30825     O
O       0.3347   0.9281  0.19175     O
C       0.3894      0.0     0.25     C
C       0.3967   0.0444   0.6729     C
C       0.3967   0.9556   0.8271     C
H       0.4418   0.0746   0.6214     H
H       0.4418   0.9254   0.8786     H
C       0.4651      0.0     0.75     C
C       0.5349      0.0     0.25     C
H       0.5582   0.0746   0.3786     H
H       0.5582   0.9254   0.1214     H
C       0.6033   0.0444   0.3271     C
C       0.6033   0.9556   0.1729     C
C       0.6106      0.0     0.75     C
O       0.6653   0.0719  0.69175     O
O       0.6653   0.9281  0.80825     O
C       0.7392   0.0438   0.3273     C
C       0.7392   0.9562   0.1727     C
O       0.7586   0.0943  0.48714     O
O       0.7586   0.9057  0.01286     O
C        0.807      0.0     0.25     C
C        0.816   0.0868   0.4105     C
C        0.816   0.9132   0.0895     C
Er     0.85258  0.14741    0.625    Er
Er     0.85258  0.85258    0.875    Er
O       0.8884    0.068   0.8496     O
O       0.8884    0.932   0.6504     O
H       0.8975      0.0     0.25     H
O       0.9057   0.2414  0.76286     O
O       0.9057   0.7586  0.73714     O
C       0.9132    0.184   0.8395     C
C       0.9132    0.816   0.6605     C
H       0.9254   0.4418   0.8714     H
H       0.9254   0.5582   0.6286     H
O       0.9281   0.3347  0.55825     O
O       0.9281   0.6653  0.94175     O
O        0.932   0.1116   0.4004     O
O        0.932   0.8884   0.0996     O
C       0.9556   0.3967   0.9229     C
C       0.9556   0.6033   0.5771     C
C       0.9562   0.2608   0.9227     C
C       0.9562   0.7392   0.5773     C
