data_I
_chemical_name_common  '/home/zhangsd/repos/MofS-CGCNN/ML/data/WS24/clean_cifs/LAZNAD'
_cell_length_a 15.25940
_cell_length_b 16.87700
_cell_length_c 17.53158
_cell_angle_alpha 82.31052
_cell_angle_beta  64.20214
_cell_angle_gamma 72.09400
_space_group_name_H-M_alt      'P 1'


loop_
_space_group_symop_operation_xyz
  'x, y, z' 

loop_
_atom_site_label
_atom_site_fract_x
_atom_site_fract_y
_atom_site_fract_z
_atom_site_type_symbol
C       0.0149   0.3076   0.6266     C
H       0.0193   0.1832   0.2272     H
C      0.02286   0.8172  0.61108     C
C        0.029   0.4079   0.1672     C
H       0.0306   0.6949   0.2108     H
N      0.03165    0.474   0.1161     N
O      0.03598   0.2647  0.56284     O
H       0.0372   0.6351   0.7154     H
C       0.0388   0.2818   0.7598     C
C       0.0389   0.4549   0.8522     C
C       0.0391   0.5879   0.7494     C
H       0.0392   0.4084   0.8872     H
O      0.04163   0.7743  0.54774     O
O      0.04872   0.8817  0.40736     O
C      0.04881   0.7888  0.74298     C
O      0.04901   0.3683  0.41858     O
O      0.05166   0.1201  0.36508     O
O      0.05938   0.6303  0.35004     O
H       0.0685     0.25    0.863     H
H       0.0736   0.0916   0.8872     H
H       0.0751   0.3568   0.1454     H
H       0.0771     0.75   0.8458     H
H       0.0794   0.9897    0.289     H
C      0.08148   0.2794  0.67224     C
H        0.088   0.1039   0.7512     H
H       0.0905   0.4772   0.4412     H
C      0.09053   0.7869  0.65514     C
H        0.091   0.4846    0.323     H
C       0.0979     0.25   0.8042     C
H       0.0989   0.9744   0.4378     H
H       0.0996    0.038   0.1554     H
C        0.105   0.9523   0.2448     C
C       0.1066     0.75   0.7868     C
C       0.1089   0.0451   0.8522     C
C      0.11049   0.5133  0.71622     C
O        0.111   0.4871    0.476     O
C       0.1115   0.4465     0.77     C
C      0.11276   0.8332  0.34748     C
C       0.1166   0.9808   0.1644     C
C       0.1185   0.0535     0.77     C
La    0.120272 0.134896 0.477226    La
O      0.12039   0.9816  0.47302     O
La    0.120688 0.642184 0.465624    La
C      0.12673   0.3239  0.36214     C
C      0.13169   0.8679  0.25922     C
Cu     0.14475  0.47377  0.00808    Cu
C      0.14572   0.4542  0.27736     C
N      0.14775    0.974   0.8839     N
O      0.15006   0.0631  0.60128     O
N      0.15064   0.9305  0.09912     N
Cu     0.15283  0.97377  0.99192    Cu
O      0.16019   0.2463  0.36322     O
O      0.16039   0.7591  0.35302     O
H       0.1608   0.3961   0.7512     H
H        0.167   0.5511      0.2     H
H       0.1671   0.4516   0.4696     H
C       0.1688   0.8146   0.1918     C
O      0.16909   0.5651  0.57742     O
Cl     0.17038  0.61952  0.01584    Cl
C      0.17329   0.9867  0.71622     C
C        0.176   0.8483    0.114     C
H       0.1782   0.9473   0.4632     H
C      0.18176   0.3691  0.28368     C
C      0.18266   0.5041  0.62388     C
Cl     0.18622  0.11952  0.98416    Cl
C       0.1867     0.25   0.6266     C
H       0.1884   0.7572    0.199     H
C      0.19149   0.4936  0.20302     C
C      0.19346   0.9959  0.62388     C
C       0.1953     0.75   0.6094     C
C       0.1962   0.9079   0.8328     C
H       0.1997   0.8121   0.0692     H
C       0.2014   0.2182   0.7598     C
C      0.20821   0.7112  0.74298     C
C       0.2115   0.9121   0.7494     C
H       0.2205   0.8568   0.8546     H
C       0.2349     0.25   0.5302     C
H       0.2414   0.1949   0.7892     H
C       0.2435     0.75    0.513     C
C      0.24628   0.2206  0.67224     C
H       0.2465   0.6832   0.7728     H
H       0.2474   0.8649   0.7154     H
O      0.24866   0.4369  0.60128     O
N      0.24976   0.4305  0.90088     N
O      0.25167   0.1842  0.49386     O
O      0.25349   0.9349  0.57742     O
C      0.25433   0.7131  0.65514     C
O      0.25447   0.3158  0.49386     O
H        0.255    0.538   0.8446     H
H       0.2578   0.1268   0.2448     H
O      0.25887   0.6851  0.47626     O
O      0.26487   0.8149  0.47626     O
C        0.265   0.3277   0.2148     C
H       0.2689   0.3121   0.9308     H
N      0.26924   0.4538  0.13512     N
H         0.27   0.1335   0.1092     H
O      0.27431   0.5701  0.34698     O
C        0.281   0.4808   0.8356     C
O      0.28522   0.0615  0.37376     O
C         0.29   0.3483    0.886     C
H       0.2932   0.2707   0.2174     H
C      0.29558   0.0808  0.20924     C
C        0.303   0.0842   0.1278     C
C       0.3056   0.3714   0.1426     C
Cu     0.31332  0.51553  0.03094    Cu
C      0.33498   0.9993  0.32684     C
C      0.33818   0.5007  0.32684     C
O      0.34102   0.4385  0.37376     O
Cu     0.34426  0.01553  0.96906    Cu
C      0.34457   0.0087  0.23706     C
C       0.3498   0.4523   0.7552     C
N      0.35516   0.0205  0.07468     N
C       0.3585   0.1924   0.6266     C
H       0.3586   0.5527   0.4632     H
C       0.3606   0.3146   0.8082     C
H       0.3612   0.3425   0.0964     H
H       0.3633   0.0484   0.4696     H
H       0.3647   0.6068    0.198     H
C      0.36606   0.6828  0.61108     C
H        0.367   0.0511      0.8     H
H       0.3684   0.4897    0.711     H
O      0.37871   0.9299  0.34698     O
H       0.3792   0.6335   0.8908     H
H       0.3874   0.2572    0.801     H
C      0.39091   0.3679  0.74078     C
C      0.39451   0.9936  0.79698     C
O      0.40118   0.2353  0.56284     O
C       0.4022   0.9427   0.1814     C
La    0.402502 0.365104 0.477226    La
N      0.40436   0.9538  0.86488     N
C       0.4063   0.9522   0.1004     C
O      0.40659   0.5184  0.47302     O
O      0.40942   0.1303  0.64996     O
O      0.41063   0.7257  0.54774     O
O        0.413   0.0129    0.476     O
La    0.413688 0.857816 0.465624    La
H        0.414   0.9846    0.677     H
C       0.4164   0.5573   0.1814     C
O      0.41674   0.6201  0.63492     O
C      0.41837   0.4913  0.23706     C
C      0.42308   0.9542  0.72264     C
N      0.42984   0.5205  0.92532     N
C       0.4308   0.5842   0.8722     C
H       0.4373   0.8932    0.198     H
H       0.4468   0.9086   0.0622     H
C       0.4482   0.8714   0.8574     C
O      0.45608   0.3817  0.59264     O
H       0.4576   0.8425   0.9036     H
C      0.46024   0.3332  0.65252     C
H       0.4633   0.5256   0.4378     H
C      0.46544   0.8691  0.71632     C
O      0.46759   0.8683  0.58142     O
H       0.4683   0.0228   0.4412     H
O      0.47659   0.2537  0.36322     O
C       0.4798   0.8277   0.7852     C
O      0.48659   0.7409  0.35302     O
C      0.48887   0.8239  0.63786     C
H       0.4894   0.2293   0.2174     H
H        0.491   0.5914   0.0622     H
C       0.4933   0.5478   0.1004     C
C      0.49518   0.4192  0.20924     C
H       0.4974   0.3732   0.2448     H
H       0.5026   0.6268   0.7552     H
C      0.50482   0.5808  0.79076     C
C       0.5067   0.4522   0.8996     C
H        0.509   0.4086   0.9378     H
H       0.5106   0.7707   0.7826     H
C      0.51113   0.1761  0.36214     C
O      0.51341   0.2591  0.64698     O
C       0.5202   0.1723   0.2148     C
O      0.52341   0.7463  0.63678     O
H       0.5317   0.9772   0.5588     H
O      0.53241   0.1317  0.41858     O
C      0.53456   0.1309  0.28368     C
H       0.5367   0.4744   0.5622     H
C      0.53976   0.6668  0.34748     C
H       0.5424   0.1575   0.0964     H
O      0.54392   0.6183  0.40736     O
C       0.5518   0.1286   0.1426     C
H       0.5532   0.0914   0.9378     H
H       0.5627   0.1068    0.802     H
C       0.5692   0.4158   0.1278     C
N      0.57016   0.4795  0.07468     N
C      0.57692   0.0458  0.27736     C
C      0.58163   0.5087  0.76294     C
O      0.58326   0.3799  0.36508     O
C       0.5836   0.4427   0.8186     C
H        0.586   0.0154    0.323     H
La    0.586312 0.142184 0.534376    La
O        0.587   0.9871    0.524     O
O      0.58937   0.2743  0.45226     O
O      0.59058   0.8697  0.35004     O
O      0.59341   0.4816  0.52698     O
C       0.5937   0.0478   0.8996     C
N      0.59564   0.0462  0.13512     N
La    0.597498 0.634896 0.522774    La
C       0.5978   0.0573   0.8186     C
O      0.59882   0.7647  0.43716     O
C      0.60549   0.0064  0.20302     C
C      0.60909   0.6321  0.25922     C
H       0.6126   0.7428    0.199     H
H       0.6208   0.3665   0.1092     H
O      0.62129   0.0701  0.65302     O
H       0.6316   0.5103    0.289     H
H        0.633   0.9489      0.2     H
C      0.63394   0.3172  0.38892     C
H       0.6353   0.3932    0.802     H
H       0.6367   0.9516   0.5304     H
H       0.6388   0.6575   0.9036     H
C       0.6394   0.6854   0.1918     C
H       0.6414   0.4473   0.5368     H
C       0.6415   0.8076   0.3734     C
N      0.64484   0.9795  0.92532     N
C       0.6502   0.5477   0.2448     C
C      0.65543   0.9913  0.76294     C
Cu     0.65574  0.98447  0.03094    Cu
O      0.65898   0.5615  0.62624     O
C      0.66182   0.4993  0.67316     C
C      0.66502   0.0007  0.67316     C
Cu     0.68668  0.48447  0.96906    Cu
C       0.6944   0.6286   0.8574     C
C        0.697   0.9158   0.8722     C
C      0.70442   0.9192  0.79076     C
H       0.7068   0.7293   0.7826     H
C         0.71   0.6517    0.114     C
O      0.71478   0.9385  0.62624     O
C        0.719   0.5192   0.1644     C
O      0.72569   0.4299  0.65302     O
H         0.73   0.8665   0.8908     H
N      0.73076   0.5462  0.86488     N
H       0.7311   0.6879   0.0692     H
C        0.735   0.6723   0.7852     C
O      0.73513   0.1851  0.52374     O
O      0.74113   0.3149  0.52374     O
H       0.7422   0.8732   0.7552     H
H        0.745    0.462   0.1554     H
O      0.74553   0.6842  0.50614     O
C      0.74567   0.2869  0.34486     C
O      0.74651   0.0651  0.42258     O
O      0.74833   0.8158  0.50614     O
N      0.75024   0.5695  0.09912     N
O      0.75134   0.5631  0.39872     O
H       0.7526   0.1351   0.2846     H
H       0.7535   0.3168   0.2272     H
C      0.75372   0.7794  0.32776     C
C       0.7565     0.25    0.487     C
H       0.7586   0.8051   0.2108     H
C       0.7651     0.75   0.4698     C
H       0.7795   0.1432   0.1454     H
C       0.7885   0.0879   0.2506     C
C      0.79179   0.2888  0.25702     C
C       0.7986   0.7818   0.2402     C
H       0.8003   0.1879   0.9308     H
C       0.8038   0.0921   0.1672     C
C       0.8047     0.25   0.3906     C
C      0.80654   0.0041  0.37612     C
C      0.80851   0.5064  0.79698     C
H       0.8116   0.2428    0.801     H
C       0.8133     0.75   0.3734     C
Cl     0.81378  0.88048  0.01584    Cl
C      0.81734   0.4959  0.37612     C
C      0.81824   0.6309  0.71632     C
H       0.8218   0.0527   0.5368     H
C        0.824   0.1517    0.886     C
C      0.82671   0.0133  0.28378     C
Cl     0.82962  0.38048  0.98416    Cl
O      0.83091   0.4349  0.42258     O
C       0.8312   0.1854   0.8082     C
H       0.8329   0.5484   0.5304     H
H        0.833   0.4489      0.8     H
H       0.8392   0.6039   0.2488     H
O      0.83961   0.2409  0.64698     O
O      0.83981   0.7537  0.63678     O
Cu     0.84717  0.02623  0.00808    Cu
N      0.84936   0.0695  0.90088     N
O      0.84994   0.9369  0.39872     O
N      0.85225    0.026   0.1161     N
C      0.85428   0.5458  0.72264     C
Cu     0.85525  0.52623  0.99192    Cu
C      0.86831   0.1321  0.74078     C
C      0.87327   0.6761  0.63786     C
La    0.879312 0.357816 0.534376    La
O      0.87961   0.0184  0.52698     O
La    0.879728 0.865104 0.522774    La
C       0.8815   0.9465     0.23     C
C       0.8834   0.0192   0.8356     C
C      0.88724   0.1668  0.65252     C
C       0.8885   0.5535     0.23     C
O        0.889   0.5129    0.524     O
C      0.88951   0.4867  0.28378     C
C       0.8911   0.9549   0.1478     C
C       0.8934     0.25   0.2132     C
C        0.895   0.0477   0.7552     C
H       0.9004    0.962   0.8446     H
H       0.9011   0.0256   0.5622     H
C       0.9021     0.75   0.1958     C
H        0.909   0.5154    0.677     H
C      0.90947   0.2131  0.34486     C
H       0.9095   0.5228   0.5588     H
H        0.912   0.8961   0.2488     H
C      0.91852   0.7206  0.32776     C
H       0.9206   0.0103    0.711     H
H       0.9229     0.25   0.1542     H
H       0.9249   0.6432   0.8546     H
H       0.9264   0.9084   0.1128     H
H       0.9315     0.75    0.137     H
O      0.94062   0.3697  0.64996     O
O      0.94834   0.8799  0.63492     O
O      0.95099   0.6317  0.58142     O
C      0.95119   0.2112  0.25702     C
O      0.95128   0.1183  0.59264     O
O      0.95837   0.2257  0.45226     O
H       0.9608   0.5916   0.1128     H
C       0.9609   0.4121   0.2506     C
C       0.9611   0.5451   0.1478     C
C       0.9612   0.7182   0.2402     C
H       0.9628   0.3649   0.2846     H
O      0.96402   0.7353  0.43716     O
N      0.96835    0.526   0.8839     N
H       0.9694   0.3051   0.7892     H
C        0.971   0.5921   0.8328     C
C      0.97714   0.1828  0.38892     C
H       0.9807   0.8168   0.7728     H
C       0.9851   0.6924   0.3734     C
