data_I
_chemical_name_common  '/home/zhangsd/repos/MofS-CGCNN/ML/data/WS24/clean_cifs/LAZNIL'
_cell_length_a 15.24850
_cell_length_b 16.85460
_cell_length_c 17.48627
_cell_angle_alpha 82.40452
_cell_angle_beta  64.15020
_cell_angle_gamma 72.35300
_space_group_name_H-M_alt      'P 1'


loop_
_space_group_symop_operation_xyz
  'x, y, z' 

loop_
_atom_site_label
_atom_site_fract_x
_atom_site_fract_y
_atom_site_fract_z
_atom_site_type_symbol
C      0.01727   0.8088  0.62286     C
C      0.02094   0.3165  0.61392     C
H       0.0213   0.6847   0.2238     H
H       0.0295   0.1956   0.2136     H
C      0.02952   0.9125  0.16376     C
N      0.02978   0.9792  0.11204     N
H       0.0354   0.1325   0.7192     H
O      0.03772   0.7655  0.55996     O
C      0.03846   0.0851  0.75288     C
C      0.04007   0.7818  0.75686     C
O      0.04033   0.2737  0.55094     O
C      0.04458   0.9508  0.85564     C
C        0.047   0.2881   0.7466     C
H       0.0483   0.9047   0.8908     H
O      0.04838   0.3803  0.40924     O
O      0.05105   0.8684   0.4155     O
O      0.05291   0.6207  0.36158     O
O      0.05658    0.129  0.35344     O
H       0.0609   0.5953   0.8908     H
H       0.0698     0.75   0.8604     H
H       0.0749     0.25   0.8502     H
H       0.0777   0.8624   0.1418     H
H       0.0811   0.6051   0.7528     H
C      0.08349   0.7802  0.66882     C
H       0.0836   0.4896   0.2928     H
H       0.0889   0.9769   0.4428     H
C      0.08942   0.2865  0.65836     C
H       0.0932   0.9846   0.3224     H
H       0.0977   0.4738   0.4382     H
C       0.0994     0.75   0.8012     C
C      0.09978   0.5492  0.85564     C
H       0.1036   0.5412   0.1596     H
C       0.1045     0.25    0.791     C
C      0.10756   0.4534  0.24788     C
O      0.10946   0.9867  0.47768     O
C      0.11174   0.0115  0.71912     C
C      0.11181   0.5555  0.77258     C
C      0.11302   0.3319  0.34856     C
C      0.11561   0.9445  0.77258     C
La    0.119071 0.142098 0.468266    La
O      0.11909   0.4815  0.47342     O
C      0.11933   0.4838  0.16754     C
La    0.120713 0.634971  0.47548    La
C      0.12873   0.8234  0.35854     C
C        0.132   0.3685   0.2602     C
N      0.14182   0.4792  0.88796     N
Cu     0.14637  0.98227   0.0061    Cu
C      0.14713   0.9553  0.27554     C
O      0.14808   0.5638  0.60164     O
N      0.15239   0.4348  0.10082     N
Cu     0.15247  0.48227   0.9939    Cu
O      0.15937    0.258  0.35366     O
O      0.16298   0.7463  0.35964     O
I     0.164517  0.14739 0.009986     I
H       0.1657   0.9515   0.4708     H
H       0.1661   0.8949   0.7528     H
H       0.1665   0.0547   0.2014     H
O      0.16746   0.0642  0.57928     O
C      0.16914   0.4885  0.71912     C
C      0.16928   0.3179  0.19104     C
I     0.174503  0.64739 0.990014     I
C      0.17643   0.3527  0.11334     C
H       0.1766   0.4472    0.464     H
C      0.18265   0.8702   0.2803     C
C      0.18292   0.0031  0.62576     C
C       0.1886     0.75   0.6228     C
H       0.1897   0.2604   0.1966     H
C      0.19052    0.997  0.20236     C
C      0.19132   0.4969  0.62576     C
C      0.19328   0.4125  0.83624     C
C       0.1937     0.25   0.6126     C
H       0.1989   0.3175   0.0678     H
C      0.20307   0.7182  0.75686     C
C       0.2064   0.2119   0.7466     C
C      0.20866   0.4149  0.75288     C
H       0.2195   0.3624   0.8582     H
C        0.237     0.75    0.526     C
C       0.2423     0.25   0.5154     C
H       0.2431   0.6956   0.7864     H
H       0.2451   0.1847   0.7762     H
H       0.2454   0.3675   0.7192     H
C      0.24769   0.7198  0.66882     C
O      0.25028   0.9362  0.60164     O
C      0.25222   0.2135  0.65836     C
O      0.25308   0.6841  0.49024     O
N      0.25321   0.9348  0.89918     N
O      0.25326   0.4358  0.57928     O
O      0.25668   0.8159  0.49024     O
O      0.25751   0.1852  0.47878     O
H       0.2632   0.0412   0.8404     H
O      0.26371   0.3148  0.47878     O
C      0.26448   0.8302  0.20964     C
H       0.2667   0.8175   0.9322     H
N      0.26709   0.9577  0.13142     N
H       0.2709   0.6293   0.2456     H
O      0.27177   0.0726  0.34746     O
H       0.2821   0.6407     0.11     H
C      0.28687   0.9838  0.83246     C
O      0.28701    0.559  0.37618     O
C      0.28977   0.8527  0.88666     C
H       0.2933   0.7732   0.2112     H
C       0.3036   0.8747    0.137     C
C      0.30454   0.5833  0.20972     C
Cu      0.3101   0.0238  0.02858    Cu
C      0.31112   0.5896  0.12856     C
C      0.33405   0.0027   0.3279     C
O      0.33681    0.941  0.37618     O
C      0.33805   0.4973   0.3279     C
Cu     0.33868   0.5238  0.97142    Cu
C      0.34805   0.5084   0.2373     C
C      0.35544   0.9534  0.75212     C
H       0.3576   0.8463   0.0896     H
N       0.3582   0.5246   0.0746     N
H       0.3594   0.0528    0.464     H
C      0.35987   0.6912  0.62286     C
C      0.36032   0.8179  0.80896     C
H       0.3635   0.5485   0.4708     H
C      0.36514   0.1835  0.61392     C
H       0.3679   0.5547   0.7986     H
H       0.3707   0.1091   0.1984     H
H       0.3764   0.9896   0.7072     H
O      0.38077   0.4274  0.34746     O
H       0.3863   0.7604   0.8034     H
H       0.3921   0.1407     0.89     H
C       0.3922   0.8685   0.7398     C
C      0.39288    0.497  0.79764     C
N      0.39851   0.4577  0.86858     N
C      0.39964   0.4421  0.18172     C
O      0.40232   0.7345  0.55996     O
La    0.403807 0.865029  0.47548    La
C      0.40389   0.4535  0.10062     C
O      0.40749   0.0185  0.47342     O
O      0.40873   0.2263  0.55094     O
O      0.41002    0.629  0.64656     O
La    0.412663 0.357902 0.468266    La
O      0.41286   0.5133  0.47768     O
O      0.41449   0.1207  0.63842     O
C      0.41465   0.9916   0.2373     C
H       0.4156   0.4846   0.6776     H
C      0.41864   0.0579  0.18172     C
C      0.42267   0.4553  0.72446     C
H       0.4309   0.3909   0.1984     H
N       0.4328   0.0246   0.9254     N
C      0.43968   0.0896  0.87144     C
C       0.4406   0.3747    0.863     C
H       0.4406   0.4093   0.0626     H
H       0.4472   0.3463   0.9104     H
O      0.45762   0.8803  0.59076     O
C      0.46158   0.8319  0.65144     C
C      0.46295   0.3702   0.7197     C
H       0.4641   0.0262   0.4382     H
O      0.46655   0.3684   0.5845     O
H       0.4683   0.5231   0.4428     H
C      0.47412   0.3302  0.79036     C
O      0.47738   0.7537  0.35964     O
H       0.4835   0.8707   0.2456     H
C      0.48574   0.9167  0.20972     C
O      0.48697    0.242  0.35366     O
C      0.48727   0.3234  0.64146     C
C      0.49549   0.0465  0.10062     C
H       0.4955   0.7268   0.2112     H
H       0.4968   0.0907   0.0626     H
H       0.5032   0.9093   0.9374     H
H       0.5045   0.2732   0.7888     H
C      0.50451   0.9535  0.89938     C
C      0.51273   0.6766  0.35854     C
O      0.51303    0.758  0.64634     O
C      0.51426   0.0833  0.79028     C
H       0.5165   0.1293   0.7544     H
O      0.52262   0.2463  0.64036     O
C      0.52588   0.6698  0.20964     C
H       0.5317   0.4769   0.5572     H
O      0.53345   0.6316   0.4155     O
H       0.5359   0.9738   0.5618     H
C      0.53705   0.6298   0.2803     C
C      0.53842   0.1681  0.34856     C
O      0.54238   0.1197  0.40924     O
H       0.5528   0.6537   0.0896     H
H       0.5594   0.5907   0.9374     H
C       0.5594   0.6253    0.137     C
C      0.56032   0.9104  0.12856     C
N       0.5672   0.9754   0.0746     N
H       0.5691   0.6091   0.8016     H
C      0.57733   0.5447  0.27554     C
C      0.58136   0.9421  0.81828     C
H       0.5844   0.5154   0.3224     H
C      0.58535   0.0084   0.7627     C
O      0.58551   0.8793  0.36158     O
O      0.58714   0.4867  0.52232     O
La    0.587337 0.642098 0.531734    La
O      0.58998    0.371  0.35344     O
O      0.59127   0.7737  0.44906     O
O      0.59251   0.9815  0.52658     O
C      0.59611   0.5465  0.89938     C
La    0.596193 0.134971  0.52452    La
O      0.59768   0.2655  0.44004     O
C      0.60036   0.5579  0.81828     C
N      0.60149   0.5423  0.13142     N
C      0.60712    0.503  0.20236     C
C       0.6078   0.1315   0.2602     C
H       0.6079   0.8593     0.11     H
H       0.6137   0.2396   0.1966     H
O      0.61923   0.5726  0.65254     O
H       0.6236   0.0104   0.2928     H
H       0.6293   0.8909   0.8016     H
H       0.6321   0.4453   0.2014     H
C      0.63486   0.8165  0.38608     C
H       0.6365   0.4515   0.5292     H
C      0.63968   0.1821  0.19104     C
C      0.64013   0.3088  0.37714     C
H       0.6406   0.9472    0.536     H
N       0.6418   0.4754   0.9254     N
H       0.6424   0.1537   0.9104     H
C      0.64456   0.0466  0.24788     C
C      0.65195   0.4916   0.7627     C
Cu     0.66132   0.4762  0.02858    Cu
C      0.66195   0.5027   0.6721     C
O      0.66319    0.059  0.62382     O
C      0.66595   0.9973   0.6721     C
C      0.68888   0.4104  0.87144     C
Cu      0.6899   0.9762  0.97142    Cu
C      0.69546   0.4167  0.79028     C
C       0.6964   0.1253    0.863     C
H       0.7067   0.2268   0.7888     H
C      0.71023   0.1473  0.11334     C
O      0.71299    0.441  0.62382     O
C      0.71313   0.0162  0.16754     C
H       0.7179   0.3593     0.89     H
O      0.72823   0.9274  0.65254     O
H       0.7291   0.3707   0.7544     H
N      0.73291   0.0423  0.86858     N
H       0.7333   0.1825   0.0678     H
C      0.73552   0.1698  0.79036     C
O      0.73629   0.6852  0.52122     O
H       0.7368   0.9588   0.1596     H
O      0.74249   0.8148  0.52122     O
O      0.74332   0.1841  0.50976     O
O      0.74674   0.5642  0.42072     O
N      0.74679   0.0652  0.10082     N
O      0.74692   0.3159  0.50976     O
C      0.74778   0.7865  0.34164     C
O      0.74972   0.0638  0.39836     O
C      0.75231   0.2802  0.33118     C
H       0.7546   0.6325   0.2808     H
H       0.7549   0.8153   0.2238     H
H       0.7569   0.3044   0.2136     H
C       0.7577     0.75   0.4846     C
C        0.763     0.25    0.474     C
H       0.7805   0.6376   0.1418     H
C      0.79134   0.5851  0.24712     C
C       0.7936   0.7881   0.2534     C
C      0.79693   0.2818  0.24314     C
H       0.8011   0.6825   0.9322     H
C       0.8063     0.75   0.3874     C
C      0.80672   0.5875  0.16376     C
C      0.80868   0.5031  0.37424     C
C      0.80948    0.003  0.79764     C
H       0.8103   0.7396   0.8034     H
C       0.8114     0.25   0.3772     C
C      0.81708   0.9969  0.37424     C
C      0.81735   0.1298   0.7197     C
H       0.8234   0.5528    0.536     H
C      0.82357   0.6473  0.88666     C
I     0.825497  0.35261 0.009986     I
C      0.83072   0.6821  0.80896     C
C      0.83086   0.5115  0.28088     C
O      0.83254   0.9358  0.42072     O
H       0.8335   0.9453   0.7986     H
H       0.8339   0.1051   0.2472     H
H       0.8343   0.0485   0.5292     H
I     0.835483  0.85261 0.990014     I
O      0.83702   0.2537  0.64036     O
O      0.84063    0.742  0.64634     O
Cu     0.84753  0.51773   0.0061    Cu
N      0.84761   0.5652  0.89918     N
O      0.85192   0.4362  0.39836     O
C      0.85287   0.0447  0.72446     C
Cu     0.85363  0.01773   0.9939    Cu
N      0.85818   0.5208  0.11204     N
C        0.868   0.6315   0.7398     C
C      0.87127   0.1766  0.64146     C
La    0.879287 0.365029  0.52452    La
C      0.88067   0.5162  0.83246     C
O      0.88091   0.5185  0.52658     O
La    0.880929 0.857902 0.531734    La
C      0.88439   0.0555  0.22742     C
C      0.88698   0.6681  0.65144     C
C      0.88819   0.4445  0.22742     C
C      0.88826   0.9885  0.28088     C
O      0.89054   0.0133  0.52232     O
C      0.89244   0.5466  0.75212     C
C       0.8955     0.75    0.209     C
H       0.8964   0.4588   0.8404     H
C      0.90022   0.4508  0.14436     C
C       0.9006     0.25   0.1988     C
H       0.9023   0.5262   0.5618     H
H       0.9068   0.0154   0.6776     H
C      0.91058   0.7135  0.34164     C
H       0.9111   0.0231   0.5572     H
H       0.9164   0.5104   0.7072     H
C      0.91651   0.2198  0.33118     C
H       0.9189   0.3949   0.2472     H
H       0.9223   0.1376   0.8582     H
H       0.9251     0.75   0.1498     H
H       0.9302     0.25   0.1396     H
H       0.9391   0.4047   0.1092     H
O      0.94342    0.871  0.64656     O
O      0.94709   0.3793  0.63842     O
O      0.94895   0.1316   0.5845     O
O      0.95162   0.6197  0.59076     O
H       0.9517   0.0953   0.1092     H
C        0.953   0.7119   0.2534     C
C      0.95542   0.0492  0.14436     C
O      0.95967   0.7263  0.44906     O
C      0.95993   0.2182  0.24314     C
C      0.96154   0.9149  0.24712     C
O      0.96228   0.2345  0.44004     O
H       0.9646   0.8675   0.2808     H
N      0.97022   0.0208  0.88796     N
C      0.97048   0.0875  0.83624     C
H       0.9705   0.8044   0.7864     H
H       0.9787   0.3153   0.7762     H
C      0.97906   0.6835  0.38608     C
C      0.98273   0.1912  0.37714     C
