data_I
_chemical_name_common  '/home/zhangsd/repos/MofS-CGCNN/ML/data/WS24/clean_cifs/LAZPUZ'
_cell_length_a  7.95290
_cell_length_b 17.24660
_cell_length_c 23.27020
_cell_angle_alpha 90.00000
_cell_angle_beta  90.00000
_cell_angle_gamma 90.00000
_space_group_name_H-M_alt      'P 1'


loop_
_space_group_symop_operation_xyz
  'x, y, z' 

loop_
_atom_site_label
_atom_site_fract_x
_atom_site_fract_y
_atom_site_fract_z
_atom_site_type_symbol
Cu         0.0      0.0      0.5    Cu
Cu         0.0      0.5      0.0    Cu
C       0.0096   0.0383  0.84713     C
C       0.0096   0.4617  0.34713     C
N       0.0132   0.5773  0.06411     N
N       0.0132   0.9227  0.56411     N
O       0.0291   0.5291  0.36329     O
O       0.0291   0.9709  0.86329     O
C       0.0363   0.6937  0.14662     C
C       0.0363   0.8063  0.64662     C
O       0.0449   0.6844  0.85115     O
O       0.0449   0.8156  0.35115     O
C       0.0453   0.6643    0.522     C
C       0.0453   0.8357    0.022     C
C       0.0465   0.1016  0.89059     C
C       0.0465   0.3984  0.39059     C
O        0.047  0.55876  0.70241     O
O        0.047  0.94124  0.20241     O
C       0.0549   0.7425  0.69034     C
C       0.0549   0.7575  0.19034     C
O       0.0701  0.22281  0.78023     O
O       0.0701  0.27719  0.28023     O
C        0.074   0.6127  0.56673     C
C        0.074   0.8873  0.06673     C
C       0.1011   0.2072   0.9801     C
C       0.1011   0.2928   0.4801     C
C        0.112   0.1527   0.3611     C
C        0.112   0.3473   0.8611     C
C       0.1191   0.0958   0.4029     C
C       0.1191   0.4042   0.9029     C
H       0.1193   0.2422   0.0098     H
H       0.1193   0.2578   0.5098     H
H       0.1255     0.67   0.4933     H
H       0.1255     0.83   0.9933     H
Pr     0.13915  0.10404  0.71838    Pr
Pr     0.13915  0.39596  0.21838    Pr
C       0.1576   0.6161   0.0729     C
C       0.1576   0.8839   0.5729     C
C       0.1698   0.6417  0.84776     C
C       0.1698   0.8583  0.34776     C
C        0.173   0.6742   0.1126     C
C        0.173   0.8258   0.6126     C
H       0.1808   0.7262   0.9387     H
H       0.1808   0.7738   0.4387     H
O       0.1841   0.5921  0.80656     O
O       0.1841   0.9079  0.30656     O
O       0.1843   0.0644  0.61499     O
O       0.1843   0.4356  0.11499     O
C       0.1962   0.1451   0.8927     C
C       0.1962   0.3549   0.3927     C
O        0.198   0.7131  0.69343     O
O        0.198   0.7869  0.19343     O
H       0.2055   0.1633   0.3384     H
H       0.2055   0.3367   0.8384     H
O        0.207   0.0483  0.52069     O
O        0.207   0.4517  0.02069     O
H       0.2197   0.0693   0.4084     H
H       0.2197   0.4307   0.9084     H
C       0.2206   0.1972   0.9374     C
C       0.2206   0.3028   0.4374     C
H       0.2255   0.2004   0.1167     H
H       0.2255   0.2996   0.6167     H
C       0.2409   0.5719  0.56926     C
C       0.2409   0.9281  0.06926     C
H       0.2488   0.1028    0.051     H
H       0.2488   0.3972    0.551     H
H       0.2512   0.6028    0.051     H
H       0.2512   0.8972    0.551     H
C       0.2591   0.0719  0.56926     C
C       0.2591   0.4281  0.06926     C
H       0.2745   0.7004   0.1167     H
H       0.2745   0.7996   0.6167     H
C       0.2794   0.6972   0.9374     C
C       0.2794   0.8028   0.4374     C
H       0.2803   0.5693   0.4084     H
H       0.2803   0.9307   0.9084     H
O        0.293   0.5483  0.52069     O
O        0.293   0.9517  0.02069     O
H       0.2945   0.6633   0.3384     H
H       0.2945   0.8367   0.8384     H
O        0.302   0.2131  0.69343     O
O        0.302   0.2869  0.19343     O
C       0.3038   0.6451   0.8927     C
C       0.3038   0.8549   0.3927     C
O       0.3157   0.5644  0.61499     O
O       0.3157   0.9356  0.11499     O
O       0.3159   0.0921  0.80656     O
O       0.3159   0.4079  0.30656     O
H       0.3192   0.2262   0.9387     H
H       0.3192   0.2738   0.4387     H
C        0.327   0.1742   0.1126     C
C        0.327   0.3258   0.6126     C
C       0.3302   0.1417  0.84776     C
C       0.3302   0.3583  0.34776     C
C       0.3424   0.1161   0.0729     C
C       0.3424   0.3839   0.5729     C
Pr     0.36085  0.60404  0.71838    Pr
Pr     0.36085  0.89596  0.21838    Pr
H       0.3745     0.17   0.4933     H
H       0.3745     0.33   0.9933     H
H       0.3807   0.7422   0.0098     H
H       0.3807   0.7578   0.5098     H
C       0.3809   0.5958   0.4029     C
C       0.3809   0.9042   0.9029     C
C        0.388   0.6527   0.3611     C
C        0.388   0.8473   0.8611     C
C       0.3989   0.7072   0.9801     C
C       0.3989   0.7928   0.4801     C
C        0.426   0.1127  0.56673     C
C        0.426   0.3873  0.06673     C
O       0.4299  0.72281  0.78023     O
O       0.4299  0.77719  0.28023     O
C       0.4451   0.2425  0.69034     C
C       0.4451   0.2575  0.19034     C
O        0.453  0.05876  0.70241     O
O        0.453  0.44124  0.20241     O
C       0.4535   0.6016  0.89059     C
C       0.4535   0.8984  0.39059     C
C       0.4547   0.1643    0.522     C
C       0.4547   0.3357    0.022     C
O       0.4551   0.1844  0.85115     O
O       0.4551   0.3156  0.35115     O
C       0.4637   0.1937  0.14662     C
C       0.4637   0.3063  0.64662     C
O       0.4709   0.0291  0.36329     O
O       0.4709   0.4709  0.86329     O
N       0.4868   0.0773  0.06411     N
N       0.4868   0.4227  0.56411     N
C       0.4904   0.5383  0.84713     C
C       0.4904   0.9617  0.34713     C
Cu         0.5      0.0      0.0    Cu
Cu         0.5      0.5      0.5    Cu
C       0.5096   0.0383  0.65287     C
C       0.5096   0.4617  0.15287     C
N       0.5132   0.5773  0.43589     N
N       0.5132   0.9227  0.93589     N
O       0.5291   0.5291  0.13671     O
O       0.5291   0.9709  0.63671     O
C       0.5363   0.6937  0.35338     C
C       0.5363   0.8063  0.85338     C
O       0.5449   0.6844  0.64885     O
O       0.5449   0.8156  0.14885     O
C       0.5453   0.6643    0.978     C
C       0.5453   0.8357    0.478     C
C       0.5465   0.1016  0.60941     C
C       0.5465   0.3984  0.10941     C
O        0.547  0.55876  0.79759     O
O        0.547  0.94124  0.29759     O
C       0.5549   0.7425  0.80966     C
C       0.5549   0.7575  0.30966     C
O       0.5701  0.22281  0.71977     O
O       0.5701  0.27719  0.21977     O
C        0.574   0.6127  0.93327     C
C        0.574   0.8873  0.43327     C
C       0.6011   0.2072   0.5199     C
C       0.6011   0.2928   0.0199     C
C        0.612   0.1527   0.1389     C
C        0.612   0.3473   0.6389     C
C       0.6191   0.0958   0.0971     C
C       0.6191   0.4042   0.5971     C
H       0.6193   0.2422   0.4902     H
H       0.6193   0.2578   0.9902     H
H       0.6255     0.67   0.0067     H
H       0.6255     0.83   0.5067     H
Pr     0.63915  0.10404  0.78162    Pr
Pr     0.63915  0.39596  0.28162    Pr
C       0.6576   0.6161   0.4271     C
C       0.6576   0.8839   0.9271     C
C       0.6698   0.6417  0.65224     C
C       0.6698   0.8583  0.15224     C
C        0.673   0.6742   0.3874     C
C        0.673   0.8258   0.8874     C
H       0.6808   0.7262   0.5613     H
H       0.6808   0.7738   0.0613     H
O       0.6841   0.5921  0.69344     O
O       0.6841   0.9079  0.19344     O
O       0.6843   0.0644  0.88501     O
O       0.6843   0.4356  0.38501     O
C       0.6962   0.1451   0.6073     C
C       0.6962   0.3549   0.1073     C
O        0.698   0.7131  0.80657     O
O        0.698   0.7869  0.30657     O
H       0.7055   0.1633   0.1616     H
H       0.7055   0.3367   0.6616     H
O        0.707   0.0483  0.97931     O
O        0.707   0.4517  0.47931     O
H       0.7197   0.0693   0.0916     H
H       0.7197   0.4307   0.5916     H
C       0.7206   0.1972   0.5626     C
C       0.7206   0.3028   0.0626     C
H       0.7255   0.2004   0.3833     H
H       0.7255   0.2996   0.8833     H
C       0.7409   0.5719  0.93074     C
C       0.7409   0.9281  0.43074     C
H       0.7488   0.1028    0.449     H
H       0.7488   0.3972    0.949     H
H       0.7512   0.6028    0.449     H
H       0.7512   0.8972    0.949     H
C       0.7591   0.0719  0.93074     C
C       0.7591   0.4281  0.43074     C
H       0.7745   0.7004   0.3833     H
H       0.7745   0.7996   0.8833     H
C       0.7794   0.6972   0.5626     C
C       0.7794   0.8028   0.0626     C
H       0.7803   0.5693   0.0916     H
H       0.7803   0.9307   0.5916     H
O        0.793   0.5483  0.97931     O
O        0.793   0.9517  0.47931     O
H       0.7945   0.6633   0.1616     H
H       0.7945   0.8367   0.6616     H
O        0.802   0.2131  0.80657     O
O        0.802   0.2869  0.30657     O
C       0.8038   0.6451   0.6073     C
C       0.8038   0.8549   0.1073     C
O       0.8157   0.5644  0.88501     O
O       0.8157   0.9356  0.38501     O
O       0.8159   0.0921  0.69344     O
O       0.8159   0.4079  0.19344     O
H       0.8192   0.2262   0.5613     H
H       0.8192   0.2738   0.0613     H
C        0.827   0.1742   0.3874     C
C        0.827   0.3258   0.8874     C
C       0.8302   0.1417  0.65224     C
C       0.8302   0.3583  0.15224     C
C       0.8424   0.1161   0.4271     C
C       0.8424   0.3839   0.9271     C
Pr     0.86085  0.60404  0.78162    Pr
Pr     0.86085  0.89596  0.28162    Pr
H       0.8745     0.17   0.0067     H
H       0.8745     0.33   0.5067     H
H       0.8807   0.7422   0.4902     H
H       0.8807   0.7578   0.9902     H
C       0.8809   0.5958   0.0971     C
C       0.8809   0.9042   0.5971     C
C        0.888   0.6527   0.1389     C
C        0.888   0.8473   0.6389     C
C       0.8989   0.7072   0.5199     C
C       0.8989   0.7928   0.0199     C
C        0.926   0.1127  0.93327     C
C        0.926   0.3873  0.43327     C
O       0.9299  0.72281  0.71977     O
O       0.9299  0.77719  0.21977     O
C       0.9451   0.2425  0.80966     C
C       0.9451   0.2575  0.30966     C
O        0.953  0.05876  0.79759     O
O        0.953  0.44124  0.29759     O
C       0.9535   0.6016  0.60941     C
C       0.9535   0.8984  0.10941     C
C       0.9547   0.1643    0.978     C
C       0.9547   0.3357    0.478     C
O       0.9551   0.1844  0.64885     O
O       0.9551   0.3156  0.14885     O
C       0.9637   0.1937  0.35338     C
C       0.9637   0.3063  0.85338     C
O       0.9709   0.0291  0.13671     O
O       0.9709   0.4709  0.63671     O
N       0.9868   0.0773  0.43589     N
N       0.9868   0.4227  0.93589     N
C       0.9904   0.5383  0.65287     C
C       0.9904   0.9617  0.15287     C
