data_I
_chemical_name_common  '/home/zhangsd/repos/MofS-CGCNN/ML/data/WS24/clean_cifs/LEPKUN01'
_cell_length_a 10.60880
_cell_length_b 10.93771
_cell_length_c 16.22210
_cell_angle_alpha 106.36614
_cell_angle_beta  90.00000
_cell_angle_gamma 119.01014
_space_group_name_H-M_alt      'P 1'


loop_
_space_group_symop_operation_xyz
  'x, y, z' 

loop_
_atom_site_label
_atom_site_fract_x
_atom_site_fract_y
_atom_site_fract_z
_atom_site_type_symbol
Zn         0.0      0.5      1.0    Zn
C      0.00854   0.2424  0.13025     C
C       0.0114  0.13042  0.68766     C
C      0.02177  0.73366  0.16861     C
C      0.02578  0.12218  0.12356     C
H       0.0261   0.9656   0.9248     H
O      0.04211   0.3597  0.90391     O
H       0.0605   0.0344   0.5752     H
C       0.0638  0.42286   0.5172     C
C      0.06587  0.25738  0.75994     C
H       0.0716    0.453   0.2064     H
C      0.08263  0.37046  0.20227     C
H        0.084   0.9506   0.3178     H
C      0.08695   0.6485  0.50715     C
C      0.08769  0.76282  0.93993     C
O      0.09502   0.6494  0.93359     O
C       0.0964  0.12218  0.62356     C
H       0.1074   0.3702    0.529     H
C      0.11902  0.13042  0.18766     C
H       0.1334   0.0494   0.1822     H
H       0.1461   0.7496    0.512     H
C      0.15062  0.57108  0.52434     C
O      0.15853  0.88292  0.00264     O
O      0.15987  0.82786  0.18667     O
C      0.17181  0.37702  0.26757     C
C      0.19151  0.25738  0.25994     C
C      0.20521  0.37702  0.76757     C
O      0.20673   0.5748   0.0661     O
H       0.2195   0.4628   0.3175     H
C      0.23386   0.2424  0.63025     C
H       0.2363   0.7122   0.7918     H
H       0.2433   0.4628   0.8175     H
H       0.2628   0.3702    0.029     H
Zn    0.269192 0.863284 0.089277    Zn
O      0.27561  0.11708  0.49736     O
H       0.2786   0.8916   0.2949     H
C      0.28783  0.37046  0.70227     C
C      0.28811  0.26634  0.33139     C
H       0.3055   0.7444    0.361     H
C        0.313  0.64578  0.54972     C
O      0.31759   0.3597  0.40391     O
C      0.32487  0.23718  0.56007     C
H       0.3291   0.8636    0.771     H
C       0.3313   0.7794   0.7795     C
O      0.33201  0.17214  0.31333     O
C      0.33278  0.64578  0.04972     C
O      0.33985  0.92744  0.33952     O
H       0.3522    0.727   0.7266     H
C      0.35906  0.42286   0.0172     C
O      0.36807   0.5748   0.5661     O
H       0.3748    0.727   0.2266     H
H       0.3814    0.453   0.7064     H
H        0.387   0.1084   0.2051     H
O      0.38731  0.78188  0.55549     O
C      0.38888  0.83096  0.35086     C
O      0.39457  0.78188  0.05549     O
H       0.3965   0.2504    0.988     H
Zn    0.405908 0.136716 0.410723    Zn
O      0.41241  0.07256  0.16048     O
H       0.4195   0.8836   0.9037     H
C      0.42046  0.57108  0.02434     C
C      0.43845   0.3515  0.99285     C
H       0.4389   0.7444    0.861     H
C      0.44208  0.83096  0.85086     C
O      0.44562   0.3506  0.56641     O
C       0.4481   0.7794   0.2795     C
H       0.4641   0.8836   0.4037     H
H       0.4655   0.1364    0.729     H
H       0.4759   0.7122   0.2918     H
Zn         0.5      0.5      0.5    Zn
H       0.5241   0.2878   0.7082     H
H       0.5345   0.8636    0.271     H
H       0.5359   0.1164   0.5963     H
C       0.5519   0.2206   0.7205     C
O      0.55438   0.6494  0.43359     O
C      0.55792  0.16904  0.14914     C
H       0.5611   0.2556    0.139     H
C      0.56155   0.6485  0.00715     C
C      0.57954  0.42892  0.97566     C
H       0.5805   0.1164   0.0963     H
O      0.58759  0.92744  0.83952     O
Zn    0.594092 0.863284 0.589277    Zn
H       0.6035   0.7496    0.012     H
O      0.60543  0.21812  0.94451     O
C      0.61112  0.16904  0.64914     C
O      0.61269  0.21812  0.44451     O
H        0.613   0.8916   0.7949     H
H       0.6186    0.547   0.2936     H
H       0.6252    0.273   0.7734     H
O      0.63193   0.4252   0.4339     O
C      0.64094  0.57714   0.9828     C
H       0.6478    0.273   0.2734     H
O      0.66015  0.07256  0.66048     O
C      0.66722  0.35422  0.95028     C
O      0.66799  0.82786  0.68667     O
C       0.6687   0.2206   0.2205     C
H       0.6709   0.1364    0.229     H
C      0.67513  0.76282  0.43993     C
O      0.68241   0.6403  0.59609     O
C        0.687  0.35422  0.45028     C
H       0.6945   0.2556    0.639     H
C      0.71189  0.73366  0.66861     C
C      0.71217  0.62954  0.29773     C
H       0.7214   0.1084   0.7051     H
O      0.72439  0.88292  0.50264     O
Zn    0.730808 0.136716 0.910723    Zn
H       0.7372   0.6298    0.971     H
H       0.7567   0.5372   0.1825     H
H       0.7637   0.2878   0.2082     H
C      0.76614   0.7576  0.36975     C
H       0.7805   0.5372   0.6825     H
O      0.79327   0.4252   0.9339     O
C      0.79479  0.62298  0.23243     C
C      0.80849  0.74262  0.74006     C
C      0.82819  0.62298  0.73243     C
O      0.84013  0.17214  0.81333     O
O      0.84147  0.11708  0.99736     O
C      0.84938  0.42892  0.47566     C
H       0.8539   0.2504    0.488     H
H       0.8666   0.9506   0.8178     H
C      0.88098  0.86958  0.81234     C
H       0.8926   0.6298    0.471     H
C       0.9036  0.87782  0.37644     C
O      0.90498   0.3506  0.06641     O
C      0.91231  0.23718  0.06007     C
C      0.91305   0.3515  0.49285     C
H        0.916   0.0494   0.6822     H
C      0.91737  0.62954  0.79773     C
H       0.9284    0.547   0.7936     H
C      0.93413  0.74262  0.24006     C
C       0.9362  0.57714   0.4828     C
H       0.9395   0.9656   0.4248     H
O      0.95789   0.6403  0.09609     O
H       0.9739   0.0344   0.0752     H
C      0.97422  0.87782  0.87644     C
C      0.97823  0.26634  0.83139     C
C       0.9886  0.86958  0.31234     C
C      0.99146   0.7576  0.86975     C
