data_I
_chemical_name_common  '/home/zhangsd/repos/MofS-CGCNN/ML/data/WS24/clean_cifs/LIQFIC'
_cell_length_a 10.38243
_cell_length_b 10.38243
_cell_length_c 12.83000
_cell_angle_alpha 100.37081
_cell_angle_beta  100.37081
_cell_angle_gamma 107.70831
_space_group_name_H-M_alt      'P 1'


loop_
_space_group_symop_operation_xyz
  'x, y, z' 

loop_
_atom_site_label
_atom_site_fract_x
_atom_site_fract_y
_atom_site_fract_z
_atom_site_type_symbol
H       0.0151   0.3207   0.4661     H
H        0.017   0.3078   0.3428     H
N        0.019    0.347   0.5135     N
C       0.0346   0.0394    0.542     C
H       0.0392    0.547     0.72     H
C       0.0394   0.0346    0.042     C
C       0.0417   0.7089   0.6076     C
H       0.0425   0.8259   0.3025     H
C       0.0536   0.1954   0.7174     C
C       0.0588     0.35   0.8924     C
O       0.0711   0.6895   0.1392     O
H       0.0763   0.4407   0.6381     H
H       0.0796   0.6566   0.3624     H
H       0.0949   0.8069   0.6245     H
C        0.098    0.678    0.438     C
C       0.1093   0.5341   0.6838     C
C       0.1173   0.1347   0.6466     C
H        0.129   0.3056   0.1308     H
O         0.13   0.4332   0.9816     O
C       0.1315   0.2877   0.8179     C
C       0.1347   0.1173   0.1466     C
N       0.1371   0.6303   0.6187     N
C        0.165    0.429    0.575     C
C       0.1687   0.2611   0.1773     C
H       0.1717   0.5225   0.6077     H
H       0.1741   0.9575   0.1975     H
H       0.1924   0.3862   0.6315     H
H       0.1931   0.9051   0.8755     H
H       0.1933   0.5491   0.7374     H
C       0.1954   0.0536   0.2174     C
O       0.2212   0.5462   0.2531     O
Mn     0.22478   0.6157   0.1034    Mn
H       0.2253   0.4317   0.5263     H
C       0.2307   0.6451   0.5605     C
O       0.2424   0.7344   0.4982     O
C       0.2611   0.1687   0.6773     C
C       0.2617   0.3391   0.2773     C
O       0.2656   0.7576   0.0018     O
C       0.2755   0.3221   0.8467     C
C       0.2877   0.1315   0.3179     C
H       0.2889   0.5925   0.5633     H
C       0.2911   0.9583   0.8924     C
C       0.2971   0.4943   0.3086     C
H       0.3056    0.129   0.6308     H
H       0.3078    0.017   0.8428     H
O       0.3105   0.9289   0.3608     O
H       0.3207   0.0151   0.9661     H
C        0.322    0.902    0.062     C
C       0.3221   0.2755   0.3467     C
H       0.3286   0.3858   0.9126     H
C       0.3391   0.2617   0.7773     C
H       0.3434   0.9204   0.1376     H
N        0.347    0.019   0.0135     N
C         0.35   0.0588   0.3924     C
C       0.3549   0.7693   0.9395     C
N       0.3697   0.8629   0.8813     N
Mn      0.3843  0.77522   0.3966    Mn
H       0.3858   0.3286   0.4126     H
H       0.3862   0.1924   0.1315     H
O       0.3956   0.5676   0.3884     O
H       0.4075   0.7111   0.9367     H
C        0.429    0.165    0.075     C
H       0.4317   0.2253   0.0263     H
O       0.4324   0.6044   0.1116     O
O       0.4332     0.13   0.4816     O
H       0.4407   0.0763   0.1381     H
H       0.4509   0.8067   0.7626     H
H        0.453   0.9608     0.78     H
O       0.4538   0.7788   0.2469     O
C       0.4659   0.8907   0.8162     C
H       0.4775   0.8283   0.8923     H
C       0.4943   0.2971   0.8086     C
C       0.5057   0.7029   0.1914     C
H       0.5225   0.1717   0.1077     H
C       0.5341   0.1093   0.1838     C
O       0.5462   0.2212   0.7531     O
H        0.547   0.0392     0.22     H
H       0.5491   0.1933   0.2374     H
H       0.5593   0.9237   0.8619     H
O       0.5668     0.87   0.5184     O
O       0.5676   0.3956   0.8884     O
H       0.5683   0.7747   0.9737     H
C        0.571    0.835    0.925     C
H       0.5925   0.2889   0.0633     H
O       0.6044   0.4324   0.6116     O
H       0.6138   0.8076   0.8685     H
H       0.6142   0.6714   0.5874     H
Mn      0.6157  0.22478   0.6034    Mn
N       0.6303   0.1371   0.1187     N
C       0.6451   0.2307   0.0605     C
C         0.65   0.9412   0.6076     C
N        0.653    0.981   0.9865     N
H       0.6566   0.0796   0.8624     H
C       0.6609   0.7383   0.2227     C
H       0.6714   0.6142   0.0874     H
C       0.6779   0.7245   0.6533     C
C        0.678    0.098    0.938     C
H       0.6793   0.9849   0.0339     H
O       0.6895   0.0711   0.6392     O
H       0.6922    0.983   0.1572     H
H       0.6944    0.871   0.3692     H
C       0.7029   0.5057   0.6914     C
C       0.7089   0.0417   0.1076     C
H       0.7111   0.4075   0.4367     H
C       0.7123   0.8685   0.6821     C
C       0.7245   0.6779   0.1533     C
O       0.7344   0.2424   0.9982     O
C       0.7383   0.6609   0.7227     C
C       0.7389   0.8313   0.3227     C
O       0.7576   0.2656   0.5018     O
C       0.7693   0.3549   0.4395     C
H       0.7747   0.5683   0.4737     H
Mn     0.77522   0.3843   0.8966    Mn
O       0.7788   0.4538   0.7469     O
C       0.8046   0.9464   0.7826     C
H       0.8067   0.4509   0.2626     H
H       0.8069   0.0949   0.1245     H
H       0.8076   0.6138   0.3685     H
H       0.8259   0.0425   0.8025     H
H       0.8283   0.4775   0.3923     H
C       0.8313   0.7389   0.8227     C
C        0.835    0.571    0.425     C
N       0.8629   0.3697   0.3813     N
C       0.8653   0.8827   0.8534     C
C       0.8685   0.7123   0.1821     C
O         0.87   0.5668   0.0184     O
H        0.871   0.6944   0.8692     H
C       0.8827   0.8653   0.3534     C
C       0.8907   0.4659   0.3162     C
C        0.902    0.322    0.562     C
H       0.9051   0.1931   0.3755     H
H       0.9204   0.3434   0.6376     H
H       0.9237   0.5593   0.3619     H
O       0.9289   0.3105   0.8608     O
C       0.9412     0.65   0.1076     C
C       0.9464   0.8046   0.2826     C
H       0.9575   0.1741   0.6975     H
C       0.9583   0.2911   0.3924     C
C       0.9606   0.9654    0.958     C
H       0.9608    0.453     0.28     H
C       0.9654   0.9606    0.458     C
N        0.981    0.653   0.4865     N
H        0.983   0.6922   0.6572     H
H       0.9849   0.6793   0.5339     H
