data_I
_chemical_name_common  '/home/zhangsd/repos/MofS-CGCNN/ML/data/WS24/clean_cifs/LITHUR'
_cell_length_a 11.09000
_cell_length_b 23.20600
_cell_length_c 23.91000
_cell_angle_alpha 90.00000
_cell_angle_beta  90.00000
_cell_angle_gamma 90.00000
_space_group_name_H-M_alt      'P 1'


loop_
_space_group_symop_operation_xyz
  'x, y, z' 

loop_
_atom_site_label
_atom_site_fract_x
_atom_site_fract_y
_atom_site_fract_z
_atom_site_type_symbol
Se     0.00226  0.06698  0.18114    Se
Se     0.00226  0.18302  0.06886    Se
Se     0.00226  0.56698  0.68114    Se
Se     0.00226  0.68302  0.56886    Se
N       0.0241    0.074   0.9581     N
N       0.0241    0.176   0.2919     N
N       0.0241    0.574   0.4581     N
N       0.0241    0.676   0.7919     N
C       0.0279   0.2949    0.177     C
C       0.0279   0.4551    0.573     C
C       0.0279   0.7949    0.677     C
C       0.0279   0.9551    0.073     C
Cu       0.125    0.125  0.00579    Cu
W        0.125    0.125    0.125     W
Cu       0.125    0.125  0.24421    Cu
Cu       0.125  0.25027    0.125    Cu
Cu       0.125  0.49973    0.625    Cu
Cu       0.125    0.625  0.50579    Cu
W        0.125    0.625    0.625     W
Cu       0.125    0.625  0.74421    Cu
Cu       0.125  0.75027    0.625    Cu
Cu       0.125  0.99973    0.125    Cu
C       0.2221   0.2949    0.073     C
C       0.2221   0.4551    0.677     C
C       0.2221   0.7949    0.573     C
C       0.2221   0.9551    0.177     C
N       0.2259    0.074   0.2919     N
N       0.2259    0.176   0.9581     N
N       0.2259    0.574   0.7919     N
N       0.2259    0.676   0.4581     N
Se     0.24774  0.06698  0.06886    Se
Se     0.24774  0.18302  0.18114    Se
Se     0.24774  0.56698  0.56886    Se
Se     0.24774  0.68302  0.68114    Se
Se     0.25226  0.31698  0.81886    Se
Se     0.25226  0.43302  0.93114    Se
Se     0.25226  0.81698  0.31886    Se
Se     0.25226  0.93302  0.43114    Se
N       0.2741    0.324   0.0419     N
N       0.2741    0.426   0.7081     N
N       0.2741    0.824   0.5419     N
N       0.2741    0.926   0.2081     N
C       0.2779   0.0449    0.323     C
C       0.2779   0.2051    0.927     C
C       0.2779   0.5449    0.823     C
C       0.2779   0.7051    0.427     C
Cu       0.375  0.00027    0.375    Cu
Cu       0.375  0.24973    0.875    Cu
Cu       0.375    0.375  0.75579    Cu
W        0.375    0.375    0.875     W
Cu       0.375    0.375  0.99421    Cu
Cu       0.375  0.50027    0.875    Cu
Cu       0.375  0.74973    0.375    Cu
Cu       0.375    0.875  0.25579    Cu
W        0.375    0.875    0.375     W
Cu       0.375    0.875  0.49421    Cu
C       0.4721   0.0449    0.427     C
C       0.4721   0.2051    0.823     C
C       0.4721   0.5449    0.927     C
C       0.4721   0.7051    0.323     C
N       0.4759    0.324   0.7081     N
N       0.4759    0.426   0.0419     N
N       0.4759    0.824   0.2081     N
N       0.4759    0.926   0.5419     N
Se     0.49774  0.31698  0.93114    Se
Se     0.49774  0.43302  0.81886    Se
Se     0.49774  0.81698  0.43114    Se
Se     0.49774  0.93302  0.31886    Se
Se     0.50226  0.06698  0.68114    Se
Se     0.50226  0.18302  0.56886    Se
Se     0.50226  0.56698  0.18114    Se
Se     0.50226  0.68302  0.06886    Se
N       0.5241    0.074   0.4581     N
N       0.5241    0.176   0.7919     N
N       0.5241    0.574   0.9581     N
N       0.5241    0.676   0.2919     N
C       0.5279   0.2949    0.677     C
C       0.5279   0.4551    0.073     C
C       0.5279   0.7949    0.177     C
C       0.5279   0.9551    0.573     C
Cu       0.625    0.125  0.50579    Cu
W        0.625    0.125    0.625     W
Cu       0.625    0.125  0.74421    Cu
Cu       0.625  0.25027    0.625    Cu
Cu       0.625  0.49973    0.125    Cu
Cu       0.625    0.625  0.00579    Cu
W        0.625    0.625    0.125     W
Cu       0.625    0.625  0.24421    Cu
Cu       0.625  0.75027    0.125    Cu
Cu       0.625  0.99973    0.625    Cu
C       0.7221   0.2949    0.573     C
C       0.7221   0.4551    0.177     C
C       0.7221   0.7949    0.073     C
C       0.7221   0.9551    0.677     C
N       0.7259    0.074   0.7919     N
N       0.7259    0.176   0.4581     N
N       0.7259    0.574   0.2919     N
N       0.7259    0.676   0.9581     N
Se     0.74774  0.06698  0.56886    Se
Se     0.74774  0.18302  0.68114    Se
Se     0.74774  0.56698  0.06886    Se
Se     0.74774  0.68302  0.18114    Se
Se     0.75226  0.31698  0.31886    Se
Se     0.75226  0.43302  0.43114    Se
Se     0.75226  0.81698  0.81886    Se
Se     0.75226  0.93302  0.93114    Se
N       0.7741    0.324   0.5419     N
N       0.7741    0.426   0.2081     N
N       0.7741    0.824   0.0419     N
N       0.7741    0.926   0.7081     N
C       0.7779   0.0449    0.823     C
C       0.7779   0.2051    0.427     C
C       0.7779   0.5449    0.323     C
C       0.7779   0.7051    0.927     C
Cu       0.875  0.00027    0.875    Cu
Cu       0.875  0.24973    0.375    Cu
Cu       0.875    0.375  0.25579    Cu
W        0.875    0.375    0.375     W
Cu       0.875    0.375  0.49421    Cu
Cu       0.875  0.50027    0.375    Cu
Cu       0.875  0.74973    0.875    Cu
Cu       0.875    0.875  0.75579    Cu
W        0.875    0.875    0.875     W
Cu       0.875    0.875  0.99421    Cu
C       0.9721   0.0449    0.927     C
C       0.9721   0.2051    0.323     C
C       0.9721   0.5449    0.427     C
C       0.9721   0.7051    0.823     C
N       0.9759    0.324   0.2081     N
N       0.9759    0.426   0.5419     N
N       0.9759    0.824   0.7081     N
N       0.9759    0.926   0.0419     N
Se     0.99774  0.31698  0.43114    Se
Se     0.99774  0.43302  0.31886    Se
Se     0.99774  0.81698  0.93114    Se
Se     0.99774  0.93302  0.81886    Se
