data_I
_chemical_name_common  '/home/zhangsd/repos/MofS-CGCNN/ML/data/WS24/clean_cifs/LORRUH'
_cell_length_a 14.55510
_cell_length_b 17.82370
_cell_length_c 31.75480
_cell_angle_alpha 90.00000
_cell_angle_beta  90.93900
_cell_angle_gamma 90.00000
_space_group_name_H-M_alt      'P 1'


loop_
_space_group_symop_operation_xyz
  'x, y, z' 

loop_
_atom_site_label
_atom_site_fract_x
_atom_site_fract_y
_atom_site_fract_z
_atom_site_type_symbol
H       0.0018   0.8749   0.5736     H
H       0.0023   0.2542   0.1712     H
C       0.0045   0.3571  0.11131     C
O       0.0051   0.0641  0.47637     O
H       0.0063   0.4402   0.3471     H
C       0.0147   0.4047   0.2532     C
H       0.0175    0.599   0.2484     H
O         0.02   0.3929  0.07771     O
C       0.0201   0.9299    0.367     C
N       0.0216   0.5795   0.7105     N
H       0.0234   0.5978   0.7705     H
C       0.0243   0.6877   0.4429     C
C       0.0276   0.5468   0.4407     C
C       0.0309    0.273   0.8186     C
C       0.0316    0.426   0.3216     C
H       0.0328   0.7996   0.4452     H
H       0.0337   0.2733   0.4409     H
C       0.0338   0.3545   0.8789     C
C       0.0363   0.8995   0.5535     C
C       0.0364   0.9017   0.2943     C
H       0.0385   0.3137   0.5628     H
C       0.0409   0.6587   0.3016     C
C       0.0428   0.6811   0.1057     C
C       0.0447   0.5919    0.565     C
C       0.0451   0.4188   0.4482     C
O       0.0456   0.4387  0.93679     O
H       0.0461   0.2456   0.6507     H
H       0.0467   0.9413   0.3931     H
C       0.0496   0.7604   0.1675     C
C       0.0523   0.3413   0.6823     C
N       0.0523   0.8385  0.22788     N
H       0.0571   0.2565   0.7938     H
C       0.0582   0.1046   0.7095     C
C       0.0622   0.4611    0.573     C
H       0.0623   0.5376   0.1951     H
C       0.0625   0.2632   0.1632     C
C       0.0626   0.6248   0.2635     C
H       0.0667   0.6665     0.08     H
C       0.0671   0.7559   0.4485     C
H       0.0684   0.6403   0.5664     H
O       0.0685   0.5529  0.99493     O
C       0.0701   0.4237   0.8998     C
C       0.0721   0.3301    0.841     C
C       0.0726   0.6219   0.4454     C
O       0.0744   0.6419  0.87354     O
C       0.0747   0.0772   0.6365     C
C        0.075   0.9204    0.333     C
C       0.0797   0.3152  0.13292     C
N       0.0803   0.4877  0.45062     N
C       0.0844   0.7388   0.1286     C
C       0.0845   0.2856   0.6577     C
H        0.085   0.1167   0.7354     H
C       0.0859    0.286   0.4566     C
C       0.0946   0.8821   0.2573     C
Eu     0.09479   0.4233  0.01131    Eu
O       0.0958   0.0583  0.56412     O
H       0.0961   0.4395   0.7076     H
H       0.0972   0.4193   0.5802     H
H        0.099   0.9747   0.9178     H
C       0.0993   0.8151   0.1952     C
C       0.0994   0.5323   0.5759     C
H       0.1006   0.4956   0.1296     H
H       0.1033   0.7143   0.3494     H
C       0.1052   0.3578    0.462     C
C       0.1085   0.3915   0.2487     C
C       0.1123    0.093   0.6753     C
C       0.1135   0.3988   0.6912     C
C       0.1135   0.6933   0.3231     C
C       0.1181    0.552  0.18368     C
N       0.1196   0.0588   0.8807     N
O       0.1197   0.8968   0.5556     O
H       0.1203   0.1871   0.2023     H
O       0.1219   0.4669  0.88015     O
H       0.1241   0.1779   0.4682     H
H       0.1253   0.3524   0.8311     H
C       0.1258    0.412   0.3206     C
H       0.1321   0.3808   0.2223     H
C       0.1337   0.0705  0.59838     C
C       0.1338   0.2235   0.1823     C
H       0.1356    0.763    0.118     H
H       0.1383   0.9266   0.3359     H
C       0.1405   0.2274   0.4735     C
C       0.1405   0.5274  0.14416     C
Eu     0.14169  0.00324  0.50042    Eu
C       0.1446    0.006   0.9076     C
Eu     0.14471  0.56648   0.9311    Eu
C       0.1512   0.6292  0.24801     C
O       0.1537   0.8912  0.46374     O
C       0.1575   0.7611   0.4586     C
H       0.1592    0.105   0.3614     H
H       0.1614   0.4146   0.3451     H
C       0.1647   0.6264    0.454     C
C       0.1653   0.3944    0.283     C
C       0.1689   0.3301   0.1235     C
O       0.1708   0.6944  0.95584     O
C        0.172   0.2867    0.643     C
H        0.175   0.1325   0.8402     H
H       0.1759   0.0958   0.6784     H
C       0.1768   0.5976   0.2067     C
O       0.1777   0.0424  0.43157     O
H       0.1791   0.6365   0.6231     H
H       0.1814   0.3665   0.1035     H
O       0.1837   0.4933  0.05997     O
C       0.1851   0.3719   0.4837     C
C       0.1865   0.9014   0.2539     C
C        0.187   0.1025   0.8635     C
H       0.1899   0.2468   0.6261     H
C       0.1914   0.8331   0.1906     C
H       0.1986   0.8051   0.3638     H
C       0.1993   0.6969   0.3065     C
C       0.1994   0.5425   0.5883     C
H       0.1998   0.5828   0.4554     H
C       0.2007   0.3943   0.6753     C
H       0.2008   0.1475   0.2964     H
C       0.2029   0.8349   0.4663     C
C       0.2062   0.6951   0.4606     C
H       0.2067   0.4209   0.4851     H
C       0.2121   0.2413    0.496     C
O        0.213   0.3354  0.02465     O
H       0.2146   0.9307   0.2747     H
H       0.2152   0.8263   0.9775     H
C       0.2163   0.0927   0.3507     C
O       0.2187   0.0789  0.60424     O
N       0.2192   0.6646  0.26938     N
O       0.2196   0.4653  0.96688     O
C       0.2215   0.5495  0.12582     C
C       0.2222   0.5999   0.6168     C
C        0.223   0.2367   0.1725     C
H       0.2234   0.8152   0.1675     H
H       0.2311   0.1967   0.0333     H
N        0.232   0.3387   0.6505     N
C       0.2331   0.9938   0.9217     C
C       0.2356   0.8776   0.2203     C
C       0.2364   0.3147   0.5042     C
C       0.2382   0.6804   0.9818     C
O       0.2401   0.1129  0.51116     O
C       0.2412   0.1168   0.3114     C
C       0.2412    0.293   0.1428     C
H       0.2415   0.4328   0.6822     H
C       0.2444   0.5265  0.08147     C
H       0.2466    0.952   0.9381     H
H       0.2534    0.452   0.5619     H
C       0.2556   0.0265  0.41853     C
H       0.2585   0.9328   0.8178     H
C       0.2588   0.6168   0.1886     C
C       0.2588    0.793   0.3572     C
O       0.2599   0.6129  0.98884     O
C       0.2618   0.1804   0.5182     C
C       0.2636   0.8147   0.9958     C
C       0.2644   0.3776   0.2797     C
C       0.2669   0.4938   0.5783     C
N        0.268   0.8387   0.8495     N
H       0.2689   0.6967   0.4667     H
H       0.2766   0.3152   0.3325     H
C        0.277   0.7367   0.3275     C
C       0.2778   0.0999   0.8832     C
C       0.2785   0.0495  0.37418     C
O       0.2804   0.9653  0.53312     O
N       0.2808   0.1646  0.23062     N
O       0.2813   0.5789  0.89576     O
C       0.2837   0.5927   0.1493     C
H       0.2848   0.3263   0.5225     H
H       0.2854   0.4307   0.2253     H
O        0.287   0.8354  0.47535     O
C       0.2879   0.7413    0.004     C
H       0.2933   0.9209   0.0149     H
C       0.2938   0.1951   0.0394     C
C       0.2971   0.3349   0.0337     C
H       0.2992   0.6475   0.2036     H
C       0.2993   0.8943   0.8247     C
H       0.3002   0.0828   0.0446     H
C       0.3006   0.0425   0.9117     C
C       0.3007   0.1969   0.1935     C
H       0.3014   0.3051   0.1362     H
C       0.3086   0.3331   0.3094     C
H       0.3101   0.7468   0.8739     H
C        0.313   0.6025   0.6365     C
C       0.3135   0.4014   0.2461     C
C       0.3149   0.8719   0.0163     C
O       0.3163   0.9933  0.44003     O
H       0.3186   0.8665   0.3965     H
H       0.3209   0.1365   0.8769     H
O       0.3223   0.5424  0.06843     O
C       0.3232   0.0976   0.2933     C
H       0.3241   0.5958   0.8216     H
H        0.325   0.6325   0.6598     H
C        0.328   0.7867    0.857     C
O       0.3292   0.1944  0.54416     O
C       0.3311   0.8301   0.3765     C
C       0.3347   0.8944    0.217     C
C       0.3353   0.1264    0.046     C
H       0.3386   0.9146   0.1549     H
H       0.3408    0.605   0.1386     H
C       0.3425   0.2611   0.0414     C
O       0.3463   0.3912  0.03626     O
C       0.3488   0.1292  0.25199     C
Eu     0.35529  0.06648  0.56891    Eu
C       0.3554    0.506   0.5924     C
Eu     0.35831  0.50324  0.99958    Eu
C       0.3595   0.0274  0.35584     C
C       0.3595   0.7274   0.0265     C
H       0.3617   0.4266   0.1641     H
H       0.3644    0.263    0.382     H
C       0.3662   0.7235   0.3177     C
C       0.3663   0.5705  0.90162     C
H       0.3679   0.8808   0.2777     H
C       0.3742    0.912   0.1794     C
H       0.3747   0.8524   0.6689     H
H       0.3759   0.6779   0.0318     H
O       0.3781   0.9669  0.61985     O
H       0.3797   0.6871   0.2977     H
O       0.3803   0.3968   0.9444     O
N       0.3804   0.5588   0.6193     N
C       0.3819    0.052  0.31632     C
C       0.3865   0.1933   0.1769     C
C       0.3865   0.8988   0.8088     C
C       0.3877    0.593   0.8247     C
C       0.3915   0.8915   0.2513     C
C       0.3948   0.8578    0.038     C
H       0.3967   0.2143   0.1506     H
H       0.3994   0.9956   0.3704     H
C       0.4006   0.0323   0.9241     C
C       0.4007   0.3151   0.3048     C
H        0.401   0.4747   0.5822     H
H       0.4028   0.9193   0.9198     H
H       0.4039   0.9395   0.7924     H
O       0.4042   0.5583  0.93588     O
Eu     0.40521   0.9233  0.48869    Eu
C       0.4054   0.3821   0.2427     C
C       0.4141    0.786   0.0434     C
H        0.415   0.6167   0.7646     H
C       0.4155   0.7856   0.8423     C
C       0.4156   0.2388   0.3714     C
N       0.4197   0.9877  0.04938     N
C       0.4203   0.8152  0.36708     C
C        0.425   0.4204    0.167     C
C       0.4253   0.5772   0.8635     C
O       0.4256   0.1419  0.62646     O
C       0.4274   0.1219   0.0546     C
C       0.4279   0.8301    0.659     C
C       0.4299   0.9237   0.6002     C
O       0.4315   0.0529  0.50507     O
H       0.4316   0.1403   0.9336     H
C       0.4329   0.2559   0.0515     C
H       0.4333   0.1665     0.42     H
C       0.4374   0.1248   0.2365     C
C       0.4375   0.7632   0.3368     C
H       0.4377   0.0376   0.3049     H
C       0.4378   0.9611    0.927     C
C       0.4418   0.6046   0.7905     C
H       0.4429   0.7565   0.7062     H
N       0.4477   0.3385  0.27212     N
C       0.4477   0.8413   0.8177     C
C       0.4504   0.2604   0.3325     C
H       0.4533   0.4413   0.1069     H
H       0.4539   0.7456   0.8493     H
O       0.4544   0.9387  0.56321     O
C       0.4549   0.9188   0.0518     C
C       0.4553   0.0919    0.935     C
C       0.4572   0.1811   0.3943     C
C       0.4591   0.1587   0.1984     C
H       0.4615   0.8137   0.9372     H
C       0.4636   0.4017   0.2057     C
C       0.4637   0.3995   0.9465     C
C       0.4662   0.8545   0.6211     C
H       0.4663   0.7733   0.0591     H
H       0.4672   0.2996   0.0548     H
C       0.4684    0.926   0.1784     C
C       0.4691    0.773   0.6814     C
C       0.4724   0.0468   0.0593     C
C       0.4757   0.1877   0.0571     C
H       0.4766   0.0978   0.7295     H
N       0.4784   0.0795   0.7895     N
C       0.4799   0.4299    0.133     C
O         0.48   0.8929  0.42229     O
H       0.4825    0.099   0.2516     H
C       0.4853   0.9047   0.2468     C
H       0.4937   0.9402   0.1529     H
O       0.4949   0.5641  0.02363     O
C       0.4955   0.8571  0.38869     C
H       0.4977   0.7542   0.3288     H
H       0.4982   0.3749   0.9264     H
H       0.5018   0.6251   0.0736     H
H       0.5023   0.2458   0.6712     H
C       0.5045   0.1429  0.61131     C
O       0.5051   0.4359  0.97637     O
H       0.5063   0.0598   0.8471     H
C       0.5147   0.0953   0.7532     C
H       0.5175    0.901   0.7484     H
O         0.52   0.1071  0.57771     O
C       0.5201   0.5701    0.867     C
N       0.5216   0.9205   0.2105     N
H       0.5234   0.9022   0.2705     H
C       0.5243   0.8123   0.9429     C
C       0.5276   0.9532   0.9407     C
C       0.5309    0.227   0.3186     C
C       0.5316    0.074   0.8216     C
H       0.5328   0.7004   0.9452     H
H       0.5337   0.2267   0.9409     H
C       0.5338   0.1455   0.3789     C
C       0.5363   0.6005   0.0535     C
C       0.5364   0.5983   0.7943     C
H       0.5385   0.1863   0.0628     H
C       0.5409   0.8413   0.8016     C
C       0.5428   0.8189   0.6057     C
C       0.5447   0.9081    0.065     C
C       0.5451   0.0812   0.9482     C
O       0.5456   0.0613  0.43679     O
H       0.5461   0.2544   0.1507     H
H       0.5467   0.5587   0.8931     H
C       0.5496   0.7396   0.6675     C
C       0.5523   0.1587   0.1823     C
N       0.5523   0.6615  0.72788     N
H       0.5571   0.2435   0.2938     H
C       0.5582   0.3954   0.2095     C
C       0.5622   0.0389    0.073     C
H       0.5623   0.9624   0.6951     H
C       0.5625   0.2368   0.6632     C
C       0.5626   0.8752   0.7635     C
H       0.5667   0.8335     0.58     H
C       0.5671   0.7441   0.9485     C
H       0.5684   0.8597   0.0664     H
O       0.5685   0.9471  0.49493     O
C       0.5701   0.0763   0.3998     C
C       0.5721   0.1699    0.341     C
C       0.5726   0.8781   0.9454     C
O       0.5744   0.8581  0.37354     O
C       0.5747   0.4228   0.1365     C
C        0.575   0.5796    0.833     C
C       0.5797   0.1848  0.63292     C
N       0.5803   0.0123  0.95062     N
C       0.5844   0.7612   0.6286     C
C       0.5845   0.2144   0.1577     C
H        0.585   0.3833   0.2354     H
C       0.5859    0.214   0.9566     C
C       0.5946   0.6179   0.7573     C
Eu     0.59479   0.0767  0.51131    Eu
O       0.5958   0.4417  0.06412     O
H       0.5961   0.0605   0.2076     H
H       0.5972   0.0807   0.0802     H
H        0.599   0.5253   0.4178     H
C       0.5993   0.6849   0.6952     C
C       0.5994   0.9677   0.0759     C
H       0.6006   0.0044   0.6296     H
H       0.6033   0.7857   0.8494     H
C       0.6052   0.1422    0.962     C
C       0.6085   0.1085   0.7487     C
C       0.6123    0.407   0.1753     C
C       0.6135   0.1012   0.1912     C
C       0.6135   0.8067   0.8231     C
C       0.6181    0.948  0.68368     C
N       0.6196   0.4412   0.3807     N
O       0.6197   0.6032   0.0556     O
H       0.6203   0.3129   0.7023     H
O       0.6219   0.0331  0.38015     O
H       0.6241   0.3221   0.9682     H
H       0.6253   0.1476   0.3311     H
C       0.6258    0.088   0.8206     C
H       0.6321   0.1192   0.7223     H
C       0.6337   0.4295  0.09838     C
C       0.6338   0.2765   0.6823     C
H       0.6356    0.737    0.618     H
H       0.6383   0.5734   0.8359     H
C       0.6405   0.2726   0.9735     C
C       0.6405   0.9726  0.64416     C
Eu     0.64169  0.49676  0.00042    Eu
C       0.6446    0.494   0.4076     C
Eu     0.64471  0.93352   0.4311    Eu
C       0.6512   0.8708  0.74801     C
O       0.6537   0.6088  0.96374     O
C       0.6575   0.7389   0.9586     C
H       0.6592    0.395   0.8614     H
H       0.6614   0.0854   0.8451     H
C       0.6647   0.8736    0.954     C
C       0.6653   0.1056    0.783     C
C       0.6689   0.1699   0.6235     C
O       0.6708   0.8056  0.45584     O
C        0.672   0.2133    0.143     C
H        0.675   0.3675   0.3402     H
H       0.6759   0.4042   0.1784     H
C       0.6768   0.9024   0.7067     C
O       0.6777   0.4576  0.93157     O
H       0.6791   0.8635   0.1231     H
H       0.6814   0.1335   0.6035     H
O       0.6837   0.0067  0.55997     O
C       0.6851   0.1281   0.9837     C
C       0.6865   0.5986   0.7539     C
C        0.687   0.3975   0.3635     C
H       0.6899   0.2532   0.1261     H
C       0.6914   0.6669   0.6906     C
H       0.6986   0.6949   0.8638     H
C       0.6993   0.8031   0.8065     C
C       0.6994   0.9575   0.0883     C
H       0.6998   0.9172   0.9554     H
C       0.7007   0.1057   0.1753     C
H       0.7008   0.3525   0.7964     H
C       0.7029   0.6651   0.9663     C
C       0.7062   0.8049   0.9606     C
H       0.7067   0.0791   0.9851     H
C       0.7121   0.2587    0.996     C
O        0.713   0.1646  0.52465     O
H       0.7146   0.5693   0.7747     H
H       0.7152   0.6737   0.4775     H
C       0.7163   0.4073   0.8507     C
O       0.7187   0.4211  0.10424     O
N       0.7192   0.8354  0.76938     N
O       0.7196   0.0347  0.46688     O
C       0.7215   0.9505  0.62582     C
C       0.7222   0.9001   0.1168     C
C        0.723   0.2633   0.6725     C
H       0.7234   0.6848   0.6675     H
H       0.7311   0.3033   0.5333     H
N        0.732   0.1613   0.1505     N
C       0.7331   0.5062   0.4217     C
C       0.7356   0.6224   0.7203     C
C       0.7364   0.1853   0.0042     C
C       0.7382   0.8196   0.4818     C
O       0.7401   0.3871  0.01116     O
C       0.7412    0.207   0.6428     C
C       0.7412   0.3832   0.8114     C
H       0.7415   0.0672   0.1822     H
C       0.7444   0.9735  0.58147     C
H       0.7466    0.548   0.4381     H
H       0.7534    0.048   0.0619     H
C       0.7556   0.4735  0.91853     C
H       0.7585   0.5672   0.3178     H
C       0.7588    0.707   0.8572     C
C       0.7588   0.8832   0.6886     C
O       0.7599   0.8871  0.48884     O
C       0.7618   0.3196   0.0182     C
C       0.7636   0.6853   0.4958     C
C       0.7644   0.1224   0.7797     C
C       0.7669   0.0062   0.0783     C
N        0.768   0.6613   0.3495     N
H       0.7689   0.8033   0.9667     H
H       0.7766   0.1848   0.8325     H
C        0.777   0.7633   0.8275     C
C       0.7778   0.4001   0.3832     C
C       0.7785   0.4505  0.87418     C
O       0.7804   0.5347  0.03312     O
N       0.7808   0.3354  0.73062     N
O       0.7813   0.9211  0.39576     O
C       0.7837   0.9073   0.6493     C
H       0.7848   0.1737   0.0225     H
H       0.7854   0.0693   0.7253     H
O        0.787   0.6646  0.97535     O
C       0.7879   0.7587    0.504     C
H       0.7933   0.5791   0.5149     H
C       0.7938   0.3049   0.5394     C
C       0.7971   0.1651   0.5337     C
H       0.7992   0.8525   0.7036     H
C       0.7993   0.6057   0.3247     C
H       0.8002   0.4172   0.5446     H
C       0.8006   0.4575   0.4117     C
C       0.8007   0.3031   0.6935     C
H       0.8014   0.1949   0.6362     H
C       0.8086   0.1669   0.8094     C
H       0.8101   0.7532   0.3739     H
C        0.813   0.8975   0.1365     C
C       0.8135   0.0986   0.7461     C
C       0.8149   0.6281   0.5163     C
O       0.8163   0.5067  0.94003     O
H       0.8186   0.6335   0.8965     H
H       0.8209   0.3635   0.3769     H
O       0.8223   0.9576  0.56843     O
C       0.8232   0.4024   0.7933     C
H       0.8241   0.9042   0.3216     H
H        0.825   0.8675   0.1598     H
C        0.828   0.7133    0.357     C
O       0.8292   0.3056  0.04416     O
C       0.8311   0.6699   0.8765     C
C       0.8347   0.6056    0.717     C
C       0.8353   0.3736    0.546     C
H       0.8386   0.5854   0.6549     H
H       0.8408    0.895   0.6386     H
C       0.8425   0.2389   0.5414     C
O       0.8463   0.1088  0.53626     O
C       0.8488   0.3708  0.75199     C
Eu     0.85529  0.43352   0.0689    Eu
C       0.8554    0.994   0.0924     C
Eu     0.85831  0.99676  0.49958    Eu
C       0.8595   0.4726  0.85584     C
C       0.8595   0.7726   0.5265     C
H       0.8617   0.0734   0.6641     H
H       0.8644    0.237    0.882     H
C       0.8662   0.7765   0.8177     C
C       0.8663   0.9295  0.40162     C
H       0.8679   0.6192   0.7777     H
C       0.8742    0.588   0.6794     C
H       0.8747   0.6476   0.1689     H
H       0.8759   0.8221   0.5318     H
O       0.8781   0.5331  0.11985     O
H       0.8797   0.8129   0.7977     H
O       0.8803   0.1032   0.4444     O
N       0.8804   0.9412   0.1193     N
C       0.8819    0.448  0.81632     C
C       0.8865   0.3067   0.6769     C
C       0.8865   0.6012   0.3088     C
C       0.8877    0.907   0.3247     C
C       0.8915   0.6085   0.7513     C
C       0.8948   0.6422    0.538     C
H       0.8967   0.2857   0.6506     H
H       0.8994   0.5044   0.8704     H
C       0.9006   0.4677   0.4241     C
C       0.9007   0.1849   0.8048     C
H        0.901   0.0253   0.0822     H
H       0.9028   0.5807   0.4198     H
H       0.9039   0.5605   0.2924     H
O       0.9042   0.9417  0.43588     O
Eu     0.90521   0.5767  0.98869    Eu
C       0.9054   0.1179   0.7427     C
C       0.9141    0.714   0.5434     C
H        0.915   0.8833   0.2646     H
C       0.9155   0.7144   0.3423     C
C       0.9156   0.2612   0.8714     C
N       0.9197   0.5123  0.54938     N
C       0.9203   0.6848  0.86708     C
C        0.925   0.0796    0.667     C
C       0.9253   0.9228   0.3635     C
O       0.9256   0.3581  0.12646     O
C       0.9274   0.3781   0.5546     C
C       0.9279   0.6699    0.159     C
C       0.9299   0.5763   0.1002     C
O       0.9315   0.4471  0.00507     O
H       0.9316   0.3597   0.4336     H
C       0.9329   0.2441   0.5515     C
H       0.9333   0.3335     0.92     H
C       0.9374   0.3752   0.7365     C
C       0.9375   0.7368   0.8368     C
H       0.9377   0.4624   0.8049     H
C       0.9378   0.5389    0.427     C
C       0.9418   0.8954   0.2905     C
H       0.9429   0.7435   0.2062     H
N       0.9477   0.1615  0.77212     N
C       0.9477   0.6587   0.3177     C
C       0.9504   0.2396   0.8325     C
H       0.9533   0.0587   0.6069     H
H       0.9539   0.7544   0.3493     H
O       0.9544   0.5613  0.06321     O
C       0.9549   0.5812   0.5518     C
C       0.9553   0.4081    0.435     C
C       0.9572   0.3189   0.8943     C
C       0.9591   0.3413   0.6984     C
H       0.9615   0.6863   0.4372     H
C       0.9636   0.0983   0.7057     C
C       0.9637   0.1005   0.4465     C
C       0.9662   0.6455   0.1211     C
H       0.9663   0.7267   0.5591     H
H       0.9672   0.2004   0.5548     H
C       0.9684    0.574   0.6784     C
C       0.9691    0.727   0.1814     C
C       0.9724   0.4532   0.5593     C
C       0.9757   0.3123   0.5571     C
H       0.9766   0.4022   0.2295     H
N       0.9784   0.4205   0.2895     N
C       0.9799   0.0701    0.633     C
O         0.98   0.6071  0.92229     O
H       0.9825    0.401   0.7516     H
C       0.9853   0.5953   0.7468     C
H       0.9937   0.5598   0.6529     H
O       0.9949   0.9359  0.52363     O
C       0.9955   0.6429  0.88869     C
H       0.9977   0.7458   0.8288     H
H       0.9982   0.1251   0.4264     H
