data_I
_chemical_name_common  '/home/zhangsd/repos/MofS-CGCNN/ML/data/WS24/clean_cifs/LURRUM'
_cell_length_a  7.12000
_cell_length_b 15.93200
_cell_length_c 30.74800
_cell_angle_alpha 90.00000
_cell_angle_beta  90.00000
_cell_angle_gamma 90.00000
_space_group_name_H-M_alt      'P 1'


loop_
_space_group_symop_operation_xyz
  'x, y, z' 

loop_
_atom_site_label
_atom_site_fract_x
_atom_site_fract_y
_atom_site_fract_z
_atom_site_type_symbol
O          0.0      0.0   0.2163     O
H          0.0      0.0   0.8156     H
C          0.0   0.1223   0.3056     C
C          0.0   0.1223   0.6944     C
C          0.0   0.1963   0.3342     C
C          0.0   0.1963   0.6658     C
H          0.0   0.2892   0.4584     H
H          0.0   0.2892   0.5416     H
C          0.0   0.3393   0.4751     C
C          0.0   0.3393   0.5249     C
C          0.0   0.4213   0.4559     C
C          0.0   0.4213   0.5441     C
C          0.0   0.4257   0.4099     C
C          0.0   0.4257   0.5901     C
H          0.0      0.5   0.3552     H
C          0.0      0.5   0.3861     C
C          0.0      0.5   0.4776     C
C          0.0      0.5   0.5224     C
C          0.0      0.5   0.6139     C
H          0.0      0.5   0.6448     H
C          0.0   0.5743   0.4099     C
C          0.0   0.5743   0.5901     C
C          0.0   0.5787   0.4559     C
C          0.0   0.5787   0.5441     C
C          0.0   0.6607   0.4751     C
C          0.0   0.6607   0.5249     C
H          0.0   0.7108   0.4584     H
H          0.0   0.7108   0.5416     H
C          0.0   0.8037   0.3342     C
C          0.0   0.8037   0.6658     C
C          0.0   0.8777   0.3056     C
C          0.0   0.8777   0.6944     C
H          0.0      1.0   0.1844     H
O          0.0      1.0   0.7837     O
C        0.023   0.3455   0.3862     C
C        0.023   0.3455   0.6138     C
C        0.023   0.6545   0.3862     C
C        0.023   0.6545   0.6138     C
C        0.135   0.3297   0.3578     C
C        0.135   0.3297   0.6422     C
C        0.135   0.6703   0.3578     C
C        0.135   0.6703   0.6422     C
C        0.141   0.2917   0.3862     C
C        0.141   0.2917   0.6138     C
C        0.141   0.7083   0.3862     C
C        0.141   0.7083   0.6138     C
C        0.142   0.2568   0.3331     C
C        0.142   0.2568   0.6669     C
C        0.142   0.7432   0.3331     C
C        0.142   0.7432   0.6669     C
C        0.151   0.2094   0.3611     C
C        0.151   0.2094   0.6389     C
C        0.151   0.7906   0.3611     C
C        0.151   0.7906   0.6389     C
O       0.1516   0.0956  0.29407     O
O       0.1516   0.0956  0.70593     O
O       0.1516   0.9044  0.29407     O
O       0.1516   0.9044  0.70593     O
H       0.2006   0.3412   0.1363     H
H       0.2006   0.3412   0.8637     H
H       0.2006   0.6588   0.1363     H
H       0.2006   0.6588   0.8637     H
H       0.2217   0.2125   0.1715     H
H       0.2217   0.2125   0.8285     H
H       0.2217   0.7875   0.1715     H
H       0.2217   0.7875   0.8285     H
H       0.2251   0.1979   0.1462     H
H       0.2251   0.1979   0.8538     H
H       0.2251   0.8021   0.1462     H
H       0.2251   0.8021   0.8538     H
H       0.2274    0.288   0.0953     H
H       0.2274    0.288   0.9047     H
H       0.2274    0.712   0.0953     H
H       0.2274    0.712   0.9047     H
H       0.2341   0.3694    0.356     H
H       0.2341   0.3694    0.644     H
H       0.2341   0.6306    0.356     H
H       0.2341   0.6306    0.644     H
H       0.2396   0.3024   0.4063     H
H       0.2396   0.3024   0.5937     H
H       0.2396   0.6976   0.4063     H
H       0.2396   0.6976   0.5937     H
H       0.2477   0.1684   0.3622     H
H       0.2477   0.1684   0.6378     H
H       0.2477    0.248   0.3146     H
H       0.2477    0.248   0.6854     H
H       0.2477    0.752   0.3146     H
H       0.2477    0.752   0.6854     H
H       0.2477   0.8316   0.3622     H
H       0.2477   0.8316   0.6378     H
In        0.25      0.0     0.25    In
In        0.25      0.0     0.75    In
H       0.2523   0.1684   0.1378     H
H       0.2523   0.1684   0.8622     H
H       0.2523    0.248   0.1854     H
H       0.2523    0.248   0.8146     H
H       0.2523    0.752   0.1854     H
H       0.2523    0.752   0.8146     H
H       0.2523   0.8316   0.1378     H
H       0.2523   0.8316   0.8622     H
H       0.2604   0.3024   0.0937     H
H       0.2604   0.3024   0.9063     H
H       0.2604   0.6976   0.0937     H
H       0.2604   0.6976   0.9063     H
H       0.2659   0.3694    0.144     H
H       0.2659   0.3694    0.856     H
H       0.2659   0.6306    0.144     H
H       0.2659   0.6306    0.856     H
H       0.2726    0.288   0.4047     H
H       0.2726    0.288   0.5953     H
H       0.2726    0.712   0.4047     H
H       0.2726    0.712   0.5953     H
H       0.2749   0.1979   0.3538     H
H       0.2749   0.1979   0.6462     H
H       0.2749   0.8021   0.3538     H
H       0.2749   0.8021   0.6462     H
H       0.2783   0.2125   0.3285     H
H       0.2783   0.2125   0.6715     H
H       0.2783   0.7875   0.3285     H
H       0.2783   0.7875   0.6715     H
H       0.2994   0.3412   0.3637     H
H       0.2994   0.3412   0.6363     H
H       0.2994   0.6588   0.3637     H
H       0.2994   0.6588   0.6363     H
C        0.317   0.3119   0.1368     C
C        0.317   0.3119   0.8632     C
C        0.317   0.6881   0.1368     C
C        0.317   0.6881   0.8632     C
C        0.332   0.2369   0.1596     C
C        0.332   0.2369   0.8404     C
C        0.332   0.7631   0.1596     C
C        0.332   0.7631   0.8404     C
C        0.334   0.2811   0.1134     C
C        0.334   0.2811   0.8866     C
C        0.334   0.7189   0.1134     C
C        0.334   0.7189   0.8866     C
O       0.3484   0.0956  0.20593     O
O       0.3484   0.0956  0.79407     O
O       0.3484   0.9044  0.20593     O
O       0.3484   0.9044  0.79407     O
C        0.477   0.3455   0.1138     C
C        0.477   0.3455   0.8862     C
C        0.477   0.6545   0.1138     C
C        0.477   0.6545   0.8862     C
H          0.5      0.0   0.3156     H
H          0.5      0.0   0.6844     H
C          0.5   0.1223   0.1944     C
C          0.5   0.1223   0.8056     C
C          0.5   0.1963   0.1658     C
C          0.5   0.1963   0.8342     C
H          0.5   0.2892   0.0416     H
H          0.5   0.2892   0.9584     H
C          0.5   0.3393   0.0249     C
C          0.5   0.3393   0.9751     C
C          0.5   0.4213   0.0441     C
C          0.5   0.4213   0.9559     C
C          0.5   0.4257   0.0901     C
C          0.5   0.4257   0.9099     C
C          0.5      0.5   0.0224     C
C          0.5      0.5   0.1139     C
H          0.5      0.5   0.1448     H
H          0.5      0.5   0.8552     H
C          0.5      0.5   0.8861     C
C          0.5      0.5   0.9776     C
C          0.5   0.5743   0.0901     C
C          0.5   0.5743   0.9099     C
C          0.5   0.5787   0.0441     C
C          0.5   0.5787   0.9559     C
C          0.5   0.6607   0.0249     C
C          0.5   0.6607   0.9751     C
H          0.5   0.7108   0.0416     H
H          0.5   0.7108   0.9584     H
C          0.5   0.8037   0.1658     C
C          0.5   0.8037   0.8342     C
C          0.5   0.8777   0.1944     C
C          0.5   0.8777   0.8056     C
O          0.5      1.0   0.2837     O
O          0.5      1.0   0.7163     O
C        0.635   0.3297   0.1422     C
C        0.635   0.3297   0.8578     C
C        0.635   0.6703   0.1422     C
C        0.635   0.6703   0.8578     C
C        0.641   0.2917   0.1138     C
C        0.641   0.2917   0.8862     C
C        0.641   0.7083   0.1138     C
C        0.641   0.7083   0.8862     C
C        0.642   0.2568   0.1669     C
C        0.642   0.2568   0.8331     C
C        0.642   0.7432   0.1669     C
C        0.642   0.7432   0.8331     C
C        0.651   0.2094   0.1389     C
C        0.651   0.2094   0.8611     C
C        0.651   0.7906   0.1389     C
C        0.651   0.7906   0.8611     C
O       0.6516   0.0956  0.20593     O
O       0.6516   0.0956  0.79407     O
O       0.6516   0.9044  0.20593     O
O       0.6516   0.9044  0.79407     O
H       0.7006   0.3412   0.3637     H
H       0.7006   0.3412   0.6363     H
H       0.7006   0.6588   0.3637     H
H       0.7006   0.6588   0.6363     H
H       0.7217   0.2125   0.3285     H
H       0.7217   0.2125   0.6715     H
H       0.7217   0.7875   0.3285     H
H       0.7217   0.7875   0.6715     H
H       0.7251   0.1979   0.3538     H
H       0.7251   0.1979   0.6462     H
H       0.7251   0.8021   0.3538     H
H       0.7251   0.8021   0.6462     H
H       0.7274    0.288   0.4047     H
H       0.7274    0.288   0.5953     H
H       0.7274    0.712   0.4047     H
H       0.7274    0.712   0.5953     H
H       0.7341   0.3694    0.144     H
H       0.7341   0.3694    0.856     H
H       0.7341   0.6306    0.144     H
H       0.7341   0.6306    0.856     H
H       0.7396   0.3024   0.0937     H
H       0.7396   0.3024   0.9063     H
H       0.7396   0.6976   0.0937     H
H       0.7396   0.6976   0.9063     H
H       0.7477   0.1684   0.1378     H
H       0.7477   0.1684   0.8622     H
H       0.7477    0.248   0.1854     H
H       0.7477    0.248   0.8146     H
H       0.7477    0.752   0.1854     H
H       0.7477    0.752   0.8146     H
H       0.7477   0.8316   0.1378     H
H       0.7477   0.8316   0.8622     H
In        0.75      0.0     0.25    In
In        0.75      0.0     0.75    In
H       0.7523   0.1684   0.3622     H
H       0.7523   0.1684   0.6378     H
H       0.7523    0.248   0.3146     H
H       0.7523    0.248   0.6854     H
H       0.7523    0.752   0.3146     H
H       0.7523    0.752   0.6854     H
H       0.7523   0.8316   0.3622     H
H       0.7523   0.8316   0.6378     H
H       0.7604   0.3024   0.4063     H
H       0.7604   0.3024   0.5937     H
H       0.7604   0.6976   0.4063     H
H       0.7604   0.6976   0.5937     H
H       0.7659   0.3694    0.356     H
H       0.7659   0.3694    0.644     H
H       0.7659   0.6306    0.356     H
H       0.7659   0.6306    0.644     H
H       0.7726    0.288   0.0953     H
H       0.7726    0.288   0.9047     H
H       0.7726    0.712   0.0953     H
H       0.7726    0.712   0.9047     H
H       0.7749   0.1979   0.1462     H
H       0.7749   0.1979   0.8538     H
H       0.7749   0.8021   0.1462     H
H       0.7749   0.8021   0.8538     H
H       0.7783   0.2125   0.1715     H
H       0.7783   0.2125   0.8285     H
H       0.7783   0.7875   0.1715     H
H       0.7783   0.7875   0.8285     H
H       0.7994   0.3412   0.1363     H
H       0.7994   0.3412   0.8637     H
H       0.7994   0.6588   0.1363     H
H       0.7994   0.6588   0.8637     H
C        0.817   0.3119   0.3632     C
C        0.817   0.3119   0.6368     C
C        0.817   0.6881   0.3632     C
C        0.817   0.6881   0.6368     C
C        0.832   0.2369   0.3404     C
C        0.832   0.2369   0.6596     C
C        0.832   0.7631   0.3404     C
C        0.832   0.7631   0.6596     C
C        0.834   0.2811   0.3866     C
C        0.834   0.2811   0.6134     C
C        0.834   0.7189   0.3866     C
C        0.834   0.7189   0.6134     C
O       0.8484   0.0956  0.29407     O
O       0.8484   0.0956  0.70593     O
O       0.8484   0.9044  0.29407     O
O       0.8484   0.9044  0.70593     O
