data_I
_chemical_name_common  '/home/zhangsd/repos/MofS-CGCNN/ML/data/WS24/clean_cifs/LUVWUU'
_cell_length_a 31.30140
_cell_length_b 31.30140
_cell_length_c 12.79210
_cell_angle_alpha 90.00000
_cell_angle_beta  90.00000
_cell_angle_gamma 120.00000
_space_group_name_H-M_alt      'P 1'


loop_
_space_group_symop_operation_xyz
  'x, y, z' 

loop_
_atom_site_label
_atom_site_fract_x
_atom_site_fract_y
_atom_site_fract_z
_atom_site_type_symbol
N      0.00982  0.13361  0.41037     N
C      0.01153   0.7915  0.71133     C
H      0.01157  0.80483  0.78153     H
H      0.01207  0.74073  0.54093     H
C      0.01303  0.09417  0.38527     C
C      0.01349  0.50494  0.89433     C
C      0.01625  0.47645  0.06773     C
H      0.02227  0.50803  0.82253     H
H      0.02417  0.74453  0.34803     H
H      0.02467  0.76873  0.71813     H
C      0.02523  0.76946  0.49833     C
C      0.02547  0.93733  0.68193     C
H      0.02697  0.46003  0.11413     H
C      0.02995   0.4818  0.96403     C
H      0.03097  0.96743  0.71193     H
N      0.03149   0.8728  0.63863     N
C      0.03176  0.77132  0.39373     C
H      0.03257  0.06353  0.71193     H
H       0.0355   0.4855   0.5006     H
O        0.037  0.23434  0.32717     O
H      0.03803  0.08787  0.40977     H
H      0.03897  0.42493  0.90813     H
N      0.04106  0.81639  0.53133     N
C      0.04465  0.83394  0.63763     C
H      0.04983  0.96197  0.40977     H
C      0.05219  0.82135  0.36663     C
H      0.05263  0.29437  0.24147     H
C      0.05297  0.91503  0.69483     C
C       0.0534   0.5067   0.4442     C
H       0.0537   0.6425   0.0147     H
N      0.05815  0.84873  0.44993     N
C       0.0602  0.46073  0.92033     C
H       0.0603   0.4617   0.3343     H
H      0.06057  0.83383  0.29743     H
H        0.062   0.6546   0.2076     H
C      0.06267  0.08813  0.68193     C
H      0.06353  0.03097  0.28807     H
H       0.0664   0.5762    0.487     H
C       0.0672  0.27314  0.25367     C
C       0.0677  0.49418   0.3517     C
H      0.06807  0.27303  0.66763     H
H      0.06843  0.25837  0.18597     H
C       0.0705   0.5562   0.4366     C
Ag      0.0723  0.20065  0.47425    Ag
C       0.0729  0.63491   0.0604     C
H      0.07297  0.15493  0.73593     H
H      0.07407  0.39533  0.12573     H
H      0.07497  0.47673  0.85263     H
H       0.0774    0.642   0.3848     H
C      0.07757  0.64144    0.165     C
H      0.07787  0.38703  0.31863     H
C      0.08113  0.98697  0.38527     C
H      0.08197  0.92703  0.73593     H
C      0.08497  0.13793  0.69483     C
H      0.08787  0.04983  0.59023     H
C      0.08813  0.02547  0.31807     C
H      0.09047  0.82353  0.82033     H
H       0.0916   0.7193   0.4252     H
N      0.09276  0.53293   0.2912     N
C      0.09315  0.26563  0.68503     C
N       0.0941  0.57132   0.3447     N
C      0.09417  0.08113  0.61473     C
N      0.09535  0.85611  0.67803     N
O        0.099  0.46933  0.99383     O
H      0.09973  0.30637  0.44747     H
H      0.10207  0.41073  0.94853     H
C       0.1025  0.61448   0.0333     C
C       0.1028   0.4109  0.16833     C
C      0.10466  0.40623  0.27293     C
H       0.1066   0.6061   0.9641     H
N      0.10684  0.24057  0.62453     N
N      0.10867  0.62561    0.198     N
C      0.11047  0.84763  0.76993     C
C      0.11331  0.65514    0.378     C
H      0.11667  0.29783  0.83393     H
C      0.11852  0.30339  0.29737     C
C      0.11997  0.27993  0.77753     C
C      0.12263  0.62202   0.3043     C
N      0.12378  0.99018  0.41037     N
N      0.12392  0.60852   0.1166     N
C      0.12484  0.44664  0.95533     C
H       0.1266   0.6551   0.4482     H
H       0.1267   0.7664   0.2192     H
C      0.12687  0.31709  0.40107     C
N       0.1272  0.15868  0.63863     N
C       0.1274  0.73387    0.413     C
Ag     0.12835   0.9277  0.47425    Ag
H      0.12837  0.73473  0.99903     H
Ag     0.13268  0.53832  0.14092    Ag
N      0.13361  0.12378  0.58963     N
N      0.13374  0.89316  0.62453     N
O        0.136  0.70367   0.3395     O
C      0.13793  0.05297  0.30517     C
H      0.13817  0.45993  0.88513     H
C      0.14312  0.79354   0.2656     C
H       0.1434   0.7351   0.4807     H
N      0.14389  0.23923  0.67803     N
C      0.14847  0.78519   0.3693     C
N      0.14973    0.442  0.13533     N
N      0.15127  0.20941  0.44993     N
H      0.15217  0.78333  0.83273     H
C      0.15237  0.26283  0.76993     C
H      0.15243  0.31107  0.15587     H
C      0.15469  0.43583  0.30003     C
H      0.15493  0.08197  0.26407     H
H      0.15687  0.39973  0.84633     H
C      0.15812  0.31985  0.22767     C
H      0.15863  0.84757  0.15587     H
N      0.15868  0.03149  0.36137     N
C      0.15997  0.88003  0.77753     C
C      0.16085  0.75981  0.98163     C
C      0.16172  0.84188  0.22767     C
C      0.16606   0.2107  0.63763     C
H      0.16617  0.22673  0.29743     H
H      0.16717  0.43993  0.36923     H
C      0.16728  0.45596  0.02903     C
C      0.17161  0.82479    0.439     C
C      0.17249  0.90685  0.68503     C
C      0.17337  0.78663  0.88913     C
N      0.17465  0.63518   0.3053     N
H       0.1747   0.8191   0.5108     H
C      0.17521  0.34682    0.439     C
H      0.17647  0.26693  0.82033     H
H       0.1784   0.5847   0.4026     H
C      0.17865  0.23083  0.36663     C
H       0.1809   0.3556   0.5108     H
C      0.18097  0.40383  0.89673     C
H      0.18117  0.88333  0.83393     H
N      0.18207  0.45725  0.21673     N
N      0.18361  0.22466  0.53133     N
C      0.18486  0.88148  0.29737     C
N      0.18945  0.42743  0.98863     N
H      0.18993  0.93157  0.18597     H
C      0.19021  0.87313  0.40107     C
H      0.19517  0.20673  0.78153     H
C       0.1954   0.6137   0.3615     C
O      0.19733    0.963  0.32717     O
N       0.1996   0.7735  0.04213     N
N      0.19973  0.54288  0.07703     N
Ag     0.20065  0.12835  0.52575    Ag
H      0.20497  0.93193  0.66763     H
Ag     0.20498  0.73897  0.19241    Ag
C      0.20593   0.9328  0.25367     C
N      0.20614  0.50798  0.02803     N
C      0.20646  0.34958   0.2656     C
H      0.20663  0.90027  0.44747     H
H      0.20673  0.01157  0.21847     H
C       0.2085  0.22002  0.71133     C
N      0.20941  0.05815  0.55007     N
N      0.20955  0.67649   0.2563     N
C       0.2107  0.04465  0.36237     C
C      0.21337  0.38673  0.88913     C
C      0.21481  0.36328   0.3693     C
H      0.21667  0.36883  0.83273     H
C      0.22002  0.01153  0.28867     C
C      0.22287  0.81903  0.89673     C
N      0.22466  0.04106  0.46867     N
N       0.2265  0.42609  0.04213     N
H      0.22673  0.06057  0.70257     H
C      0.22868  0.26043  0.39373     C
C      0.23054  0.25576  0.49833     C
C      0.23083  0.05219  0.63337     C
H      0.23127  0.25593  0.71813     H
H       0.2336   0.3603   0.2192     H
O      0.23434  0.19733  0.67283     O
N      0.23799  0.81055  0.98863     N
C      0.23917  0.58553  0.05193     C
N      0.23923  0.09535  0.32197     N
C      0.24019  0.40103  0.98163     C
N      0.24057  0.13374  0.37547     N
H      0.24173  0.94737  0.24147     H
H      0.24287  0.84313  0.84633     H
C       0.2452   0.6412   0.3486     C
H      0.24547  0.61683  0.07643     H
C      0.24837  0.52873  0.97183     C
H      0.25137  0.73963  0.93073     H
C       0.2522   0.6797   0.2814     C
H      0.25547  0.27963  0.34803     H
C      0.25576  0.02523  0.50167     C
H      0.25593  0.02467  0.28187     H
H      0.25837  0.18993  0.81403     H
H      0.25927  0.27133  0.54093     H
H      0.26037  0.51173  0.93073     H
C      0.26043  0.03176  0.60627     C
Ag     0.26103  0.46602  0.19241    Ag
C      0.26283  0.11047  0.23007     C
H       0.2649   0.4083   0.4807     H
H      0.26527  0.39363  0.99903     H
C      0.26563  0.17249  0.31497     C
C      0.26613  0.39353    0.413     C
H      0.26693  0.09047  0.17967     H
H       0.2698   0.6357   0.3786     H
C      0.27067  0.57853  0.98473     C
H      0.27133  0.01207  0.45907     H
H      0.27277  0.83283  0.36923     H
H      0.27303  0.20497  0.33237     H
C      0.27314  0.20593  0.74633     C
N      0.27519  0.81793  0.21673     N
H      0.27963  0.02417  0.65197     H
C      0.27993  0.15997  0.22247     C
C      0.28037  0.75163  0.97183     C
H       0.2807   0.3723   0.4252     H
C      0.28115  0.84531  0.30003     C
H       0.2835   0.7047   0.2569     H
C      0.28869  0.83272  0.02903     C
N      0.29228  0.85027  0.13533     N
H      0.29437  0.24173  0.75853     H
H       0.2953   0.5788   0.2569     H
O      0.29633  0.43233   0.3395     O
H      0.29783  0.18117  0.16607     H
H      0.30077  0.60313  0.95473     H
C      0.30158  0.89534  0.27293     C
N      0.30185  0.79386  0.02803     N
H      0.30237  0.69923  0.95473     H
C      0.30339  0.18486  0.70263     C
H      0.30637  0.20663  0.55253     H
C      0.30787  0.72933  0.98473     C
C      0.30811   0.8972  0.16833     C
H      0.30867  0.89793  0.94853     H
H      0.30917  0.92213  0.31863     H
H      0.31107  0.15863  0.84413     H
C      0.31709  0.19021  0.59893     C
C      0.31985  0.16172  0.77233     C
C       0.3203   0.5725   0.2814     C
H      0.32127  0.92593  0.12573     H
H      0.32177  0.86183  0.88513     H
C      0.32181  0.87516  0.95533     C
N      0.32351  0.53306   0.2563     N
N      0.34316  0.80027  0.07703     N
C      0.34486  0.45817    0.378     C
H       0.3449   0.4715   0.4482     H
H       0.3454   0.4074   0.2076     H
C      0.34637  0.76083  0.05193     C
C      0.34682  0.17161    0.561     C
C      0.34958  0.14312   0.7344     C
H       0.3556   0.1747   0.4892     H
H       0.3575   0.4112   0.0147     H
H        0.358   0.4354   0.3848     H
C      0.35856  0.43613    0.165     C
C       0.3588    0.604   0.3486     C
H       0.3603   0.1267   0.7808     H
C      0.36328  0.14847   0.6307     C
H       0.3643   0.6341   0.3786     H
N      0.36482  0.53947   0.3053     N
C      0.36509  0.43799   0.0604     C
H       0.3659   0.7302   0.3786     H
H      0.36883  0.15217  0.16727     H
O      0.37034    0.901  0.99383     O
H      0.37137  0.75453  0.07643     H
H       0.3723   0.0916   0.5748     H
N      0.37439  0.48306    0.198     N
C      0.37798  0.50061   0.3043     C
H      0.38317  0.62863  0.07643     H
C      0.38552  0.48802   0.0333     C
H      0.38597  0.96103  0.90813     H
C       0.3863   0.5817   0.3615     C
C      0.38673  0.17337  0.11087     C
H      0.38703  0.30917  0.68137     H
N      0.39148   0.5154   0.1166     N
C      0.39353   0.1274    0.587     C
H      0.39363  0.12837  0.00097     H
H       0.3939   0.5005   0.9641     H
H      0.39533  0.32127  0.87427     H
C        0.396   0.7548   0.3486     C
H      0.39687  0.69763  0.95473     H
H      0.39973  0.24287  0.15367     H
C      0.40054   0.9398  0.92033     C
C      0.40103  0.16085  0.01837     C
H       0.4014   0.9397   0.3343     H
H      0.40177  0.92503  0.85263     H
C      0.40383  0.22287  0.10327     C
Ag     0.40563  0.86732  0.14092    Ag
C      0.40623  0.30158  0.72707     C
H       0.4063   0.8216   0.4026     H
H       0.4074    0.062   0.7924     H
H       0.4083   0.1434   0.5193     H
H      0.41073  0.30867  0.05147     H
C       0.4109  0.30811  0.83167     C
H       0.4112   0.0537   0.9853     H
C      0.41447  0.65363  0.05193     C
H       0.4153   0.5937   0.4026     H
C       0.4183   0.8046   0.3615     C
H       0.4212   0.7165   0.2569     H
C      0.42147  0.69213  0.98473     C
H       0.4238   0.4902    0.487     H
H      0.42493  0.38597  0.09187     H
N      0.42609   0.1996  0.95787     N
C      0.42648   0.9323   0.3517     C
N      0.42743  0.23799  0.01137     N
C       0.4275   0.7478   0.2814     C
N      0.42868  0.52278   0.3447     N
O      0.43233    0.136   0.6605     O
H      0.43307  0.97303  0.11413     H
H       0.4354   0.0774   0.6152     H
C      0.43583  0.28115  0.69997     C
C      0.43613  0.07757    0.835     C
C      0.43799   0.0729   0.9396     C
H      0.43993  0.27277  0.63077     H
N      0.44017  0.90724   0.2912     N
N        0.442  0.29228  0.86467     N
C       0.4438   0.5143   0.4366     C
C      0.44664  0.32181  0.04467     C
H         0.45   0.9645   0.5006     H
C      0.45186  0.97005  0.96403     C
C       0.4533   0.9466   0.4442     C
C      0.45596  0.28869  0.97097     C
N      0.45712  0.65684  0.07703     N
N      0.45725  0.27519  0.78327     N
C      0.45817  0.11331    0.622     C
H      0.45993  0.32177  0.11487     H
H      0.46003  0.43307  0.88587     H
C      0.46021  0.98375  0.06773     C
N      0.46053  0.82535   0.3053     N
C      0.46073  0.40054  0.07967     C
Ag     0.46168  0.59437  0.14092    Ag
H       0.4617   0.4014   0.6657     H
Ag     0.46602  0.20498  0.80759    Ag
N      0.46694  0.79045   0.2563     N
N      0.46707  0.55983   0.2912     N
O      0.46933  0.37034  0.00617     O
C      0.47127  0.71963  0.97183     C
H       0.4715   0.1266   0.5518     H
C      0.47645  0.46021  0.93227     C
H      0.47673  0.40177  0.14737     H
N      0.47722   0.9059   0.3447     N
C       0.4818  0.45186  0.03597     C
N      0.48306  0.10867    0.802     N
N       0.4846  0.87608   0.1166     N
H       0.4855     0.45   0.4994     H
C       0.4857   0.9295   0.4366     C
H      0.48577  0.97773  0.82253     H
C      0.48802   0.1025   0.9667     C
H      0.48827  0.74863  0.93073     H
H       0.4902   0.0664    0.513     H
C      0.49146  0.98651  0.89433     C
H      0.49197  0.51423  0.82253     H
N      0.49202  0.69815  0.02803     N
C       0.4933   0.5467   0.4442     C
C      0.49418  0.42648   0.6483     C
C      0.49506  0.50854  0.89433     C
C      0.49939  0.87737   0.3043     C
H       0.4995   0.8934   0.9641     H
H       0.5005   0.1066   0.0359     H
C      0.50061  0.12263   0.6957     C
C      0.50494  0.49146  0.10567     C
C      0.50582  0.57352   0.3517     C
C       0.5067   0.4533   0.5558     C
N      0.50798  0.30185  0.97197     N
H      0.50803  0.48577  0.17747     H
C      0.50854  0.01349  0.10567     C
H       0.5098   0.9336    0.487     H
H      0.51173  0.25137  0.06927     H
C      0.51198   0.8975   0.0333     C
H      0.51423  0.02227  0.17747     H
C       0.5143   0.0705   0.5634     C
H       0.5145     0.55   0.5006     H
N       0.5154  0.12392   0.8834     N
N      0.51694  0.89133    0.198     N
C       0.5182  0.54814  0.96403     C
N      0.52278   0.0941   0.6553     N
H      0.52327  0.59823  0.85263     H
C      0.52355  0.53979  0.06773     C
H       0.5285   0.8734   0.4482     H
C      0.52873  0.28037  0.02817     C
O      0.53067  0.62966  0.99383     O
N      0.53293  0.44017   0.7088     N
N      0.53306  0.20955   0.7437     N
Ag     0.53398  0.79502  0.19241    Ag
H       0.5383   0.5986   0.3343     H
Ag     0.53832  0.40563  0.85908    Ag
C      0.53927  0.59946  0.92033     C
N      0.53947  0.17465   0.6947     N
C      0.53979  0.01625  0.93227     C
H      0.53997  0.56693  0.11413     H
H      0.54007  0.67823  0.88513     H
C      0.54183  0.88669    0.378     C
N      0.54275  0.72481  0.21673     N
N      0.54288  0.34316  0.92297     N
C      0.54404  0.71131  0.02903     C
C       0.5467   0.0534   0.5558     C
C      0.54814  0.02995  0.03597     C
H         0.55   0.0355   0.4994     H
C      0.55336  0.67819  0.95533     C
C       0.5562   0.4857   0.5634     C
N        0.558  0.70772  0.13533     N
N      0.55983  0.09276   0.7088     N
H      0.56007  0.72723  0.36923     H
C      0.56201   0.9271   0.0604     C
C      0.56387  0.92243    0.165     C
C      0.56417  0.71885  0.30003     C
H       0.5646   0.9226   0.3848     H
H      0.56693  0.02697  0.88587     H
O      0.56767    0.864   0.3395     O
N      0.57132  0.47722   0.6553     N
C       0.5725   0.2522   0.7186     C
N      0.57257  0.76201  0.98863     N
C      0.57352   0.0677   0.6483     C
N      0.57391   0.8004  0.04213     N
H      0.57507  0.61403  0.90813     H
H       0.5762   0.5098    0.513     H
C      0.57853  0.30787  0.01527     C
H       0.5788   0.2835   0.7431     H
C       0.5817   0.1954   0.6385     C
H       0.5847   0.4063   0.5974     H
C      0.58553  0.34637  0.94807     C
H       0.5888   0.9463   0.0147     H
C       0.5891  0.69189  0.16833     C
H      0.58927  0.69133  0.94853     H
H       0.5917   0.8566   0.4807     H
H       0.5926    0.938   0.2076     H
H       0.5937   0.1784   0.5974     H
C      0.59377  0.69842  0.27293     C
Ag     0.59437  0.13268  0.85908    Ag
C      0.59617  0.77713  0.89673     C
H      0.59823  0.07497  0.14737     H
H       0.5986   0.0603   0.6657     H
C      0.59897  0.83915  0.98163     C
C      0.59946   0.0602  0.07967     C
H      0.60027  0.75713  0.84633     H
H      0.60313  0.30237  0.04527     H
C        0.604   0.2452   0.6514     C
H      0.60467  0.67873  0.12573     H
H       0.6061   0.4995   0.0359     H
H      0.60637  0.87163  0.99903     H
C      0.60647   0.8726    0.413     C
N      0.60852   0.4846   0.8834     N
H      0.61297  0.69083  0.31863     H
C      0.61327  0.82663  0.88913     C
C       0.6137   0.4183   0.6385     C
H      0.61403  0.03897  0.09187     H
C      0.61448  0.51198   0.9667     C
H      0.61683  0.37137  0.92357     H
C      0.62202  0.49939   0.6957     C
N      0.62561  0.51694    0.802     N
H       0.6277   0.9084   0.4252     H
H      0.62863  0.24547  0.92357     H
O      0.62966    0.099  0.00617     O
H      0.63117  0.84783  0.83273     H
H       0.6341   0.2698   0.6214     H
C      0.63491  0.56201   0.9396     C
N      0.63518  0.46053   0.6947     N
H       0.6357   0.3659   0.6214     H
C      0.63672  0.85153   0.3693     C
H       0.6397   0.8733   0.2192     H
C       0.6412    0.396   0.6514     C
C      0.64144  0.56387    0.835     C
H        0.642   0.5646   0.6152     H
H       0.6425   0.5888   0.9853     H
H       0.6444   0.8253   0.5108     H
C      0.65042  0.85688   0.2656     C
C      0.65318  0.82839    0.439     C
C      0.65363  0.23917  0.94807     C
H       0.6546   0.5926   0.7924     H
H       0.6551   0.5285   0.5518     H
C      0.65514  0.54183    0.622     C
N      0.65684  0.19973  0.92297     N
N      0.67649  0.46694   0.7437     N
C      0.67819  0.12484  0.04467     C
H      0.67823  0.13817  0.11487     H
H      0.67873  0.07407  0.87427     H
C       0.6797   0.4275   0.7186     C
C      0.68015  0.83828  0.22767     C
C      0.68291  0.80979  0.40107     C
H      0.68893  0.84137  0.15587     H
H      0.69083  0.07787  0.68137     H
H      0.69133  0.10207  0.05147     H
C      0.69189   0.1028  0.83167     C
C      0.69213  0.27067  0.01527     C
H      0.69363  0.79337  0.44747     H
C      0.69661  0.81514  0.29737     C
H      0.69763  0.30077  0.04527     H
N      0.69815  0.20614  0.97197     N
C      0.69842  0.10466  0.72707     C
H      0.69923  0.39687  0.04527     H
H      0.70217  0.81883  0.83393     H
O      0.70367  0.56767   0.6605     O
H       0.7047   0.4212   0.7431     H
H      0.70563  0.75827  0.24147     H
N      0.70772  0.14973  0.86467     N
C      0.71131  0.16728  0.97097     C
H       0.7165   0.2953   0.7431     H
C      0.71885  0.15469  0.69997     C
H       0.7193   0.6277   0.5748     H
C      0.71963  0.24837  0.02817     C
C      0.72007  0.84003  0.77753     C
H      0.72037  0.97583  0.34803     H
N      0.72481  0.18207  0.78327     N
C      0.72686  0.79407  0.25367     C
H      0.72697  0.79503  0.66763     H
H      0.72723  0.16717  0.63077     H
H      0.72867  0.98793  0.54093     H
C      0.72933  0.42147  0.01527     C
H       0.7302   0.3643   0.6214     H
H      0.73307  0.90953  0.82033     H
C      0.73387  0.60647    0.587     C
C      0.73437  0.82751  0.68503     C
H      0.73473  0.60637  0.00097     H
H       0.7351   0.5917   0.5193     H
C      0.73717  0.88953  0.76993     C
Ag     0.73897  0.53398  0.80759    Ag
C      0.73957  0.96824  0.39373     C
H      0.73963  0.48827  0.06927     H
H      0.74073  0.72867  0.45907     H
H      0.74163  0.81007  0.18597     H
H      0.74407  0.97533  0.71813     H
C      0.74424  0.97477  0.49833     C
H      0.74453  0.72037  0.65197     H
C       0.7478   0.3203   0.7186     C
H      0.74863  0.26037  0.06927     H
C      0.75163  0.47127  0.02817     C
H      0.75453  0.38317  0.92357     H
C       0.7548   0.3588   0.6514     C
H      0.75713  0.15687  0.15367     H
H      0.75827  0.05263  0.75853     H
N      0.75943  0.86626  0.62453     N
C      0.75981  0.59897  0.01837     C
N      0.76077  0.90465  0.67803     N
C      0.76083  0.41447  0.94807     C
N      0.76201  0.18945  0.01137     N
O      0.76566  0.80267  0.32717     O
H       0.7664   0.6397   0.7808     H
H      0.76873  0.74407  0.28187     H
C      0.76917  0.94781  0.36663     C
C      0.76946  0.74424  0.50167     C
C      0.77132  0.73957  0.60627     C
H      0.77327  0.93943  0.29743     H
N       0.7735  0.57391  0.95787     N
N      0.77534  0.95894  0.53133     N
C      0.77713  0.18097  0.10327     C
C      0.77998  0.98847  0.71133     C
H      0.78333  0.63117  0.16727     H
C      0.78519  0.63672   0.6307     C
C      0.78663  0.61327  0.11087     C
C       0.7893  0.95535  0.63763     C
N      0.79045  0.32351   0.7437     N
N      0.79059  0.94185  0.44993     N
C       0.7915  0.77998  0.28867     C
H      0.79327  0.98843  0.78153     H
H      0.79337  0.09973  0.55253     H
C      0.79354  0.65042   0.7344     C
N      0.79386  0.49202  0.97197     N
C      0.79407   0.0672  0.74633     C
Ag     0.79502  0.26103  0.80759    Ag
H      0.79503  0.06807  0.33237     H
Ag     0.79935  0.87165  0.47425    Ag
N      0.80027  0.45712  0.92297     N
N       0.8004   0.2265  0.95787     N
O      0.80267    0.037  0.67283     O
C       0.8046   0.3863   0.6385     C
H      0.80483  0.79327  0.21847     H
C      0.80979  0.12687  0.59893     C
H      0.81007  0.06843  0.81403     H
N      0.81055  0.57257  0.01137     N
C      0.81514  0.11852  0.70263     C
N      0.81639  0.77534  0.46867     N
N      0.81793  0.54275  0.78327     N
H      0.81883  0.11667  0.16607     H
C      0.81903  0.59617  0.10327     C
H       0.8191   0.6444   0.4892     H
C      0.82135  0.76917  0.63337     C
H       0.8216   0.4153   0.5974     H
H      0.82353  0.73307  0.17967     H
C      0.82479  0.65318    0.561     C
H       0.8253   0.1809   0.4892     H
N      0.82535  0.36482   0.6947     N
C      0.82663  0.21337  0.11087     C
C      0.82751  0.09315  0.31497     C
C      0.82839  0.17521    0.561     C
C      0.83272  0.54404  0.97097     C
H      0.83283  0.56007  0.63077     H
H      0.83383  0.77327  0.70257     H
C      0.83394   0.7893  0.36237     C
C      0.83828  0.15812  0.77233     C
C      0.83915  0.24019  0.01837     C
C      0.84003  0.11997  0.22247     C
N      0.84132  0.96851  0.63863     N
H      0.84137  0.15243  0.84413     H
C      0.84188  0.68015  0.77233     C
H      0.84313  0.60027  0.15367     H
H      0.84507  0.91803  0.73593     H
C      0.84531  0.56417  0.69997     C
H      0.84757  0.68893  0.84413     H
C      0.84763  0.73717  0.23007     C
H      0.84783  0.21667  0.16727     H
N      0.84873  0.79059  0.55007     N
N      0.85027    0.558  0.86467     N
C      0.85153  0.21481   0.6307     C
N      0.85611  0.76077  0.32197     N
H       0.8566   0.2649   0.5193     H
C      0.85688  0.20646   0.7344     C
H      0.86183  0.54007  0.11487     H
C      0.86207  0.94703  0.69483     C
O        0.864  0.29633   0.6605     O
N      0.86626  0.10684  0.37547     N
N      0.86639  0.87622  0.41037     N
Ag     0.86732  0.46168  0.85908    Ag
H      0.87163  0.26527  0.00097     H
Ag     0.87165   0.0723  0.52575    Ag
C       0.8726  0.26613    0.587     C
N       0.8728  0.84132  0.36137     N
C      0.87313  0.68291  0.59893     C
H       0.8733   0.2336   0.7808     H
H       0.8734   0.3449   0.5518     H
C      0.87516  0.55336  0.04467     C
N      0.87608  0.39148   0.8834     N
N      0.87622  0.00982  0.58963     N
C      0.87737  0.37798   0.6957     C
C      0.88003  0.72007  0.22247     C
C      0.88148  0.69661  0.70263     C
H      0.88333  0.70217  0.16607     H
C      0.88669  0.34486    0.622     C
C      0.88953  0.15237  0.23007     C
N      0.89133  0.37439    0.802     N
N      0.89316  0.75943  0.37547     N
H       0.8934   0.3939   0.0359     H
C      0.89534  0.59377  0.72707     C
C       0.8972   0.5891  0.83167     C
C       0.8975  0.38552   0.9667     C
H      0.89793  0.58927  0.05147     H
H      0.90027  0.69363  0.55253     H
O        0.901  0.53067  0.00617     O
N      0.90465  0.14389  0.32197     N
C      0.90583  0.91887  0.38527     C
N       0.9059  0.42868   0.6553     N
C      0.90685  0.73437  0.31497     C
N      0.90724  0.46707   0.7088     N
H       0.9084   0.2807   0.5748     H
H      0.90953  0.17647  0.17967     H
C      0.91187  0.97453  0.68193     C
H      0.91213  0.95017  0.40977     H
C      0.91503  0.86207  0.30517     C
H      0.91803  0.07297  0.26407     H
C      0.91887  0.01303  0.61473     C
H      0.92213  0.61297  0.68137     H
C      0.92243  0.35856    0.835     C
H       0.9226    0.358   0.6152     H
H      0.92503  0.52327  0.14737     H
H      0.92593  0.60467  0.87427     H
H      0.92703  0.84507  0.26407     H
C       0.9271  0.36509   0.9396     C
Ag      0.9277  0.79935  0.52575    Ag
C       0.9295   0.4438   0.5634     C
H      0.93157  0.74163  0.81403     H
H      0.93193  0.72697  0.33237     H
C       0.9323  0.50582   0.6483     C
C       0.9328  0.72686  0.74633     C
H       0.9336   0.4238    0.513     H
H      0.93647  0.96903  0.71193     H
C      0.93733  0.91187  0.31807     C
H        0.938   0.3454   0.7924     H
H      0.93943  0.16617  0.70257     H
H       0.9397   0.5383   0.6657     H
C       0.9398  0.53927  0.07967     C
N      0.94185  0.15127  0.55007     N
H       0.9463   0.3575   0.9853     H
C       0.9466   0.4933   0.5558     C
C      0.94703  0.08497  0.30517     C
H      0.94737  0.70563  0.75853     H
C      0.94781  0.17865  0.63337     C
H      0.95017  0.03803  0.59023     H
C      0.95535  0.16606  0.36237     C
N      0.95894  0.18361  0.46867     N
H      0.96103  0.57507  0.09187     H
H      0.96197  0.91213  0.59023     H
O        0.963  0.76566  0.67283     O
H       0.9645   0.5145   0.4994     H
H      0.96743  0.93647  0.28807     H
C      0.96824  0.22868  0.60627     C
N      0.96851   0.1272  0.36137     N
H      0.96903  0.03257  0.28807     H
C      0.97005   0.5182  0.03597     C
H      0.97303  0.53997  0.88587     H
C      0.97453  0.06267  0.31807     C
C      0.97477  0.23054  0.50167     C
H      0.97533  0.23127  0.28187     H
H      0.97583  0.25547  0.65197     H
H      0.97773  0.49197  0.17747     H
C      0.98375  0.52355  0.93227     C
C      0.98651  0.49506  0.10567     C
C      0.98697  0.90583  0.61473     C
H      0.98793  0.25927  0.45907     H
H      0.98843  0.19517  0.21847     H
C      0.98847   0.2085  0.28867     C
N      0.99018  0.86639  0.58963     N
