data_I
_chemical_name_common  '/home/zhangsd/repos/MofS-CGCNN/ML/data/WS24/clean_cifs/LUVXAB'
_cell_length_a 10.43410
_cell_length_b 15.40080
_cell_length_c 15.84470
_cell_angle_alpha 77.72400
_cell_angle_beta  77.41200
_cell_angle_gamma 78.32600
_space_group_name_H-M_alt      'P 1'


loop_
_space_group_symop_operation_xyz
  'x, y, z' 

loop_
_atom_site_label
_atom_site_fract_x
_atom_site_fract_y
_atom_site_fract_z
_atom_site_type_symbol
C       0.0041   0.7005   0.5634     C
C       0.0049   0.3796   0.4588     C
F       0.0078   0.8707   0.2366     F
H         0.01   0.6064   0.4839     H
N       0.0108    0.133   0.2107     N
H       0.0174   0.3708   0.0705     H
F       0.0188  0.29549   0.7721     F
N        0.023   0.3013   0.3506     N
H       0.0273   0.7516   0.5216     H
C       0.0396   0.4341   0.3812     C
N       0.0521  0.38597   0.3166     N
H       0.0527   0.4948   0.3735     H
C       0.0529   0.9302   0.4533     C
F       0.0565   0.8168   0.0837     F
C       0.0574    0.422   0.2232     C
C       0.0733   0.0894   0.1632     C
N       0.0776  0.54634  0.79383     N
C       0.0835     0.04   0.5336     C
Sb     0.08637  0.18092  0.82242    Sb
H       0.0905    0.883   0.4209     H
C        0.093   0.3415   0.0958     C
H       0.0998   0.5478   0.2286     H
H       0.1009   0.4078   0.8208     H
Ag     0.11739  0.75981  0.71909    Ag
H        0.118   0.0466   0.0473     H
N        0.119  0.35082  0.17299     N
H       0.1219   0.1172   0.6131     H
C       0.1344   0.9692   0.4874     C
O       0.1398  0.52861  0.10492     O
C         0.14   0.4983   0.1952     C
C       0.1412   0.4604   0.8062     C
F       0.1546   0.0655   0.8731     F
C       0.1552   0.0337   0.1012     C
H       0.1566     0.97   0.1275     H
N       0.1664   0.6055   0.7706     N
F       0.1675   0.6111  0.34589     F
C       0.1731    0.088   0.5633     C
H       0.1762   0.9495   0.6771     H
F       0.1881   0.2318   0.8775     F
C       0.1963   0.2817   0.0609     C
H       0.2022   0.6301   0.0142     H
H       0.2025    0.136   0.5147     H
H       0.2058   0.2596   0.0079     H
H       0.2098   0.0963   0.3104     H
H       0.2192   0.9175   0.8505     H
H       0.2273   0.9472    0.479     H
F       0.2287   0.1748   0.7283     F
H        0.232   0.4562   0.5601     H
H       0.2321   0.4761   0.2058     H
C       0.2341   0.5888   0.0651     C
H       0.2386   0.6258   0.1081     H
F       0.2388  0.76021   0.3645     F
N       0.2404   0.3031   0.1871     N
H       0.2428   0.0106   0.7203     H
H       0.2462   0.0472   0.0871     H
H       0.2541   0.7827   0.9682     H
C       0.2579   0.9745   0.6731     C
C       0.2732    0.463   0.7941     C
C        0.275   0.8616   0.8435     C
C        0.284   0.2602   0.1193     C
C       0.2846   0.5534   0.7725     C
O       0.2891  0.02872  0.59018     O
F       0.2936  0.71187  0.20732     F
C        0.294   0.7887   0.9078     C
H        0.298   0.7181   0.5277     H
C       0.3011   0.0744   0.3125     C
N       0.3085  0.78787   0.6195     N
H       0.3127   0.3619   0.5998     H
H        0.313   0.4532   0.9757     H
C       0.3153   0.4136   0.5515     C
H       0.3242   0.9395   0.2951     H
Sb      0.3264 0.657466  0.31856    Sb
C       0.3316   0.3827   0.4686     C
C       0.3402   0.7602   0.5428     C
H       0.3432   0.4131   0.7993     H
N       0.3437   0.3576   0.4064     N
N       0.3502  0.83977  0.76778     N
Ag     0.35699  0.28417  0.29998    Ag
F       0.3619  0.60171  0.42993     F
C       0.3633   0.9868   0.3038     C
H       0.3656   0.2196   0.1117     H
H       0.3666   0.5754   0.7605     H
C       0.3713   0.5406   0.0348     C
C       0.3762   0.8985   0.6828     C
N       0.3841   0.1233    0.324     N
C       0.3852   0.7243   0.8654     C
C       0.3893   0.4723   0.9865     C
H       0.3903   0.4434   0.5505     H
N        0.395  0.84543  0.61348     N
F       0.4127  0.55375  0.27331     F
H        0.417   0.6657   0.8942     H
N       0.4214   0.7543   0.7813     N
H       0.4394   0.0666   0.6941     H
C       0.4435   0.8006   0.4869     C
H        0.459   0.1068    0.486     H
H       0.4732   0.6129   0.0838     H
C       0.4751   0.8552   0.5337     C
H       0.4831   0.7917   0.4288     H
C       0.4832   0.5672   0.0485     C
F       0.4871   0.7014  0.29488     F
C       0.4912   0.9837   0.3105     C
N       0.4977  0.93481  0.67506     N
N       0.5023  0.06519  0.32494     N
C       0.5088   0.0163   0.6895     C
F       0.5129   0.2986  0.70512     F
C       0.5168   0.4328   0.9515     C
H       0.5169   0.2083   0.5712     H
C       0.5249   0.1448   0.4663     C
H       0.5268   0.3871   0.9162     H
H        0.541   0.8932    0.514     H
C       0.5565   0.1994   0.5131     C
H       0.5606   0.9334   0.3059     H
N       0.5786   0.2457   0.2187     N
H        0.583   0.3343   0.1058     H
F       0.5873  0.44625  0.72669     F
N        0.605  0.15457  0.38652     N
H       0.6097   0.5566   0.4495     H
C       0.6107   0.5277   0.0135     C
C       0.6148   0.2757   0.1346     C
N       0.6159   0.8767    0.676     N
C       0.6238   0.1015   0.3172     C
C       0.6287   0.4594   0.9652     C
H       0.6334   0.4246   0.2395     H
H       0.6344   0.7804   0.8883     H
C       0.6367   0.0132   0.6962     C
F       0.6381  0.39829  0.57007     F
Ag     0.64301  0.71583  0.70002    Ag
N       0.6498  0.16023  0.23222     N
N       0.6563   0.6424   0.5936     N
H       0.6568   0.5869   0.2007     H
C       0.6598   0.2398   0.4572     C
C       0.6684   0.6173   0.5314     C
Sb      0.6736 0.342534  0.68144    Sb
H       0.6758   0.0605   0.7049     H
C       0.6847   0.5864   0.4485     C
H        0.687   0.5468   0.0243     H
H       0.6873   0.6381   0.4002     H
N       0.6915  0.21213   0.3805     N
C       0.6989   0.9256   0.6875     C
H        0.702   0.2819   0.4723     H
C        0.706   0.2113   0.0922     C
F       0.7064  0.28813  0.79268     F
O       0.7109  0.97128  0.40982     O
C       0.7154   0.4466   0.2275     C
C        0.716   0.7398   0.8807     C
C        0.725   0.1384   0.1565     C
C       0.7268    0.537   0.2059     C
C       0.7421   0.0255   0.3269     C
H       0.7459   0.2173   0.0318     H
H       0.7538   0.9528   0.9129     H
H       0.7572   0.9894   0.2797     H
N       0.7596   0.6969   0.8129     N
F       0.7612  0.23979   0.6355     F
H       0.7614   0.3742   0.8919     H
C       0.7659   0.4112   0.9349     C
H       0.7679   0.5239   0.7942     H
H        0.768   0.5438   0.4399     H
F       0.7713   0.8252   0.2717     F
H       0.7727   0.0528    0.521     H
H       0.7808   0.0825   0.1495     H
H       0.7902   0.9037   0.6896     H
H       0.7942   0.7404   0.9921     H
H       0.7975    0.864   0.4853     H
H       0.7978   0.3699   0.9858     H
C       0.8037   0.7183   0.9391     C
F       0.8119   0.7682   0.1225     F
H       0.8238   0.0505   0.3229     H
C       0.8269    0.912   0.4367     C
F       0.8325   0.3889  0.65411     F
N       0.8336   0.3945   0.2294     N
H       0.8434     0.03   0.8725     H
C       0.8448   0.9663   0.8988     C
F       0.8454   0.9345   0.1269     F
C       0.8588   0.5396   0.1938     C
C         0.86   0.5017   0.8048     C
O       0.8602  0.47139  0.89508     O
C       0.8656   0.0308   0.5126     C
H       0.8781   0.8828   0.3869     H
N        0.881  0.64918  0.82701     N
H        0.882   0.9534   0.9527     H
Ag     0.88261  0.24019  0.28091    Ag
H       0.8991   0.5922   0.1792     H
H       0.9002   0.4522   0.7714     H
C        0.907   0.6585   0.9042     C
H       0.9095    0.117   0.5791     H
Sb     0.91363  0.81908  0.17758    Sb
C       0.9165     0.96   0.4664     C
N       0.9224  0.45366  0.20617     N
C       0.9267   0.9106   0.8368     C
C       0.9426    0.578   0.7768     C
F       0.9435   0.1832   0.9163     F
C       0.9471   0.0698   0.5467     C
H       0.9473   0.5052   0.6265     H
N       0.9479  0.61403   0.6834     N
C       0.9604   0.5659   0.6188     C
H       0.9727   0.2484   0.4784     H
N        0.977   0.6987   0.6494     N
F       0.9812  0.70451   0.2279     F
H       0.9826   0.6292   0.9295     H
N       0.9892    0.867   0.7893     N
H         0.99   0.3936   0.5161     H
F       0.9922   0.1293   0.7634     F
C       0.9951   0.6204   0.5412     C
C       0.9959   0.2995   0.4366     C
