data_I
_chemical_name_common  '/home/zhangsd/repos/MofS-CGCNN/ML/data/WS24/clean_cifs/MAKDUA'
_cell_length_a  8.14120
_cell_length_b 12.63400
_cell_length_c 16.50700
_cell_angle_alpha 90.00000
_cell_angle_beta  90.00000
_cell_angle_gamma 104.32400
_space_group_name_H-M_alt      'P 1'


loop_
_space_group_symop_operation_xyz
  'x, y, z' 

loop_
_atom_site_label
_atom_site_fract_x
_atom_site_fract_y
_atom_site_fract_z
_atom_site_type_symbol
O       0.0147   0.1862   0.6518     O
N       0.0149   0.7214   0.9233     N
H       0.0278   0.3004   0.9421     H
C       0.0352   0.8592   0.4859     C
H       0.0518   0.3869    0.553     H
C       0.0538   0.4556    0.577     C
N       0.0558   0.8583   0.8379     N
C       0.0639   0.6505    0.649     C
H       0.0639   0.7172   0.6756     H
C       0.0765   0.0887   0.3643     C
Gd     0.07803  0.20143  0.79147    Gd
C       0.0848   0.4322   0.3562     C
N       0.0894   0.5278   0.3927     N
O       0.0927    0.331   0.9031     O
C        0.094   0.9488   0.6157     C
C       0.0961   0.8373   0.4027     C
N       0.1087   0.1979   0.1737     N
H       0.1144   0.0707   0.3129     H
C       0.1259   0.2792    0.121     C
C       0.1275   0.8089   0.8947     C
C       0.1361    0.177   0.4935     C
O        0.139   0.9342   0.1474     O
C        0.151   0.9204   0.5404     C
O        0.154    0.723   0.2243     O
O       0.1606   0.0419   0.7416     O
C       0.1811   0.6254   0.2177     C
H        0.184   0.1838   0.2076     H
H       0.1859   0.4207   0.3332     H
H        0.189    0.366   0.9225     H
O       0.1896   0.3936   0.7424     O
C       0.1928   0.1516   0.4176     C
H       0.1943   0.4789   0.0561     H
C       0.2063   0.5352   0.5792     C
C       0.2124   0.6348    0.615     C
C       0.2135   0.0234   0.6721     C
H       0.2141    0.219    0.531     H
H       0.2322   0.0572   0.0268     H
O       0.2487   0.1548   0.8938     O
O       0.2513   0.8452   0.3938     O
H       0.2678   0.9428   0.5268     H
H       0.2859    0.781    0.031     H
C       0.2865   0.9766   0.1721     C
C       0.2876   0.3652    0.115     C
C       0.2937   0.4648   0.0792     C
H       0.3057   0.5211   0.5561     H
C       0.3072   0.8484   0.9176     C
O       0.3104   0.6064   0.2424     O
H        0.311    0.634   0.4225     H
H       0.3141   0.5793   0.8332     H
H        0.316   0.8162   0.7076     H
C       0.3189   0.3746   0.7177     C
O       0.3394   0.9581   0.2416     O
O        0.346    0.277   0.7243     O
C        0.349   0.0796   0.0404     C
O        0.361   0.0658   0.6474     O
C       0.3639    0.823   0.9935     C
C       0.3725   0.1911   0.3947     C
C       0.3741   0.7208    0.621     C
H       0.3856   0.9293   0.8129     H
N       0.3913   0.8021   0.6737     N
C       0.4039   0.1627   0.9027     C
C        0.406   0.0512   0.1157     C
O       0.4073    0.669   0.4031     O
N       0.4106   0.4722   0.8927     N
C       0.4152   0.5678   0.8562     C
Gd     0.42197  0.79857  0.29147    Gd
C       0.4235   0.9113   0.8643     C
H       0.4361   0.2828   0.1756     H
C       0.4361   0.3495    0.149     C
N       0.4442   0.1417   0.3379     N
C       0.4462   0.5444    0.077     C
H       0.4482   0.6131    0.053     H
C       0.4648   0.1408   0.9859     C
H       0.4722   0.6996   0.4421     H
N       0.4851   0.2786   0.4233     N
O       0.4853   0.8138   0.1518     O
O       0.5147   0.1862   0.8482     O
N       0.5149   0.7214   0.5767     N
H       0.5278   0.3004   0.5579     H
C       0.5352   0.8592   0.0141     C
H       0.5518   0.3869    0.947     H
C       0.5538   0.4556    0.923     C
N       0.5558   0.8583   0.6621     N
C       0.5639   0.6505    0.851     C
H       0.5639   0.7172   0.8244     H
C       0.5765   0.0887   0.1357     C
Gd     0.57803  0.20143  0.70853    Gd
C       0.5848   0.4322   0.1438     C
N       0.5894   0.5278   0.1073     N
O       0.5927    0.331   0.5969     O
C        0.594   0.9488   0.8843     C
C       0.5961   0.8373   0.0973     C
N       0.6087   0.1979   0.3263     N
H       0.6144   0.0707   0.1871     H
C       0.6259   0.2792    0.379     C
C       0.6275   0.8089   0.6053     C
C       0.6361    0.177   0.0065     C
O        0.639   0.9342   0.3526     O
C        0.651   0.9204   0.9596     C
O        0.654    0.723   0.2757     O
O       0.6606   0.0419   0.7584     O
C       0.6811   0.6254   0.2823     C
H        0.684   0.1838   0.2924     H
H       0.6859   0.4207   0.1668     H
H        0.689    0.366   0.5775     H
O       0.6896   0.3936   0.7576     O
C       0.6928   0.1516   0.0824     C
H       0.6943   0.4789   0.4439     H
C       0.7063   0.5352   0.9208     C
C       0.7124   0.6348    0.885     C
C       0.7135   0.0234   0.8279     C
H       0.7141    0.219    0.969     H
H       0.7322   0.0572   0.4732     H
O       0.7487   0.1548   0.6062     O
O       0.7513   0.8452   0.1062     O
H       0.7678   0.9428   0.9732     H
H       0.7859    0.781    0.469     H
C       0.7865   0.9766   0.3279     C
C       0.7876   0.3652    0.385     C
C       0.7937   0.4648   0.4208     C
H       0.8057   0.5211   0.9439     H
C       0.8072   0.8484   0.5824     C
O       0.8104   0.6064   0.2576     O
H        0.811    0.634   0.0775     H
H       0.8141   0.5793   0.6668     H
H        0.816   0.8162   0.7924     H
C       0.8189   0.3746   0.7823     C
O       0.8394   0.9581   0.2584     O
O        0.846    0.277   0.7757     O
C        0.849   0.0796   0.4596     C
O        0.861   0.0658   0.8526     O
C       0.8639    0.823   0.5065     C
C       0.8725   0.1911   0.1053     C
C       0.8741   0.7208    0.879     C
H       0.8856   0.9293   0.6871     H
N       0.8913   0.8021   0.8263     N
C       0.9039   0.1627   0.5973     C
C        0.906   0.0512   0.3843     C
O       0.9073    0.669   0.0969     O
N       0.9106   0.4722   0.6073     N
C       0.9152   0.5678   0.6438     C
Gd     0.92197  0.79857  0.20853    Gd
C       0.9235   0.9113   0.6357     C
H       0.9361   0.2828   0.3244     H
C       0.9361   0.3495    0.351     C
N       0.9442   0.1417   0.1621     N
C       0.9462   0.5444    0.423     C
H       0.9482   0.6131    0.447     H
C       0.9648   0.1408   0.5141     C
H       0.9722   0.6996   0.0579     H
N       0.9851   0.2786   0.0767     N
O       0.9853   0.8138   0.3482     O
