data_I
_chemical_name_common  '/home/zhangsd/repos/MofS-CGCNN/ML/data/WS24/clean_cifs/MAKFEM'
_cell_length_a  8.13350
_cell_length_b 12.81730
_cell_length_c 16.52510
_cell_angle_alpha 90.00000
_cell_angle_beta  90.00000
_cell_angle_gamma 104.90500
_space_group_name_H-M_alt      'P 1'


loop_
_space_group_symop_operation_xyz
  'x, y, z' 

loop_
_atom_site_label
_atom_site_fract_x
_atom_site_fract_y
_atom_site_fract_z
_atom_site_type_symbol
O       0.0147   0.1816   0.8475     O
N       0.0179  0.72185  0.57721     N
C       0.0368   0.8606   0.0147     C
H       0.0428    0.292   0.5552     H
H       0.0541   0.3921   0.9477     H
C       0.0569   0.4589    0.922     C
N       0.0569  0.85712   0.6613     N
H        0.061    0.717   0.8259     H
C       0.0635    0.651   0.8514     C
C       0.0745   0.0889   0.1357     C
Dy     0.08112  0.19684 0.709826    Dy
C       0.0817   0.4336   0.1421     C
N        0.087   0.5286   0.1087     N
C       0.0956   0.9479   0.8851     C
C       0.0969   0.8407   0.0988     C
O       0.0978   0.3245  0.59737     O
N       0.1075  0.19831   0.3269     N
H       0.1088   0.9164   0.6873     H
H       0.1125   0.0712    0.187     H
C        0.124   0.2792   0.3784     C
C       0.1294   0.8087   0.6043     C
C       0.1331   0.1754   0.0058     C
O       0.1347   0.9358   0.3519     O
O       0.1508    0.729   0.2758     O
C       0.1532   0.9219   0.9601     C
O       0.1611   0.0404   0.7586     O
C       0.1745    0.635   0.2833     C
H       0.1848   0.4228    0.163     H
H       0.1893   0.4786   0.4414     H
C       0.1901   0.1519   0.0816     C
O       0.1972   0.3863  0.76009     O
H       0.2036   0.3523   0.5834     H
C       0.2108   0.5358   0.9196     C
H       0.2117   0.2163    0.968     H
C       0.2156   0.6348   0.8844     C
C       0.2169   0.0226   0.8284     C
H       0.2297   0.0543   0.4739     H
O       0.2477  0.15021  0.60793     O
O       0.2523  0.84979  0.10793     O
H       0.2703   0.9457   0.9739     H
C       0.2831   0.9774   0.3284     C
C       0.2844   0.3652   0.3844     C
H       0.2883   0.7837    0.468     H
C       0.2892   0.4642   0.4196     C
H       0.2964   0.6477   0.0834     H
O       0.3028   0.6137  0.26009     O
C       0.3099   0.8481   0.5816     C
H       0.3107   0.5214   0.9414     H
H       0.3152   0.5772    0.663     H
C       0.3255    0.365   0.7833     C
O       0.3389   0.9596   0.2586     O
C       0.3468   0.0781   0.4601     C
O       0.3492    0.271   0.7758     O
O       0.3653   0.0642   0.8519     O
C       0.3669   0.8246   0.5058     C
C       0.3706   0.1913   0.1043     C
C        0.376   0.7208   0.8784     C
H       0.3875   0.9288    0.687     H
H       0.3912   0.0836   0.1873     H
N       0.3925  0.80169   0.8269     N
O       0.4022   0.6755  0.09737     O
C       0.4031   0.1593   0.5988     C
C       0.4044   0.0521   0.3851     C
N        0.413   0.4714   0.6087     N
C       0.4183   0.5664   0.6421     C
Dy     0.41888  0.80316 0.209826    Dy
C       0.4255   0.9111   0.6357     C
C       0.4365    0.349   0.3514     C
H        0.439    0.283   0.3259     H
N       0.4431  0.14288   0.1613     N
C       0.4431   0.5411    0.422     C
H       0.4459   0.6079   0.4477     H
H       0.4572    0.708   0.0552     H
C       0.4632   0.1394   0.5147     C
N       0.4821  0.27815  0.07721     N
O       0.4853   0.8184   0.3475     O
O       0.5147   0.1816   0.6525     O
N       0.5179  0.72185  0.92279     N
C       0.5368   0.8606   0.4853     C
H       0.5428    0.292   0.9448     H
H       0.5541   0.3921   0.5523     H
C       0.5569   0.4589    0.578     C
N       0.5569  0.85712   0.8387     N
H        0.561    0.717   0.6741     H
C       0.5635    0.651   0.6486     C
C       0.5745   0.0889   0.3643     C
Dy     0.58112  0.19684 0.790174    Dy
C       0.5817   0.4336   0.3579     C
N        0.587   0.5286   0.3913     N
C       0.5956   0.9479   0.6149     C
C       0.5969   0.8407   0.4012     C
O       0.5978   0.3245  0.90263     O
N       0.6075  0.19831   0.1731     N
H       0.6088   0.9164   0.8127     H
H       0.6125   0.0712    0.313     H
C        0.624   0.2792   0.1216     C
C       0.6294   0.8087   0.8957     C
C       0.6331   0.1754   0.4942     C
O       0.6347   0.9358   0.1481     O
O       0.6508    0.729   0.2242     O
C       0.6532   0.9219   0.5399     C
O       0.6611   0.0404   0.7414     O
C       0.6745    0.635   0.2167     C
H       0.6848   0.4228    0.337     H
H       0.6893   0.4786   0.0586     H
C       0.6901   0.1519   0.4184     C
O       0.6972   0.3863  0.73991     O
H       0.7036   0.3523   0.9166     H
C       0.7108   0.5358   0.5804     C
H       0.7117   0.2163    0.532     H
C       0.7156   0.6348   0.6156     C
C       0.7169   0.0226   0.6716     C
H       0.7297   0.0543   0.0261     H
O       0.7477  0.15021  0.89207     O
O       0.7523  0.84979  0.39207     O
H       0.7703   0.9457   0.5261     H
C       0.7831   0.9774   0.1716     C
C       0.7844   0.3652   0.1156     C
H       0.7883   0.7837    0.032     H
C       0.7892   0.4642   0.0804     C
H       0.7964   0.6477   0.4166     H
O       0.8028   0.6137  0.23991     O
C       0.8099   0.8481   0.9184     C
H       0.8107   0.5214   0.5586     H
H       0.8152   0.5772    0.837     H
C       0.8255    0.365   0.7167     C
O       0.8389   0.9596   0.2414     O
C       0.8468   0.0781   0.0399     C
O       0.8492    0.271   0.7242     O
O       0.8653   0.0642   0.6481     O
C       0.8669   0.8246   0.9942     C
C       0.8706   0.1913   0.3957     C
C        0.876   0.7208   0.6216     C
H       0.8875   0.9288    0.813     H
H       0.8912   0.0836   0.3127     H
N       0.8925  0.80169   0.6731     N
O       0.9022   0.6755  0.40263     O
C       0.9031   0.1593   0.9012     C
C       0.9044   0.0521   0.1149     C
N        0.913   0.4714   0.8913     N
C       0.9183   0.5664   0.8579     C
Dy     0.91888  0.80316 0.290174    Dy
C       0.9255   0.9111   0.8643     C
C       0.9365    0.349   0.1486     C
H        0.939    0.283   0.1741     H
N       0.9431  0.14288   0.3387     N
C       0.9431   0.5411    0.078     C
H       0.9459   0.6079   0.0523     H
H       0.9572    0.708   0.4448     H
C       0.9632   0.1394   0.9853     C
N       0.9821  0.27815  0.42279     N
O       0.9853   0.8184   0.1525     O
