data_I
_chemical_name_common  '/home/zhangsd/repos/MofS-CGCNN/ML/data/WS24/clean_cifs/MAKFOW'
_cell_length_a 15.09750
_cell_length_b 16.77520
_cell_length_c 16.90140
_cell_angle_alpha 110.49300
_cell_angle_beta  91.56200
_cell_angle_gamma 99.17600
_space_group_name_H-M_alt      'P 1'


loop_
_space_group_symop_operation_xyz
  'x, y, z' 

loop_
_atom_site_label
_atom_site_fract_x
_atom_site_fract_y
_atom_site_fract_z
_atom_site_type_symbol
N       0.0054   0.1463   0.2065     N
N       0.0151   0.0163   0.1212     N
N       0.0154   0.7104   0.6494     N
N       0.0288   0.6228    0.522     N
H       0.0358   0.9708   0.0887     H
H       0.0505   0.4555    0.636     H
H       0.0509   0.5884   0.4778     H
C       0.0549   0.3589   0.4741     C
C       0.0628   0.0957   0.1657     C
N       0.0651   0.3041   0.3974     N
C       0.0705   0.9782   0.8626     C
C        0.072   0.6681   0.5998     C
H       0.0756   0.1397   0.9669     H
N       0.0802   0.9011   0.8105     N
C       0.1096   0.4446   0.6246     C
C       0.1247   0.3921    0.544     C
C       0.1347   0.1295   0.9548     C
C       0.1464   0.0496   0.8989     C
C       0.1599   0.1207    0.167     C
C       0.1652    0.666   0.6241     C
H        0.167    0.515   0.7442     H
H       0.1693   0.7455   0.7482     H
H       0.1741   0.2471   0.2483     H
H       0.1758   0.0039    0.085     H
C        0.179   0.4814   0.6887     C
H       0.1877    0.587    0.509     H
H        0.197   0.2488   0.0282     H
C       0.2039   0.7127    0.707     C
C       0.2061   0.2046    0.215     C
C       0.2064   0.1933   0.9927     C
C        0.207   0.0602   0.1184     C
C       0.2129   0.3771   0.5272     C
C        0.215   0.6194   0.5648     C
H       0.2241   0.3411   0.4723     H
C       0.2336   0.0344     0.88     C
H        0.242   0.9806     0.84     H
C       0.2674    0.469   0.6711     C
C       0.2826   0.4145   0.5898     C
C       0.2944   0.7113   0.7295     C
C       0.2961   0.1773   0.9792     C
O       0.2964   0.8056   0.8715     O
C       0.2987   0.2249   0.2135     C
C       0.3003   0.0805   0.1175     C
C       0.3039    0.618    0.584     C
C       0.3074   0.0987   0.9202     C
O       0.3076   0.3686   0.3131     O
O       0.3133   0.9348   0.0404     O
O       0.3246   0.5378   0.4416     O
O       0.3329    0.558   0.8097     O
C        0.336   0.7571   0.8176     C
H       0.3416   0.4036   0.5782     H
C       0.3445    0.664   0.6652     C
C       0.3451   0.5198   0.7337     C
C       0.3457   0.1625   0.1657     C
C       0.3473   0.0143   0.0607     C
C       0.3476   0.3144   0.2622     C
C       0.3525   0.5607   0.5182     C
N       0.3551   0.9099   0.3514     N
N       0.3589   0.9587   0.4389     N
O       0.3659   0.3176   0.0728     O
H       0.3664   0.0887   0.9071     H
H       0.3686   0.8218   0.1838     H
O       0.3735   0.7749   0.0242     O
C       0.3746   0.2421   0.0301     C
C        0.378   0.8361   0.3473     C
C       0.3786   0.7694   0.1894     C
C       0.3823   0.7621   0.2685     C
C       0.3885   0.9134   0.4781     C
C       0.3899   0.6989   0.1176     C
C       0.3943   0.7088   0.0335     C
C        0.396   0.6847   0.2767     C
H       0.3961   0.6791   0.3307     H
N       0.3991   0.8357   0.4232     N
O       0.4029   0.5191   0.2789     O
H       0.4061   0.6639   0.6779     H
C       0.4078   0.6234   0.1255     C
H       0.4084   0.8119   0.5618     H
C       0.4087   0.9351   0.5736     C
C       0.4092    0.616   0.2055     C
H       0.4093   0.1762   0.1662     H
O       0.4151   0.7454    0.836     O
C       0.4162   0.8697    0.601     C
H       0.4165   0.7935   0.4355     H
H        0.419   0.0646   0.6061     H
H       0.4191   0.5772   0.0772     H
O       0.4192   0.6477   0.9755     O
O       0.4209   0.0365   0.0323     O
O       0.4225   0.5347    0.539     O
C       0.4229   0.0198   0.6275     C
O       0.4257   0.5272    0.709     O
O       0.4261   0.3495   0.4279     O
C       0.4278   0.5345   0.2134     C
O       0.4301   0.3346   0.2519     O
C       0.4354   0.8875   0.6869     C
O       0.4355   0.9253   0.8568     O
H       0.4396   0.8421   0.7075     H
Gd     0.44012  0.87774  0.97128    Gd
C       0.4425    0.039   0.7123     C
H       0.4467    0.267   0.4785     H
C       0.4483   0.9733   0.7423     C
O       0.4502   0.2153   0.0348     O
Gd     0.45086  0.47078   0.3819    Gd
H       0.4521   0.0974   0.7504     H
C       0.4526    0.327    0.488     C
O       0.4665    0.487   0.1552     O
C       0.4667   0.9867    0.835     C
Gd     0.48501  0.63751   0.8537    Gd
O       0.4869   0.3821   0.5611     O
O       0.4948   0.9383    0.116     O
O       0.5052   0.0617    0.884     O
O       0.5131   0.6179   0.4389     O
Gd     0.51499  0.36249   0.1463    Gd
C       0.5333   0.0133    0.165     C
O       0.5335    0.513   0.8448     O
C       0.5474    0.673    0.512     C
H       0.5479   0.9026   0.2496     H
Gd     0.54914  0.52922   0.6181    Gd
O       0.5498   0.7847   0.9652     O
C       0.5517   0.0267   0.2577     C
H       0.5533    0.733   0.5215     H
C       0.5575    0.961   0.2877     C
Gd     0.55988  0.12226  0.02872    Gd
H       0.5604   0.1579   0.2925     H
O       0.5645   0.0747   0.1432     O
C       0.5646   0.1125   0.3131     C
O       0.5699   0.6654   0.7481     O
C       0.5722   0.4655   0.7866     C
O       0.5739   0.6505   0.5721     O
O       0.5743   0.4728    0.291     O
C       0.5771   0.9802   0.3725     C
O       0.5775   0.4653    0.461     O
O       0.5791   0.9635   0.9677     O
O       0.5808   0.3523   0.0245     O
H       0.5809   0.4228   0.9228     H
H        0.581   0.9354   0.3939     H
H       0.5835   0.2065   0.5645     H
C       0.5838   0.1303    0.399     C
O       0.5849   0.2546    0.164     O
H       0.5907   0.8238   0.8338     H
C       0.5908    0.384   0.7945     C
C       0.5913   0.0649   0.4264     C
H       0.5916   0.1881   0.4382     H
C       0.5922   0.3766   0.8745     C
H       0.5939   0.3361   0.3221     H
O       0.5971   0.4809   0.7211     O
N       0.6009   0.1643   0.5768     N
H       0.6039   0.3209   0.6693     H
C        0.604   0.3153   0.7233     C
C       0.6057   0.2912   0.9665     C
C       0.6101   0.3011   0.8824     C
C       0.6115   0.0866   0.5219     C
C       0.6177   0.2379   0.7315     C
C       0.6214   0.2306   0.8106     C
C        0.622   0.1639   0.6527     C
C       0.6254   0.7579   0.9699     C
O       0.6265   0.2251   0.9758     O
H       0.6314   0.1782   0.8162     H
H       0.6336   0.9113   0.0929     H
O       0.6341   0.6824   0.9272     O
N       0.6411   0.0413   0.5611     N
N       0.6449   0.0901   0.6486     N
C       0.6475   0.4393   0.4818     C
C       0.6524   0.6856   0.7378     C
C       0.6527   0.9857   0.9393     C
C       0.6543   0.8375   0.8343     C
C       0.6549   0.4802   0.2663     C
C       0.6555    0.336   0.3348     C
H       0.6584   0.5964   0.4218     H
C        0.664   0.2429   0.1824     C
O       0.6671    0.442   0.1903     O
O       0.6754   0.4622   0.5584     O
O       0.6867   0.0652   0.9596     O
O       0.6924   0.6314   0.6869     O
C       0.6926   0.9013   0.0798     C
C       0.6961    0.382    0.416     C
C       0.6997   0.9195   0.8825     C
C       0.7013   0.7751   0.7865     C
O       0.7036   0.1944   0.1285     O
C       0.7039   0.8227   0.0208     C
C       0.7056   0.2887   0.2705     C
C       0.7174   0.5855   0.4102     C
C       0.7326    0.531   0.3289     C
H        0.758   0.0194     0.16     H
C       0.7664   0.9656     0.12     C
H       0.7759   0.6589   0.5277     H
C        0.785   0.3806   0.4352     C
C       0.7871   0.6229   0.4728     C
C        0.793   0.9398   0.8816     C
C       0.7936   0.8067   0.0073     C
C       0.7939   0.7954    0.785     C
C       0.7961   0.2873    0.293     C
H        0.803   0.7512   0.9718     H
H       0.8123    0.413    0.491     H
C        0.821   0.5186   0.3113     C
H       0.8242   0.9961    0.915     H
H       0.8259   0.7529   0.7517     H
H       0.8307   0.2545   0.2518     H
H        0.833    0.485   0.2558     H
C       0.8348    0.334   0.3759     C
C       0.8401   0.8793    0.833     C
C       0.8536   0.9504   0.1011     C
C       0.8653   0.8705   0.0452     C
C       0.8753   0.6079    0.456     C
C       0.8904   0.5554   0.3754     C
N       0.9198   0.0989   0.1895     N
H       0.9244   0.8603   0.0331     H
C        0.928   0.3319   0.4002     C
C       0.9295   0.0218   0.1374     C
N       0.9349   0.6959   0.6026     N
C       0.9372   0.9043   0.8343     C
C       0.9451   0.6411   0.5259     C
H       0.9491   0.4116   0.5222     H
H       0.9495   0.5445    0.364     H
H       0.9642   0.0292   0.9113     H
N       0.9712   0.3772    0.478     N
N       0.9846   0.2896   0.3506     N
N       0.9849   0.9837   0.8788     N
N       0.9946   0.8537   0.7935     N
