data_I
_chemical_name_common  '/home/zhangsd/repos/MofS-CGCNN/ML/data/WS24/clean_cifs/MAKHEO'
_cell_length_a 10.33264
_cell_length_b 10.33264
_cell_length_c 21.05328
_cell_angle_alpha 98.77718
_cell_angle_beta  98.77718
_cell_angle_gamma 112.22046
_space_group_name_H-M_alt      'P 1'


loop_
_space_group_symop_operation_xyz
  'x, y, z' 

loop_
_atom_site_label
_atom_site_fract_x
_atom_site_fract_y
_atom_site_fract_z
_atom_site_type_symbol
O      0.00057  0.43697  0.37074     O
C      0.00153  0.74393  0.19186     C
H       0.0038   0.6312   0.6718     H
C       0.0054   0.6366    0.769     C
C       0.0092    0.119    0.312     C
C       0.0107   0.1247   0.7988     C
H       0.0154    0.139   0.3582     H
H       0.0222   0.4468    0.251     H
N       0.0261   0.7365   0.1324     N
N       0.0565   0.2249   0.6392     N
O       0.0618    0.725   0.5486     O
C       0.0637   0.2359    0.704     C
O      0.07696  0.12116  0.08072     O
H        0.082   0.2094   0.8282     H
O      0.08335  0.11555   0.9313     O
O      0.09902  0.39782  0.50124     O
C      0.10831  0.55431  0.38202     C
C       0.1097   0.7819    0.796     C
C       0.1161   0.1683     0.22     C
N      0.11808  0.83748  0.23776     N
C       0.1187   0.4633   0.1406     C
C       0.1202    0.513   0.2616     C
C       0.1255   0.1939   0.2872     C
N       0.1459   0.3563   0.6324     N
O       0.1478   0.6442   0.4344     O
N      0.15028  0.36968  0.73776     N
N      0.16252  0.88192  0.76224     N
N       0.1643   0.8327   0.1392     N
H       0.1648   0.3798   0.5954     H
N       0.1673   0.8357   0.8608     N
C       0.1912   0.5828   0.3272     C
C      0.19299  0.54019  0.21178     C
H        0.196   0.2198   0.2034     H
C      0.19793  0.44033  0.69186     C
O      0.20212  0.46912  0.10164     O
Er    0.208957 0.280057 0.029274    Er
C       0.2181   0.8903    0.204     C
C      0.25607  0.99847  0.80814     C
C       0.2608   0.2958   0.3356     C
O       0.2632   0.4264   0.9514     O
N       0.2635   0.9739   0.8676     N
O       0.2706   0.3172   0.3946     O
H       0.2718   0.6206   0.6126     H
O        0.275   0.9382   0.4514     O
H       0.2901   0.0563    0.694     H
C      0.29677  0.59257  0.70674     C
H       0.3194   0.0344   0.9046     H
C       0.3212   0.6672   0.6572     C
C       0.3328   0.6788   0.3428     C
C       0.3371   0.6353    0.228     C
C      0.34003  0.13583  0.79326     C
C       0.3427   0.1409    0.728     C
H       0.3461   0.6123    0.806     H
O      0.34778  0.14658  0.99876     O
O       0.3558   0.8522   0.5656     O
O      0.36238  0.35698  0.30836     O
C       0.3634   0.9946    0.231     C
C       0.3647   0.6629    0.772     C
H       0.3688   0.9962   0.3282     H
H       0.3794   0.7282   0.3874     H
O      0.37983  0.31623  0.12926     O
O      0.38252  0.14952  0.60164     O
H       0.3877   0.6539    0.194     H
H       0.4072   0.0308   0.1418     H
C      0.40743  0.70323  0.29326     C
H       0.4092    0.258   0.8874     H
C        0.414     0.26   0.8428     C
C       0.4172   0.8088   0.6728     C
C      0.42159  0.26879  0.71178     C
C       0.4241   0.0381   0.2988     C
C       0.4273   0.2719   0.6406     C
C      0.44569  0.89169  0.61798     C
C       0.4472    0.057    0.188     C
O      0.45338  0.26878  0.49936     O
C      0.45981  0.80701  0.78822     C
O       0.4634   0.4598   0.0656     O
O      0.47474  0.38614  0.62368     O
C      0.47629  0.42229  0.11798     C
C        0.487   0.8798   0.7384     C
C       0.4944    0.386   0.8272     C
C       0.4986   0.3914   0.7616     C
Er    0.499217 0.070317 0.529274    Er
H       0.5212   0.4458    0.249     H
O      0.53088  0.79788  0.89836     O
C       0.5367   0.8813   0.8594     C
O       0.5402   0.5366   0.9344     O
H       0.5532   0.9778    0.749     H
H       0.5542   0.4788    0.751     H
C      0.55967  0.80207  0.30814     C
C       0.5622     0.14   0.3238     C
O      0.56303  0.99943  0.62926     O
O      0.56575  0.09795   0.4313     O
O       0.5736   0.7368   0.0486     O
C      0.57771  0.52371  0.88202     C
C       0.5883   0.1567   0.2128     C
O      0.60106  0.01246  0.87632     O
O      0.60218  0.90098  0.49876     O
C       0.6086   0.5014   0.2384     C
O      0.61386  0.52526  0.37632     O
C        0.614   0.5056   0.1728     C
H       0.6202   0.8352   0.4046     H
O        0.626   0.1726   0.1054     O
C       0.6302   0.1792   0.3972     C
N      0.63032  0.84972  0.26224     N
O      0.64302  0.63762  0.69164     O
N       0.6437   0.8541   0.3676     N
C       0.6461   0.1983     0.28     C
C       0.6752   0.2102   0.1644     C
O       0.6828   0.7294   0.6054     O
O      0.68377  0.62017  0.87074     O
O      0.70138  0.19598  0.80836     O
O      0.70402  0.01942  0.00064     O
C       0.7042   0.7392   0.6644     C
O      0.70956  0.25376  0.58072     O
Er    0.719943 0.791043 0.970726    Er
C       0.7281   0.5727   0.3594     C
C      0.73121  0.57841  0.28822     C
O      0.73122  0.54662  0.50064     O
H       0.7336   0.2574   0.7034     H
C         0.74    0.586   0.1572     C
H        0.742   0.5908   0.1126     H
H       0.7426   0.2664   0.2966     H
O      0.74624  0.29044  0.41928     O
C       0.7641   0.9363    0.296     C
N       0.7751   0.9435   0.3608     N
H       0.7802    0.804   0.7966     H
C       0.7898   0.3248   0.8356     C
H       0.7906    0.918   0.1718     H
C       0.8017   0.3539     0.72     C
O      0.80402  0.29862  0.19164     O
C       0.8061   0.8745   0.7128     C
C       0.8208   0.3698   0.6028     C
O       0.8274    0.374   0.8946     O
C       0.8317   0.8839     0.78     C
C       0.8433   0.4117   0.7872     C
O      0.85048  0.61748  0.39836     O
O      0.85342  0.65222  0.00124     O
C       0.8591   0.6573    0.272     C
C         0.86   0.4378   0.6762     C
H        0.861   0.9846   0.6418     H
C      0.86417  0.65997  0.20674     C
C       0.8753   0.9893   0.2012     C
O      0.87884  0.92304  0.91928     O
C        0.881   0.9908    0.688     C
C       0.8824   0.0136    0.269     C
O      0.88445  0.91665   0.0687     O
O      0.90205  0.43425   0.5687     O
Er    0.929683 0.500783 0.470726    Er
C       0.9338   0.0116   0.8238     C
C        0.943   0.5528    0.812     C
H       0.9437   0.7099    0.306     H
C       0.9619   0.5759   0.7012     C
H       0.9656   0.6806   0.0954     H
C        0.968    0.017   0.8972     C
H       0.9692   0.5928   0.8582     H
O      0.98058  0.29598  0.99936     O
C        0.983    0.032   0.1028     C
C       0.9864   0.1176    0.731     C
O      0.98754  0.39894  0.12368     O
C       0.9884   0.0662   0.1762     C
