data_I
_chemical_name_common  '/home/zhangsd/repos/MofS-CGCNN/ML/data/WS24/clean_cifs/MAWVEN01'
_cell_length_a  8.69950
_cell_length_b 11.28111
_cell_length_c 17.72069
_cell_angle_alpha 84.56913
_cell_angle_beta  75.79088
_cell_angle_gamma 67.32036
_space_group_name_H-M_alt      'P 1'


loop_
_space_group_symop_operation_xyz
  'x, y, z' 

loop_
_atom_site_label
_atom_site_fract_x
_atom_site_fract_y
_atom_site_fract_z
_atom_site_type_symbol
C      0.01097  0.97806     0.25     C
O      0.01342   0.6638  0.32096     O
C      0.01885  0.68306   0.7504     C
C      0.04769  0.18306   0.2504     C
C      0.05409  0.57234  0.43968     C
C      0.05852  0.88296     0.75     C
O      0.06983  0.07932  0.77062     O
C      0.07528   0.4698  0.56324     C
O      0.10033   0.6682  0.14014     O
N        0.103   0.3768   0.2484     N
C      0.11005  0.63146  0.36764     C
Sc      0.1157     0.25   0.7686    Sc
C      0.14738   0.5231  0.49668     C
O      0.14915  0.92068  0.27062     O
N      0.15047   0.0714  0.00126     N
N      0.15173   0.5714  0.99874     N
O      0.15955  0.42068  0.77062     O
C      0.19148  0.61704     0.75     C
N      0.22187   0.9286  0.50126     N
N       0.2282   0.1232   0.2516     N
C      0.23075  0.81694   0.7504     C
O      0.23147   0.6682  0.35986     O
O      0.24047   0.1682  0.85986     O
C      0.25849  0.63146  0.13236     C
C      0.26097  0.47806     0.75     C
N      0.27687   0.5714  0.50126     N
C      0.29809  0.68306   0.7496     C
O      0.32278   0.6638  0.17904     O
C      0.32952   0.5231  0.00332     C
C      0.33284   0.0231  0.99668     C
O      0.33438   0.1638  0.67904     O
N       0.3514   0.8768   0.7516     N
C      0.35594   0.9769  0.49668     C
C      0.36148   0.0302  0.56324     C
Sc      0.3657     0.75   0.2686    Sc
C      0.37357  0.57234  0.06032     C
C      0.39085  0.13146  0.86764     C
C      0.39168   0.9698  0.06324     C
O      0.40867   0.8318  0.35986     O
O      0.41977  0.42068  0.72938     O
C      0.43389  0.07234  0.93968     C
C      0.45492   0.4698  0.93676     C
C      0.47769  0.13146  0.63236     C
N       0.4798   0.6232   0.7484     N
C      0.49377  0.07234  0.56032     C
O      0.49818   0.8362  0.17904     O
O      0.50182   0.1638  0.82096     O
C      0.50623  0.92766  0.43968     C
N       0.5202   0.3768   0.2516     N
C      0.52231  0.86854  0.36764     C
C      0.54508   0.5302  0.06324     C
C      0.56611  0.92766  0.06032     C
O      0.58023  0.57932  0.27062     O
O      0.59133   0.1682  0.64014     O
C      0.60832   0.0302  0.93676     C
C      0.60915  0.86854  0.13236     C
C      0.62643  0.42766  0.93968     C
Sc      0.6343     0.25   0.7314    Sc
C      0.63852   0.9698  0.43676     C
C      0.64406   0.0231  0.50332     C
N       0.6486   0.1232   0.2484     N
O      0.66562   0.8362  0.32096     O
C      0.66716   0.9769  0.00332     C
C      0.67048   0.4769  0.99668     C
O      0.67722   0.3362  0.82096     O
C      0.70191  0.31694   0.2504     C
N      0.72313   0.4286  0.49874     N
C      0.73903  0.52194     0.25     C
C      0.74151  0.36854  0.86764     C
O      0.75953   0.8318  0.14014     O
O      0.76853   0.3318  0.64014     O
C      0.76925  0.18306   0.2496     C
N       0.7718   0.8768   0.7484     N
N      0.77813   0.0714  0.49874     N
C      0.80852  0.38296     0.25     C
O      0.84045  0.57932  0.22938     O
N      0.84827   0.4286  0.00126     N
N      0.84953   0.9286  0.99874     N
O      0.85085  0.07932  0.72938     O
C      0.85262   0.4769  0.50332     C
Sc      0.8843     0.75   0.2314    Sc
C      0.88995  0.36854  0.63236     C
N        0.897   0.6232   0.7516     N
O      0.89967   0.3318  0.85986     O
C      0.92472   0.5302  0.43676     C
O      0.93017  0.92068  0.22938     O
C      0.94148  0.11704     0.25     C
C      0.94591  0.42766  0.56032     C
C      0.95231  0.81694   0.7496     C
C      0.98115  0.31694   0.2496     C
O      0.98658   0.3362  0.67904     O
C      0.98903  0.02194     0.75     C
