data_I
_chemical_name_common  '/home/zhangsd/repos/MofS-CGCNN/ML/data/WS24/clean_cifs/MAWWAK01'
_cell_length_a  8.66399
_cell_length_b 11.05194
_cell_length_c 17.74783
_cell_angle_alpha 85.12520
_cell_angle_beta  75.87218
_cell_angle_gamma 69.62576
_space_group_name_H-M_alt      'P 1'


loop_
_space_group_symop_operation_xyz
  'x, y, z' 

loop_
_atom_site_label
_atom_site_fract_x
_atom_site_fract_y
_atom_site_fract_z
_atom_site_type_symbol
C      0.01318   0.4385  0.93204     C
O      0.01745   0.1297   0.3105     O
O      0.02088   0.3128  0.67584     O
N      0.02478   0.8564  0.75264     N
C      0.04358   0.0606  0.55392     C
C      0.04836   0.3568  0.86608     C
C       0.0598   0.4342   0.5636     C
O      0.06175  0.06989  0.76552     O
O      0.06977   0.6661  0.14826     O
O      0.07903   0.1451  0.18554     O
O      0.09268   0.0268  0.06184     O
C       0.0975   0.5606  0.44608     C
C      0.10744    0.378  0.63472     C
C       0.1234   0.9342   0.4364     C
C      0.12786   0.5454  0.00738     C
Sc     0.13336     0.75  0.23328    Sc
C      0.13853   0.4885  0.93776     C
C       0.1552   0.4964  0.51112     C
C      0.16632   0.9964  0.48888     C
O      0.17205   0.3703   0.3105     O
O      0.17978   0.3498  0.81104     O
O      0.19672   0.8128  0.32416     O
N      0.20188   0.9339   0.0179     N
C      0.20319  0.80262   0.7506     C
C      0.21867  0.02146  0.73934     C
O      0.22563   0.8364  0.97694     O
O      0.23543   0.3549  0.18554     O
C      0.24216    0.878  0.36528     C
O      0.26102   0.3399  0.63876     O
N      0.27742   0.3564  0.24736     N
N      0.28022   0.5661   0.0179     N
O      0.28197   0.8339  0.14826     O
C      0.28309  0.66821   0.7486     C
O      0.29743   0.6636  0.97694     O
C      0.29781  0.88369   0.7466     C
O      0.31236   0.5893  0.55408     O
O      0.31487   0.0869  0.73126     O
N      0.31939   0.4932  0.51862     N
O      0.32727  0.56989  0.23448     O
N      0.33801   0.9932  0.48138     N
O      0.34548   0.4732  0.06184     O
C      0.36476   0.9546  0.00738     C
O      0.36644   0.0893  0.44592     O
Sc     0.38693     0.25  0.72614    Sc
O      0.39978   0.8399  0.36124     O
O      0.41165   0.9133   0.5269     O
C      0.41444   0.8568  0.13392     C
C      0.42371   0.0115  0.93776     C
O      0.43855   0.4133   0.4731     O
C      0.44522   0.9385  0.06796     C
C      0.45379  0.30262   0.2494     C
O      0.45387   0.4131  0.73126     O
C      0.45559  0.61631   0.7466     C
C      0.45801  0.52146  0.26066     C
C      0.46831  0.83179   0.7486     C
O      0.49082   0.8498  0.18896     O
O      0.50918   0.1502  0.81104     O
C      0.53169  0.16821   0.2514     C
C      0.54199  0.47854  0.73934     C
C      0.54441  0.38369   0.2534     C
O      0.54613   0.5869  0.26874     O
C      0.54621  0.69738   0.7506     C
C      0.55478   0.0615  0.93204     C
O      0.56145   0.5867   0.5269     O
C      0.57629   0.9885  0.06224     C
C      0.58556   0.1432  0.86608     C
O      0.58835   0.0867   0.4731     O
O      0.60022   0.1601  0.63876     O
Sc     0.61307     0.75  0.27386    Sc
O      0.63356   0.9107  0.55408     O
C      0.63524   0.0454  0.99262     C
O      0.65452   0.5268  0.93816     O
N      0.66199   0.0068  0.51862     N
O      0.67273  0.43011  0.76552     O
N      0.68061   0.5068  0.48138     N
O      0.68513   0.9131  0.26874     O
O      0.68764   0.4107  0.44592     O
C      0.70219  0.11631   0.2534     C
O      0.70257   0.3364  0.02306     O
C      0.71691  0.33179   0.2514     C
O      0.71803   0.1661  0.85174     O
N      0.71978   0.4339   0.9821     N
N      0.72258   0.6436  0.75264     N
O      0.73898   0.6601  0.36124     O
C      0.75784    0.122  0.63472     C
O      0.76457   0.6451  0.81446     O
O      0.77437   0.1636  0.02306     O
C      0.78133  0.97854  0.26066     C
C      0.79681  0.19738   0.2494     C
N      0.79812   0.0661   0.9821     N
O      0.80328   0.1872  0.67584     O
O      0.82022   0.6502  0.18896     O
O      0.82795   0.6297   0.6895     O
C      0.83368   0.0036  0.51112     C
C       0.8448   0.5036  0.48888     C
C      0.86147   0.5115  0.06224     C
Sc     0.86664     0.25  0.76672    Sc
C      0.87214   0.4546  0.99262     C
C       0.8766   0.0658   0.5636     C
C      0.89256    0.622  0.36528     C
C       0.9025   0.4394  0.55392     C
O      0.90732   0.9732  0.93816     O
O      0.92097   0.8549  0.81446     O
O      0.93023   0.3339  0.85174     O
O      0.93825  0.93011  0.23448     O
C       0.9402   0.5658   0.4364     C
C      0.95164   0.6432  0.13392     C
C      0.95642   0.9394  0.44608     C
N      0.97522   0.1436  0.24736     N
O      0.97912   0.6872  0.32416     O
O      0.98255   0.8703   0.6895     O
C      0.98682   0.5615  0.06796     C
