data_I
_chemical_name_common  '/home/zhangsd/repos/MofS-CGCNN/ML/data/WS24/clean_cifs/MEKDOW'
_cell_length_a  6.71300
_cell_length_b 11.86500
_cell_length_c 12.15200
_cell_angle_alpha 90.00000
_cell_angle_beta  90.00000
_cell_angle_gamma 102.89600
_space_group_name_H-M_alt      'P 1'


loop_
_space_group_symop_operation_xyz
  'x, y, z' 

loop_
_atom_site_label
_atom_site_fract_x
_atom_site_fract_y
_atom_site_fract_z
_atom_site_type_symbol
N       0.0136  0.77138  0.59461     N
C       0.0234   0.2766  0.30594     C
H       0.0256   0.7678   0.7554     H
N       0.0336  0.25483  0.81046     N
S      0.03544  0.85697  0.99026     S
H       0.0403   0.2612    0.563     H
C        0.045   0.2525  0.91686     C
O       0.0511  0.95329   0.3994     O
C       0.0621   0.2937   0.4932     C
N       0.1267  0.36855   0.7779     N
C       0.1301   0.3883   0.2898     C
O       0.1313  0.03509  0.23737     O
O       0.1401  0.35815  0.95897     O
H       0.1521   0.4183    0.219     H
C       0.1561  0.96853  0.31194     C
C       0.1697    0.406   0.4839     C
C       0.1857   0.4245   0.8674     C
C       0.2044  0.45556     0.38     C
Cd     0.21387 0.954621 0.572855    Cd
H        0.219   0.4485   0.5463     H
H       0.2422   0.0727   0.8032     H
H       0.2578   0.9273   0.3032     H
H        0.281   0.5515   0.0463     H
Cd     0.28613 0.045379 0.072855    Cd
C       0.2956  0.54444     0.88     C
C       0.3143   0.5755   0.3674     C
C       0.3303    0.594   0.9839     C
C       0.3439  0.03147  0.81194     C
H       0.3479   0.5817    0.719     H
O       0.3599  0.64185  0.45897     O
O       0.3687  0.96491  0.73737     O
C       0.3699   0.6117   0.7898     C
N       0.3733  0.63145   0.2779     N
C       0.4379   0.7063   0.9932     C
O       0.4489  0.04671   0.8994     O
C        0.455   0.7475  0.41686     C
H       0.4597   0.7388    0.063     H
S      0.46456  0.14303  0.49026     S
N       0.4664  0.74517  0.31046     N
H       0.4744   0.2322   0.2554     H
C       0.4766   0.7234  0.80594     C
N       0.4864  0.22862  0.09461     N
N       0.5136  0.77138  0.90539     N
C       0.5234   0.2766  0.19406     C
H       0.5256   0.7678   0.7446     H
N       0.5336  0.25483  0.68954     N
S      0.53544  0.85697  0.50974     S
H       0.5403   0.2612    0.937     H
C        0.545   0.2525  0.58314     C
O       0.5511  0.95329   0.1006     O
C       0.5621   0.2937   0.0068     C
N       0.6267  0.36855   0.7221     N
C       0.6301   0.3883   0.2102     C
O       0.6313  0.03509  0.26263     O
O       0.6401  0.35815  0.54103     O
H       0.6521   0.4183    0.281     H
C       0.6561  0.96853  0.18806     C
C       0.6697    0.406   0.0161     C
C       0.6857   0.4245   0.6326     C
C       0.7044  0.45556     0.12     C
Cd     0.71387 0.954621 0.927145    Cd
H        0.719   0.4485   0.9537     H
H       0.7422   0.0727   0.6968     H
H       0.7578   0.9273   0.1968     H
H        0.781   0.5515   0.4537     H
Cd     0.78613 0.045379 0.427145    Cd
C       0.7956  0.54444     0.62     C
C       0.8143   0.5755   0.1326     C
C       0.8303    0.594   0.5161     C
C       0.8439  0.03147  0.68806     C
H       0.8479   0.5817    0.781     H
O       0.8599  0.64185  0.04103     O
O       0.8687  0.96491  0.76263     O
C       0.8699   0.6117   0.7102     C
N       0.8733  0.63145   0.2221     N
C       0.9379   0.7063   0.5068     C
O       0.9489  0.04671   0.6006     O
C        0.955   0.7475  0.08314     C
H       0.9597   0.7388    0.437     H
S      0.96456  0.14303  0.00974     S
N       0.9664  0.74517  0.18954     N
H       0.9744   0.2322   0.2446     H
C       0.9766   0.7234  0.69406     C
N       0.9864  0.22862  0.40539     N
