data_I
_chemical_name_common  '/home/zhangsd/repos/MofS-CGCNN/ML/data/WS24/clean_cifs/MEKDIQ'
_cell_length_a  8.81500
_cell_length_b 11.90600
_cell_length_c 12.67100
_cell_angle_alpha 90.00000
_cell_angle_beta  90.00000
_cell_angle_gamma 100.05000
_space_group_name_H-M_alt      'P 1'


loop_
_space_group_symop_operation_xyz
  'x, y, z' 

loop_
_atom_site_label
_atom_site_fract_x
_atom_site_fract_y
_atom_site_fract_z
_atom_site_type_symbol
Zn         0.0      0.0      0.0    Zn
C       0.0217  0.30081   0.7855     C
N      0.04751  0.87309  0.11806     N
C       0.0549  0.21872  0.85435     C
S      0.07076  0.33578  0.45615     S
O       0.0708  0.52512  0.34451     O
H       0.0827   0.1882   0.1062     H
H       0.0966   0.3633   0.7684     H
C       0.1242  0.71096  0.25782     C
O       0.1267  0.13056  0.09685     O
C        0.153  0.46404  0.40936     C
H       0.1534   0.2277    0.883     H
C       0.1704  0.62436  0.32623     C
H       0.1704   0.6814   0.7595     H
C       0.1883   0.8845   0.1611     C
N      0.19844  0.87228  0.87087     N
N      0.20784  0.97626  0.92375     N
H       0.2181   0.1468   0.0727     H
C       0.2309  0.80696  0.23085     C
H       0.2392    0.552   0.6429     H
H       0.2608    0.948   0.1429     H
C       0.2691  0.69304  0.73085     C
H       0.2819   0.3532   0.5727     H
N      0.29216  0.52374  0.42375     N
N      0.30156  0.62772  0.37087     N
C       0.3117   0.6155   0.6611     C
H       0.3296   0.8186   0.2595     H
C       0.3296  0.87564  0.82623     C
H       0.3466   0.2723    0.383     H
C        0.347  0.03596  0.90936     C
O       0.3733  0.36944  0.59685     O
C       0.3758  0.78904  0.75782     C
H       0.4034   0.1367   0.2684     H
H       0.4173   0.3118   0.6062     H
O       0.4292  0.97488  0.84451     O
S      0.42924  0.16422  0.95615     S
C       0.4451  0.28128  0.35435     C
N      0.45249  0.62691  0.61806     N
C       0.4783  0.19919   0.2855     C
Zn         0.5      0.5      0.5    Zn
C       0.5217  0.80081   0.7145     C
N      0.54751  0.37309  0.38194     N
C       0.5549  0.71872  0.64565     C
S      0.57076  0.83578  0.04385     S
O       0.5708  0.02512  0.15549     O
H       0.5827   0.6882   0.3938     H
H       0.5966   0.8633   0.7316     H
C       0.6242  0.21096  0.24218     C
O       0.6267  0.63056  0.40315     O
C        0.653  0.96404  0.09064     C
H       0.6534   0.7277    0.617     H
C       0.6704  0.12436  0.17377     C
H       0.6704   0.1814   0.7405     H
C       0.6883   0.3845   0.3389     C
N      0.69844  0.37228  0.62913     N
N      0.70784  0.47626  0.57625     N
H       0.7181   0.6468   0.4273     H
C       0.7309  0.30696  0.26915     C
H       0.7392    0.052   0.8571     H
H       0.7608    0.448   0.3571     H
C       0.7691  0.19304  0.76915     C
H       0.7819   0.8532   0.9273     H
N      0.79216  0.02374  0.07625     N
N      0.80156  0.12772  0.12913     N
C       0.8117   0.1155   0.8389     C
H       0.8296   0.3186   0.2405     H
C       0.8296  0.37564  0.67377     C
H       0.8466   0.7723    0.117     H
C        0.847  0.53596  0.59064     C
O       0.8733  0.86944  0.90315     O
C       0.8758  0.28904  0.74218     C
H       0.9034   0.6367   0.2316     H
H       0.9173   0.8118   0.8938     H
O       0.9292  0.47488  0.65549     O
S      0.92924  0.66422  0.54385     S
C       0.9451  0.78128  0.14565     C
N      0.95249  0.12691  0.88194     N
C       0.9783  0.69919   0.2145     C
