data_I
_chemical_name_common  '/home/zhangsd/repos/MofS-CGCNN/ML/data/WS24/clean_cifs/MERLAZ'
_cell_length_a 16.95362
_cell_length_b 31.26941
_cell_length_c 31.26941
_cell_angle_alpha 120.00000
_cell_angle_beta  90.00000
_cell_angle_gamma 90.00000
_space_group_name_H-M_alt      'P 1'


loop_
_space_group_symop_operation_xyz
  'x, y, z' 

loop_
_atom_site_label
_atom_site_fract_x
_atom_site_fract_y
_atom_site_fract_z
_atom_site_type_symbol
N          0.0 0.07257083 0.5362854     N
Cl         0.0 0.4263992 0.4263992    Cl
Cl         0.0 0.4263992      1.0    Cl
N          0.0 0.4637146 0.53628543     N
N          0.0 0.4637146 0.92742917     N
Fe         0.0      0.5      0.0    Fe
Fe         0.0      0.5      0.5    Fe
N          0.0 0.53628543 0.07257083     N
N          0.0 0.53628543 0.4637146     N
Cl         0.0 0.5736008 0.5736008    Cl
Cl         0.0 0.5736008      1.0    Cl
N          0.0 0.92742917 0.46371457     N
Cl         0.0      1.0 0.4263992    Cl
Fe         0.0      1.0      0.5    Fe
Cl         0.0      1.0 0.5736008    Cl
C     0.03988342 0.1543708 0.5771854     C
C     0.03988342 0.4228146 0.5771854     C
C     0.03988342 0.4228146 0.8456292     C
C     0.03988342 0.5771854 0.1543708     C
C     0.03988342 0.5771854 0.4228146     C
C     0.03988342 0.8456292 0.4228146     C
C     0.06308342 0.1043708 0.5521854     C
C     0.06308342 0.4478146 0.5521854     C
C     0.06308342 0.4478146 0.8956292     C
C     0.06308342 0.5521854 0.1043708     C
C     0.06308342 0.5521854 0.4478146     C
C     0.06308342 0.8956292 0.4478146     C
H     0.07708342 0.1875708 0.5937854     H
H     0.07708342 0.4062146 0.5937854     H
H     0.07708342 0.4062146 0.8124292     H
H     0.07708342 0.5937854 0.1875708     H
H     0.07708342 0.5937854 0.4062146     H
H     0.07708342 0.8124292 0.4062146     H
N     0.1135834      0.5      0.0     N
N     0.1135834      0.5      0.5     N
N     0.1135834      1.0      0.5     N
C     0.1418834 0.09037083 0.5451854     C
C     0.1418834 0.4548146 0.54518543     C
C     0.1418834 0.4548146 0.90962917     C
C     0.1418834 0.54518543 0.09037083     C
C     0.1418834 0.54518543 0.4548146     C
C     0.1418834 0.90962917 0.45481457     C
C     0.1638834 0.04057083 0.5202854     C
C     0.1638834 0.4797146 0.52028543     C
C     0.1638834 0.4797146 0.95942917     C
C     0.1638834 0.52028543 0.04057083     C
C     0.1638834 0.52028543 0.4797146     C
C     0.1638834 0.95942917 0.47971457     C
C     0.2043834 0.1297708 0.5648854     C
C     0.2043834 0.4351146 0.5648854     C
C     0.2043834 0.4351146 0.8702292     C
C     0.2043834 0.5648854 0.1297708     C
C     0.2043834 0.5648854 0.4351146     C
C     0.2043834 0.8702292 0.4351146     C
H     0.2116834 0.1341708 0.4970854     H
H     0.2116834 0.1341708 0.6370854     H
H     0.2116834 0.3629146 0.4970854     H
H     0.2116834 0.3629146 0.8658292     H
H     0.2116834 0.4970854 0.1341708     H
H     0.2116834 0.4970854 0.3629146     H
H     0.2116834 0.5029146 0.6370854     H
H     0.2116834 0.5029146 0.8658292     H
H     0.2116834 0.6370854 0.1341708     H
H     0.2116834 0.6370854 0.5029146     H
H     0.2116834 0.8658292 0.3629146     H
H     0.2116834 0.8658292 0.5029146     H
C     0.2346834 0.1479708 0.5345854     C
C     0.2346834 0.1479708 0.6133854     C
C     0.2346834 0.3866146 0.5345854     C
C     0.2346834 0.3866146 0.8520292     C
C     0.2346834 0.4654146 0.6133854     C
C     0.2346834 0.4654146 0.8520292     C
C     0.2346834 0.5345854 0.1479708     C
C     0.2346834 0.5345854 0.3866146     C
C     0.2346834 0.6133854 0.1479708     C
C     0.2346834 0.6133854 0.4654146     C
C     0.2346834 0.8520292 0.3866146     C
C     0.2346834 0.8520292 0.4654146     C
C     0.2426834 0.02597083 0.5129854     C
C     0.2426834 0.4870146 0.51298543     C
C     0.2426834 0.4870146 0.97402917     C
C     0.2426834 0.51298543 0.02597083     C
C     0.2426834 0.51298543 0.4870146     C
C     0.2426834 0.97402917 0.48701457     C
H     0.2951834 0.04937083 0.5246854     H
H     0.2951834 0.4753146 0.52468543     H
H     0.2951834 0.4753146 0.95062917     H
H     0.2951834 0.52468543 0.04937083     H
H     0.2951834 0.52468543 0.4753146     H
H     0.2951834 0.95062917 0.47531457     H
C     0.2953834 0.1837708 0.5524854     C
C     0.2953834 0.1837708 0.6312854     C
C     0.2953834 0.3687146 0.5524854     C
C     0.2953834 0.3687146 0.8162292     C
C     0.2953834 0.4475146 0.6312854     C
C     0.2953834 0.4475146 0.8162292     C
C     0.2953834 0.5524854 0.1837708     C
C     0.2953834 0.5524854 0.3687146     C
C     0.2953834 0.6312854 0.1837708     C
C     0.2953834 0.6312854 0.4475146     C
C     0.2953834 0.8162292 0.3687146     C
C     0.2953834 0.8162292 0.4475146     C
H     0.3180834 0.1968708 0.5280854     H
H     0.3180834 0.1968708 0.6687854     H
H     0.3180834 0.3312146 0.5280854     H
H     0.3180834 0.3312146 0.8031292     H
H     0.3180834 0.4719146 0.6687854     H
H     0.3180834 0.4719146 0.8031292     H
H     0.3180834 0.5280854 0.1968708     H
H     0.3180834 0.5280854 0.3312146     H
H     0.3180834 0.6687854 0.1968708     H
H     0.3180834 0.6687854 0.4719146     H
H     0.3180834 0.8031292 0.3312146     H
H     0.3180834 0.8031292 0.4719146     H
C     0.3268834 0.2019708 0.6009854     C
C     0.3268834 0.3990146 0.6009854     C
C     0.3268834 0.3990146 0.7980292     C
C     0.3268834 0.6009854 0.2019708     C
C     0.3268834 0.6009854 0.3990146     C
C     0.3268834 0.7980292 0.3990146     C
C     0.3927834 0.2387708 0.6193854     C
C     0.3927834 0.3806146 0.6193854     C
C     0.3927834 0.3806146 0.7612292     C
C     0.3927834 0.6193854 0.2387708     C
C     0.3927834 0.6193854 0.3806146     C
C     0.3927834 0.7612292 0.3806146     C
O     0.4198834 0.2535708 0.5904854     O
O     0.4198834 0.2535708 0.6630854     O
O     0.4198834 0.3369146 0.5904854     O
O     0.4198834 0.3369146 0.7464292     O
O     0.4198834 0.4095146 0.6630854     O
O     0.4198834 0.4095146 0.7464292     O
O     0.4198834 0.5904854 0.2535708     O
O     0.4198834 0.5904854 0.3369146     O
O     0.4198834 0.6630854 0.2535708     O
O     0.4198834 0.6630854 0.4095146     O
O     0.4198834 0.7464292 0.3369146     O
O     0.4198834 0.7464292 0.4095146     O
O          0.5 0.2632544 0.5265088     O
O          0.5 0.2632544 0.7367456     O
Fe         0.5 0.2989344 0.5978688    Fe
Fe         0.5 0.2989344 0.7010656    Fe
O          0.5 0.33333333 0.66666667     O
Fe         0.5 0.4021312 0.7010656    Fe
O          0.5 0.4734912 0.7367456     O
O          0.5 0.5265088 0.2632544     O
Fe         0.5 0.5978688 0.2989344    Fe
O          0.5 0.66666667 0.33333333     O
Fe         0.5 0.7010656 0.2989344    Fe
Fe         0.5 0.7010656 0.4021312    Fe
O          0.5 0.7367456 0.2632544     O
O          0.5 0.7367456 0.4734912     O
O     0.5801166 0.2535708 0.5904854     O
O     0.5801166 0.2535708 0.6630854     O
O     0.5801166 0.3369146 0.5904854     O
O     0.5801166 0.3369146 0.7464292     O
O     0.5801166 0.4095146 0.6630854     O
O     0.5801166 0.4095146 0.7464292     O
O     0.5801166 0.5904854 0.2535708     O
O     0.5801166 0.5904854 0.3369146     O
O     0.5801166 0.6630854 0.2535708     O
O     0.5801166 0.6630854 0.4095146     O
O     0.5801166 0.7464292 0.3369146     O
O     0.5801166 0.7464292 0.4095146     O
C     0.6072166 0.2387708 0.6193854     C
C     0.6072166 0.3806146 0.6193854     C
C     0.6072166 0.3806146 0.7612292     C
C     0.6072166 0.6193854 0.2387708     C
C     0.6072166 0.6193854 0.3806146     C
C     0.6072166 0.7612292 0.3806146     C
C     0.6731166 0.2019708 0.6009854     C
C     0.6731166 0.3990146 0.6009854     C
C     0.6731166 0.3990146 0.7980292     C
C     0.6731166 0.6009854 0.2019708     C
C     0.6731166 0.6009854 0.3990146     C
C     0.6731166 0.7980292 0.3990146     C
H     0.6819166 0.1968708 0.5280854     H
H     0.6819166 0.1968708 0.6687854     H
H     0.6819166 0.3312146 0.5280854     H
H     0.6819166 0.3312146 0.8031292     H
H     0.6819166 0.4719146 0.6687854     H
H     0.6819166 0.4719146 0.8031292     H
H     0.6819166 0.5280854 0.1968708     H
H     0.6819166 0.5280854 0.3312146     H
H     0.6819166 0.6687854 0.1968708     H
H     0.6819166 0.6687854 0.4719146     H
H     0.6819166 0.8031292 0.3312146     H
H     0.6819166 0.8031292 0.4719146     H
C     0.7046166 0.1837708 0.5524854     C
C     0.7046166 0.1837708 0.6312854     C
C     0.7046166 0.3687146 0.5524854     C
C     0.7046166 0.3687146 0.8162292     C
C     0.7046166 0.4475146 0.6312854     C
C     0.7046166 0.4475146 0.8162292     C
C     0.7046166 0.5524854 0.1837708     C
C     0.7046166 0.5524854 0.3687146     C
C     0.7046166 0.6312854 0.1837708     C
C     0.7046166 0.6312854 0.4475146     C
C     0.7046166 0.8162292 0.3687146     C
C     0.7046166 0.8162292 0.4475146     C
H     0.7048166 0.04937083 0.5246854     H
H     0.7048166 0.4753146 0.52468543     H
H     0.7048166 0.4753146 0.95062917     H
H     0.7048166 0.52468543 0.04937083     H
H     0.7048166 0.52468543 0.4753146     H
H     0.7048166 0.95062917 0.47531457     H
C     0.7573166 0.02597083 0.5129854     C
C     0.7573166 0.4870146 0.51298543     C
C     0.7573166 0.4870146 0.97402917     C
C     0.7573166 0.51298543 0.02597083     C
C     0.7573166 0.51298543 0.4870146     C
C     0.7573166 0.97402917 0.48701457     C
C     0.7653166 0.1479708 0.5345854     C
C     0.7653166 0.1479708 0.6133854     C
C     0.7653166 0.3866146 0.5345854     C
C     0.7653166 0.3866146 0.8520292     C
C     0.7653166 0.4654146 0.6133854     C
C     0.7653166 0.4654146 0.8520292     C
C     0.7653166 0.5345854 0.1479708     C
C     0.7653166 0.5345854 0.3866146     C
C     0.7653166 0.6133854 0.1479708     C
C     0.7653166 0.6133854 0.4654146     C
C     0.7653166 0.8520292 0.3866146     C
C     0.7653166 0.8520292 0.4654146     C
H     0.7883166 0.1341708 0.4970854     H
H     0.7883166 0.1341708 0.6370854     H
H     0.7883166 0.3629146 0.4970854     H
H     0.7883166 0.3629146 0.8658292     H
H     0.7883166 0.4970854 0.1341708     H
H     0.7883166 0.4970854 0.3629146     H
H     0.7883166 0.5029146 0.6370854     H
H     0.7883166 0.5029146 0.8658292     H
H     0.7883166 0.6370854 0.1341708     H
H     0.7883166 0.6370854 0.5029146     H
H     0.7883166 0.8658292 0.3629146     H
H     0.7883166 0.8658292 0.5029146     H
C     0.7956166 0.1297708 0.5648854     C
C     0.7956166 0.4351146 0.5648854     C
C     0.7956166 0.4351146 0.8702292     C
C     0.7956166 0.5648854 0.1297708     C
C     0.7956166 0.5648854 0.4351146     C
C     0.7956166 0.8702292 0.4351146     C
C     0.8361166 0.04057083 0.5202854     C
C     0.8361166 0.4797146 0.52028543     C
C     0.8361166 0.4797146 0.95942917     C
C     0.8361166 0.52028543 0.04057083     C
C     0.8361166 0.52028543 0.4797146     C
C     0.8361166 0.95942917 0.47971457     C
C     0.8581166 0.09037083 0.5451854     C
C     0.8581166 0.4548146 0.54518543     C
C     0.8581166 0.4548146 0.90962917     C
C     0.8581166 0.54518543 0.09037083     C
C     0.8581166 0.54518543 0.4548146     C
C     0.8581166 0.90962917 0.45481457     C
N     0.8864166      0.5      0.0     N
N     0.8864166      0.5      0.5     N
N     0.8864166      1.0      0.5     N
H     0.92291658 0.1875708 0.5937854     H
H     0.92291658 0.4062146 0.5937854     H
H     0.92291658 0.4062146 0.8124292     H
H     0.92291658 0.5937854 0.1875708     H
H     0.92291658 0.5937854 0.4062146     H
H     0.92291658 0.8124292 0.4062146     H
C     0.93691658 0.1043708 0.5521854     C
C     0.93691658 0.4478146 0.5521854     C
C     0.93691658 0.4478146 0.8956292     C
C     0.93691658 0.5521854 0.1043708     C
C     0.93691658 0.5521854 0.4478146     C
C     0.93691658 0.8956292 0.4478146     C
C     0.96011658 0.1543708 0.5771854     C
C     0.96011658 0.4228146 0.5771854     C
C     0.96011658 0.4228146 0.8456292     C
C     0.96011658 0.5771854 0.1543708     C
C     0.96011658 0.5771854 0.4228146     C
C     0.96011658 0.8456292 0.4228146     C
