data_I
_chemical_name_common  '/home/zhangsd/repos/MofS-CGCNN/ML/data/WS24/clean_cifs/Mg-MOF-74'
_cell_length_a 25.93221
_cell_length_b 25.93221
_cell_length_c  6.83654
_cell_angle_alpha 90.00000
_cell_angle_beta  90.00000
_cell_angle_gamma 120.00000
_space_group_name_H-M_alt      'P 1'


loop_
_space_group_symop_operation_xyz
  'x, y, z' 

loop_
_atom_site_label
_atom_site_fract_x
_atom_site_fract_y
_atom_site_fract_z
_atom_site_type_symbol
C      0.00034  0.79466  0.11339     C
C      0.00295  0.16148 0.574713     C
C     0.0062716 0.4592316  0.38215     C
C     0.0103516 0.5554516  0.41915     C
O     0.0121316 0.3726111  0.31014     O
O     0.0129616  0.22183  0.05505     O
C     0.0155016 0.5133816  0.30755     C
H     0.015981 0.201682 0.489971     H
C     0.0173316 0.4206116  0.24515     C
Mg    0.01776317 0.297843 0.187116    Mg
Mg    0.017764 0.297843 0.187106    Mg
Mg    0.017764 0.297843 0.187116    Mg
Mg    0.01776417 0.297843 0.187106    Mg
Mg    0.01776417 0.297853 0.187106    Mg
N      0.02002  0.17743  0.78097     N
O     0.0218811 0.6068311  0.33274     O
H     0.025149 0.138525 0.516982     H
H     0.025866 0.521934 0.173334     H
O     0.0271317 0.3212012  0.64344     O
O     0.0316613 0.4378111  0.07114     O
H     0.032345 0.784932 0.182955     H
Mg    0.035493 0.38658618 0.853776    Mg
Mg    0.035493 0.386593 0.853776    Mg
Mg    0.035493 0.386594 0.853776    Mg
O     0.0392711 0.6938017  0.02334     O
H     0.045164 0.867731 0.435118     H
H      0.05217 0.142317 0.998335     H
Mg    0.05325218 0.68443117 0.479576    Mg
Mg    0.05325218 0.684434 0.479576    Mg
Mg    0.053253 0.68443017 0.479566    Mg
Mg    0.05325318 0.684434 0.479566    Mg
Mg    0.053254 0.68443017 0.479566    Mg
O      0.05982 0.7483916  0.66594     O
H     0.064578 0.920165 0.758706     H
C      0.06805  0.16827 0.864115     C
C      0.06993 0.3160016  0.57845     C
O     0.0728018 0.3016713  0.40444     O
H     0.079835 0.144412 0.758706     H
O     0.0817216 0.3552211  0.00074     O
H      0.08592 0.634321 0.849621     H
C     0.0872716  0.73663  0.08835     C
H     0.090148  0.94783 0.998335     H
C      0.10036  0.93205 0.864115     C
H     0.104332 0.893075 0.896075     H
O     0.1044711 0.7394718  0.26234     O
H     0.106925 0.211256 0.896075     H
C     0.1112216  0.78823  0.75245     C
O      0.11163  0.45783  0.72175     O
H     0.113377 0.974851 0.516982     H
H     0.118265 0.419253 0.483712     H
C      0.11963 0.3270616  0.71545     C
C      0.12163 0.3436916  0.91435     C
H     0.122077 0.562335 0.562742     H
O      0.12453 0.6796216  0.61165     O
C     0.1258916  0.78633  0.95135     C
C      0.12766  0.66634  0.77999     C
C      0.12796  0.46096  0.55349     C
H      0.13165 0.480964 0.156638     H
H     0.132269 0.177434 0.435118     H
H     0.138525 0.113377 0.483018     H
H     0.142317 0.090148 0.001665     H
H     0.144412 0.064578 0.241294     H
H     0.144733 0.837266 0.506667     H
H     0.147631 0.682647 0.176695     H
C     0.1532916  0.83553  0.64085     C
H       0.1559 0.621502 0.101784     H
N      0.15593  0.50923  0.44767     N
N      0.15753  0.98002  0.78097     N
C      0.15867  0.99715 0.574713     C
C      0.16148  0.15867 0.425313     C
H     0.162733 0.307467 0.506667     H
C      0.16453 0.3178316  0.64085     C
C      0.16517  0.56646 0.530815     C
C      0.16827  0.10036 0.135915     C
C      0.16883 0.3488416  0.02595     C
H     0.170599   0.3592     0.16     H
C      0.17197  0.50819 0.241413     C
C      0.17487  0.66955 0.091913     C
N      0.17593  0.68662  0.88577     N
N      0.17743  0.15753  0.21917     N
H     0.177434 0.045164 0.564882     H
C     0.1800416  0.83123  0.02595     C
H     0.185702 0.984019 0.489971     H
H       0.1886   0.8294     0.16     H
H     0.188921 0.602089 0.425373     H
H     0.191016 0.576519 0.665002     H
H     0.194808  0.55329 0.183649     H
H     0.201064 0.489233 0.231549     H
H     0.201682 0.185702 0.510029     H
C      0.20546  0.20586  0.11339     C
C      0.20586  0.00034  0.88679     C
C     0.2074416  0.88043  0.71545     C
O      0.20883 0.9870416  0.05505     O
H     0.211256 0.104332 0.103925     H
C      0.21183 0.3229816  0.75245     C
C      0.21373 0.3396116  0.95135     C
H     0.215067 0.247413 0.182955     H
H     0.219957 0.691815 0.149684     H
O      0.22183  0.20883  0.94505     O
C     0.2221116  0.87843  0.91435     C
H     0.226409  0.45541 0.770591     H
O     0.2288611 0.9271917  0.40444     O
H     0.229002 0.773591 0.770591     H
C      0.23316  0.73465 0.802515     C
H     0.243186 0.718836 0.668331     H
C     0.2460616  0.93013  0.57845     C
H     0.247413 0.032345 0.817045     H
O     0.2516016 0.3114516  0.66604     O
H     0.253499 0.522254  0.90796     H
O     0.2605218 0.3650013  0.26234     O
C      0.26343 0.3506716  0.08835     C
C      0.26545  0.49847 0.802515     C
H     0.268756 0.746501  0.90796     H
O     0.2734911 0.9182716  0.00074     O
Mg    0.28008018 0.982244 0.187116    Mg
Mg    0.28008118 0.98223617 0.187106    Mg
Mg    0.28008118 0.982244 0.187106    Mg
Mg    0.280083 0.98223617 0.187106    Mg
Mg    0.280084 0.98223717 0.187116    Mg
H     0.281164 0.524349 0.668331     H
H     0.288169 0.798936 0.231549     H
O     0.2940611 0.9728617  0.64344     O
Mg    0.297843 0.28008018 0.812896    Mg
Mg    0.297843 0.28008118 0.812906    Mg
Mg    0.297843 0.280083 0.812906    Mg
Mg    0.297843 0.280084 0.812896    Mg
Mg    0.297853 0.28008118 0.812906    Mg
H     0.300988 0.881734 0.483712     H
O     0.3016713 0.2288611  0.59564     O
O     0.3061916 0.3454712  0.02334     O
H     0.307467 0.144733 0.493333     H
H     0.308185 0.528141 0.149684     H
O     0.3114411  0.05982  0.33414     O
N      0.31342  0.48923  0.88577     N
Mg    0.31556917 0.368823 0.479576    Mg
Mg    0.31557017 0.368823 0.479566    Mg
Mg    0.315574 0.368823 0.479566    Mg
Mg    0.315574 0.368823 0.479576    Mg
C     0.3160016 0.2460616  0.42165     C
H     0.317353 0.464983 0.176695     H
C     0.3178316 0.1532916  0.35925     C
O     0.3203816  0.44493  0.61165     O
O     0.3212012 0.2940611  0.35664     O
C     0.3229816 0.1112216  0.24765     C
C     0.3270616 0.2074416  0.28465     C
C      0.33055  0.50527 0.091913     C
C      0.33304  0.87216  0.55349     C
C      0.33374  0.46126  0.77999     C
C      0.33625  0.82817 0.241413     C
C     0.3396116 0.1258916  0.04875     C
C     0.3436916 0.2221116  0.08575     C
O     0.3454712 0.0392711  0.97674     O
O     0.3462916  0.88843  0.72175     O
C     0.3488416 0.1800416  0.97415     C
H     0.349314 0.868349 0.156638     H
C     0.3506716 0.0872716  0.91175     C
Mg    0.35109717 0.964513 0.853776    Mg
Mg    0.351104 0.964513 0.853776    Mg
N      0.35332  0.84413  0.44767     N
O      0.35522 0.2734911  0.99934     O
H     0.358482 0.805192 0.183649     H
H       0.3592   0.1886     0.84     H
O     0.3604716  0.98792  0.31014     O
O     0.3649913  0.10453  0.73784     O
H     0.365679 0.451598 0.849621     H
Mg    0.368823 0.05325218 0.520436    Mg
Mg    0.368823 0.053253 0.520446    Mg
Mg    0.368823 0.05325318 0.520446    Mg
Mg    0.368823 0.053254 0.520446    Mg
O     0.3726011 0.3604717  0.69004     O
H     0.378498 0.534397 0.101784     H
H     0.385503 0.808984 0.665002     H
Mg    0.38658618 0.35109717 0.146236    Mg
Mg    0.38658618 0.351104 0.146236    Mg
Mg    0.386593 0.35109717 0.146236    Mg
Mg    0.386594 0.35109717 0.146236    Mg
O     0.3931711 0.4150616  0.33274     O
H     0.397911 0.586832 0.425373     H
C      0.40135  0.83497 0.530815     C
C      0.40333 0.9826616  0.24505     C
O     0.4061417  0.96833  0.07114     O
H     0.413168 0.811079 0.425373     H
O     0.4150616 0.0218811  0.66734     O
H     0.419253 0.300988 0.516288     H
C     0.4206016  0.40333  0.75505     C
H     0.423481 0.614497 0.665002     H
C      0.43366  0.59875 0.530815     C
H     0.437665 0.559742 0.562742     H
O     0.4378011 0.4061418  0.92904     O
H     0.440258 0.877923 0.562742     H
C     0.4445516  0.45493  0.41915     C
O      0.44493  0.12453  0.38845     O
H      0.44671 0.641518 0.183649     H
H     0.451598  0.08592 0.150379     H
C      0.45293 0.9937216  0.38205     C
C      0.45493 0.0103516  0.58095     C
H      0.45541 0.229002 0.229409     H
O      0.45783 0.3462916  0.27835     O
C     0.4592216  0.45293  0.61805     C
C      0.46096  0.33304  0.44669     C
C      0.46126  0.12766  0.22019     C
H     0.464983 0.147631 0.823305     H
H     0.465603   0.8441 0.101784     H
H     0.471859 0.780043 0.149684     H
H     0.475651 0.756814 0.668331     H
H     0.477746 0.731244  0.90796     H
H     0.478066 0.503933 0.173334     H
H     0.480964 0.349314 0.843362     H
C     0.4866216  0.50213  0.30755     C
N      0.48923  0.17593  0.11437     N
H     0.489233 0.288169 0.768451     H
N      0.49083  0.64672  0.44767     N
C      0.49197  0.66385 0.241413     C
C      0.49488  0.82527 0.091913     C
H     0.496067 0.974133 0.173333     H
C      0.49793 0.9844916  0.30745     C
C      0.49847  0.23316 0.197515     C
C      0.50167  0.76694 0.802515     C
C      0.50213 0.0155016  0.69255     C
H     0.503933 0.025866 0.826666     H
C      0.50527  0.17489 0.908113     C
C      0.50815  0.33625 0.758613     C
N      0.50923  0.35332  0.55247     N
H     0.510767 0.711831 0.231549     H
N      0.51083  0.82413  0.88577     N
C     0.5133716  0.49793  0.69265     C
H     0.519035 0.650686 0.156638     H
H     0.521933 0.496067 0.826667     H
H     0.522254 0.268756  0.09204     H
H     0.524349 0.243186 0.331669     H
H     0.528141 0.219957 0.850316     H
H     0.534397   0.1559 0.898216     H
H     0.535016 0.852368 0.176695     H
C      0.53886  0.87246  0.77999     C
C      0.53916  0.66704  0.55349     C
C     0.5407716  0.54703  0.38215     C
O      0.54223 0.6537116  0.72175     O
H      0.54459 0.770998 0.770591     H
C      0.54513 0.9896416  0.41905     C
C      0.54703 0.0062716  0.61795     C
H     0.548401 0.914079 0.849621     H
H      0.55329 0.358482 0.816351     H
O      0.55513  0.87553  0.61165     O
C     0.5554416  0.54513  0.58105     C
H     0.559742 0.122077 0.437258     H
O     0.5621911 0.5938617  0.07114     O
H     0.562335 0.440258 0.437258     H
C      0.56646  0.40135 0.469215     C
H     0.576519 0.385503 0.334998     H
C     0.5793916  0.59673  0.24515     C
H     0.580746 0.699012 0.483712     H
O     0.5849416 0.9781111  0.33264     O
H     0.586832 0.188921 0.574627     H
O     0.5938617 0.0316613  0.92894     O
C      0.59673 0.0173316  0.75495     C
C      0.59875  0.16517 0.469215     C
H     0.602089 0.413168 0.574627     H
O      0.60682 0.5849416  0.66744     O
Mg    0.613413 0.64890317 0.853776    Mg
Mg    0.613414 0.64890317 0.853776    Mg
Mg    0.61341418 0.64890317 0.853776    Mg
Mg    0.61341418 0.648904 0.853776    Mg
H     0.614497 0.191016 0.334998     H
H     0.621502 0.465603 0.898216     H
O     0.6273911 0.6395317  0.31014     O
Mg    0.631183 0.94674718 0.479566    Mg
Mg    0.631183 0.94674818 0.479576    Mg
Mg    0.631183 0.946754 0.479566    Mg
H     0.634321 0.548401 0.150379     H
O     0.6350013 0.8955311  0.26234     O
O     0.6395216 0.0121412  0.69004     O
H       0.6408   0.8114     0.16     H
H     0.641518 0.194808 0.816351     H
O     0.6447811 0.7265111  0.00074     O
N      0.64672  0.15593  0.55247     N
Mg    0.64890317 0.035493 0.146236    Mg
Mg    0.648904 0.035493 0.146236    Mg
C     0.6493316 0.9127316  0.08835     C
H     0.650686  0.13165 0.843362     H
C     0.6511616 0.8199616  0.02595     C
O     0.6537116  0.11163  0.27835     O
O     0.6545312  0.96072  0.02334     O
C     0.6563116 0.7778916  0.91435     C
C     0.6603916 0.8741116  0.95135     C
C      0.66385  0.17198 0.758613     C
C      0.66634  0.53886  0.22019     C
C      0.66704  0.12796  0.44669     C
C      0.66955  0.49488 0.908113     C
C     0.6729416 0.7925616  0.71545     C
C     0.6770216 0.8887816  0.75245     C
O     0.6788012  0.70592  0.64344     O
O     0.6796216  0.55513  0.38845     O
C     0.6821716 0.8467116  0.64085     C
H     0.682647 0.535016 0.823305     H
C     0.6840016 0.7539416  0.57845     C
Mg    0.68443017 0.631183 0.520446    Mg
Mg    0.68443117 0.631183 0.520436    Mg
Mg    0.684434 0.631183 0.520436    Mg
Mg    0.684434 0.631183 0.520446    Mg
N      0.68662  0.51083  0.11437     N
O      0.68852 0.9401511  0.66594     O
H     0.691815 0.471859 0.850316     H
H     0.692533 0.855267 0.506667     H
O     0.6938017 0.6545312  0.97674     O
O      0.69833 0.7711411  0.40444     O
H     0.699012 0.118265 0.516288     H
Mg    0.702153 0.71991918 0.187106    Mg
Mg    0.702163 0.71991918 0.187106    Mg
Mg    0.702163 0.71992018 0.187116    Mg
Mg    0.702163 0.719924 0.187106    Mg
Mg    0.702163 0.719924 0.187116    Mg
O      0.70592 0.0271416  0.35664     O
H     0.711831 0.201064 0.768451     H
H     0.718836 0.475651 0.331669     H
Mg    0.71991918 0.017764 0.812906    Mg
Mg    0.71991918 0.01776417 0.812906    Mg
Mg    0.71992018 0.017764 0.812896    Mg
Mg    0.719923 0.01776417 0.812906    Mg
Mg    0.719924 0.01776317 0.812896    Mg
O     0.7265111 0.0817216  0.99934     O
H     0.731244 0.253499  0.09204     H
C      0.73465  0.50167 0.197515     C
C      0.73663 0.6493316  0.91175     C
O     0.7394717 0.6350113  0.73784     O
H     0.746501 0.477746  0.09204     H
O     0.7483916  0.68852  0.33414     O
H     0.752586 0.967655 0.182955     H
C     0.7539416  0.06993  0.42165     C
H     0.756814 0.281164 0.331669     H
C      0.76696  0.26545 0.197515     C
H     0.770998 0.226409 0.229409     H
O      0.77113 0.0728117  0.59564     O
H     0.773591  0.54459 0.229409     H
C     0.7778916  0.12163  0.08575     C
O      0.77823  0.79123  0.05505     O
H     0.780043 0.308185 0.850316     H
H     0.784932 0.752586 0.817045     H
C      0.78633 0.6603916  0.04875     C
C      0.78823 0.6770216  0.24765     C
H     0.788744 0.895668 0.896075     H
O      0.79123 0.0129616  0.94505     O
C     0.7925616  0.11963  0.28465     C
C      0.79426  0.99974  0.11339     C
C      0.79466  0.79426  0.88679     C
H     0.798317 0.814297 0.489971     H
H     0.798936 0.510767 0.768451     H
H     0.805192  0.44671 0.816351     H
H     0.808984 0.423481 0.334998     H
H     0.811079 0.397911 0.574627     H
H       0.8114 0.170599     0.84     H
H     0.814297 0.015981 0.510029     H
C     0.8199616  0.16883  0.97415     C
H     0.822566 0.954836 0.435118     H
N      0.82263  0.84252  0.78097     N
N      0.82413  0.31342  0.11437     N
C      0.82527  0.33055 0.908113     C
C      0.82817  0.49199 0.758613     C
H       0.8294   0.6408     0.84     H
C      0.83123 0.6511616  0.97415     C
C      0.83187  0.89974 0.864115     C
C      0.83497  0.43366 0.469215     C
C      0.83553 0.6821716  0.35925     C
H     0.837266 0.692533 0.493333     H
C      0.83867  0.84149 0.574713     C
C      0.84145  0.00295 0.425313     C
N      0.84252  0.02002  0.21917     N
H       0.8441 0.378498 0.898216     H
N      0.84413  0.49083  0.55247     N
C     0.8467116  0.16453  0.35925     C
H     0.852368 0.317353 0.823305     H
H     0.855267 0.162733 0.493333     H
H     0.855588 0.935422 0.758706     H
H     0.857683 0.909852 0.998335     H
H     0.861475 0.886623 0.516982     H
H     0.867731 0.822566 0.564882     H
H     0.868349 0.519035 0.843362     H
C      0.87216  0.53916  0.44669     C
C      0.87246  0.33374  0.22019     C
C     0.8741116  0.21373  0.04875     C
O      0.87553 0.3203816  0.38845     O
H     0.877923 0.437665 0.437258     H
C      0.87843 0.6563116  0.08575     C
C      0.88043 0.6729416  0.28465     C
H     0.881734 0.580746 0.516288     H
H     0.886623 0.025149 0.483018     H
O      0.88843  0.54223  0.27835     O
C     0.8887816  0.21183  0.24765     C
H     0.893075 0.788744 0.103925     H
O     0.8955211 0.2605317  0.73784     O
H     0.895668 0.106925 0.103925     H
C      0.89974  0.06805 0.135915     C
H     0.909852  0.05217 0.001665     H
C     0.9127316  0.26343  0.91175     C
H     0.914079 0.365679 0.150379     H
O     0.9182716 0.6447811  0.99934     O
H     0.920165 0.855588 0.241294     H
O     0.9271917  0.69833  0.59564     O
C      0.93013 0.6840016  0.42165     C
C      0.93205  0.83187 0.135915     C
H     0.935422 0.079835 0.241294     H
O     0.9401511 0.2516116  0.33414     O
Mg    0.94674718 0.31557017 0.520446    Mg
Mg    0.94674718 0.315574 0.520446    Mg
Mg    0.94674818 0.31556917 0.520436    Mg
Mg    0.94674818 0.315574 0.520436    Mg
Mg    0.946754 0.31557017 0.520446    Mg
H      0.94783 0.857683 0.001665     H
H     0.954836 0.132269 0.564882     H
O      0.96072 0.3061916  0.97674     O
Mg    0.964513 0.613413 0.146236    Mg
Mg    0.964513 0.613414 0.146236    Mg
Mg    0.964513 0.61341418 0.146236    Mg
H     0.967655 0.215067 0.817045     H
O      0.96833 0.5621911  0.92894     O
O     0.9728616 0.6788012  0.35664     O
H     0.974133 0.478067 0.826667     H
H     0.974851 0.861475 0.483018     H
O     0.9781111 0.3931811  0.66744     O
N      0.98002  0.82263  0.21917     N
Mg    0.98223617 0.702153 0.812906    Mg
Mg    0.98223617 0.702163 0.812906    Mg
Mg    0.98223717 0.702163 0.812896    Mg
Mg    0.982244 0.702163 0.812896    Mg
Mg    0.982244 0.702163 0.812906    Mg
C     0.9826616 0.5794016  0.75505     C
H     0.984019 0.798317 0.510029     H
C     0.9844916 0.4866316  0.69265     C
O     0.9870416  0.77823  0.94505     O
O     0.9878612 0.6274011  0.69004     O
C     0.9896416 0.4445616  0.58105     C
C     0.9937216 0.5407816  0.61805     C
C      0.99715  0.83868 0.425313     C
C      0.99974  0.20546  0.88679     C
