data_I
_chemical_name_common  '/home/zhangsd/repos/MofS-CGCNN/ML/data/WS24/clean_cifs/MIFMIZ'
_cell_length_a  6.28360
_cell_length_b 10.73200
_cell_length_c 14.35600
_cell_angle_alpha 95.44100
_cell_angle_beta  98.94100
_cell_angle_gamma 103.44800
_space_group_name_H-M_alt      'P 1'


loop_
_space_group_symop_operation_xyz
  'x, y, z' 

loop_
_atom_site_label
_atom_site_fract_x
_atom_site_fract_y
_atom_site_fract_z
_atom_site_type_symbol
H       0.0138   0.3822   0.2461     H
O       0.0248   0.8365   0.0382     O
C       0.0387   0.5583    0.418     C
C       0.0609   0.2885   0.8052     C
C       0.0749   0.3922   0.5173     C
C       0.0805   0.6278   0.3355     C
C       0.0961   0.3537   0.7281     C
C       0.1139   0.4472   0.4352     C
C       0.1402   0.3537   0.2717     C
C       0.1556   0.7601   0.1799     C
H       0.1775   0.2651   0.1456     H
H       0.1839   0.2768    0.848     H
O       0.1859   0.9806  0.92142     O
C       0.1929   0.8259   0.0944     C
C       0.2259   0.3824   0.3688     C
C       0.2373    0.284   0.2118     C
H        0.244   0.3864   0.7186     H
C       0.2969   0.6778   0.3208     C
O       0.3151   0.8768   0.7751     O
C       0.3352   0.7435   0.2442     C
H       0.3594   0.7539     0.63     H
O       0.3911   0.8665   0.0839     O
C        0.414   0.3408   0.4035     C
H       0.4195   0.6664    0.364     H
C       0.4215   0.2418   0.2484     C
O       0.4408   0.1369  0.09791     O
H       0.4759   0.3605   0.4695     H
C       0.4828   0.8369   0.8159     C
H       0.4832   0.7773   0.2353     H
C       0.4884   0.7275   0.6552     C
Ni         0.5      0.0      0.0    Ni
C       0.5116   0.2725   0.3448     C
H       0.5168   0.2227   0.7647     H
C       0.5172   0.1631   0.1841     C
H       0.5241   0.6395   0.5305     H
O       0.5592   0.8631  0.90209     O
C       0.5785   0.7582   0.7516     C
H       0.5805   0.3336    0.636     H
C        0.586   0.6592   0.5965     C
O       0.6089   0.1335   0.9161     O
H       0.6406   0.2461     0.37     H
C       0.6648   0.2565   0.7558     C
O       0.6849   0.1232   0.2249     O
C       0.7031   0.3222   0.6792     C
H        0.756   0.6136   0.2814     H
C       0.7627    0.716   0.7882     C
C       0.7741   0.6176   0.6312     C
C       0.8071   0.1741   0.9056     C
O       0.8141   0.0194  0.07858     O
H       0.8161   0.7232    0.152     H
H       0.8225   0.7349   0.8544     H
C       0.8444   0.2399   0.8201     C
C       0.8598   0.6463   0.7283     C
C       0.8861   0.5528   0.5648     C
C       0.9039   0.6463   0.2719     C
C       0.9195   0.3722   0.6645     C
C       0.9251   0.6078   0.4827     C
C       0.9391   0.7115   0.1948     C
C       0.9613   0.4417    0.582     C
O       0.9752   0.1635   0.9618     O
H       0.9862   0.6178   0.7539     H
