data_I
_chemical_name_common  '/home/zhangsd/repos/MofS-CGCNN/ML/data/WS24/clean_cifs/MIFPUO'
_cell_length_a 13.84600
_cell_length_b 16.95400
_cell_length_c 16.95400
_cell_angle_alpha 120.00000
_cell_angle_beta  90.00000
_cell_angle_gamma 90.00000
_space_group_name_H-M_alt      'P 1'


loop_
_space_group_symop_operation_xyz
  'x, y, z' 

loop_
_atom_site_label
_atom_site_fract_x
_atom_site_fract_y
_atom_site_fract_z
_atom_site_type_symbol
N      0.01594  0.22807   0.6669     N
N      0.01594   0.3331  0.56117     N
N      0.01594  0.43883  0.77193     N
C        0.021   0.3443   0.0236     C
C        0.021   0.6793   0.6557     C
C        0.021   0.9764   0.3207     C
C       0.0254   0.4342   0.0934     C
C       0.0254   0.6592   0.5658     C
C       0.0254   0.9066   0.3408     C
C       0.0385   0.1684  0.69864     C
C       0.0385  0.30136  0.46976     C
C       0.0385  0.53024   0.8316     C
C       0.0505   0.0299   0.7395     C
C       0.0505   0.2605   0.2904     C
C       0.0505   0.7096   0.9701     C
H       0.0553   0.2451   0.2296     H
H       0.0553   0.7704   0.0155     H
H       0.0553   0.9845   0.7549     H
C      0.05757  0.57878   0.1906     C
C      0.05757  0.61182  0.42122     C
C      0.05757   0.8094  0.38818     C
H       0.0639   0.0251   0.3464     H
H       0.0639   0.3213   0.9749     H
H       0.0639   0.6536   0.6787     H
N      0.08583  0.50599  0.10945     N
N      0.08583  0.60346  0.49401     N
N      0.08583  0.89055  0.39654     N
H       0.0876   0.5813   0.3646     H
H       0.0876   0.6354   0.2167     H
H       0.0876   0.7833   0.4187     H
Ni     0.10173  0.33333  0.66666    Ni
C       0.1102   0.1738   0.7591     C
C       0.1102   0.2409   0.4147     C
C       0.1102   0.5853   0.8262     C
H        0.112   0.0668   0.4947     H
H        0.112   0.4279   0.9332     H
H        0.112   0.5053   0.5721     H
C       0.1155   0.1031   0.7777     C
C       0.1155   0.2223   0.3254     C
C       0.1155   0.6746   0.8969     C
H       0.1526   0.2143   0.4371     H
H       0.1526   0.2228   0.7857     H
H       0.1526   0.5629   0.7772     H
H       0.1636   0.1042   0.8165     H
H       0.1636   0.1835   0.2877     H
H       0.1636   0.7123   0.8958     H
C       0.1673  0.03534  0.49398     C
C       0.1673  0.45864  0.96466     C
C       0.1673  0.50602  0.54136     C
C      0.16885   0.5048  0.05853     C
C      0.16885  0.55373   0.4952     C
C      0.16885  0.94147  0.44627     C
O      0.18064  0.22311  0.57642     O
O      0.18064  0.35331  0.77689     O
O      0.18064  0.42358  0.64669     O
C         0.25   0.0824   0.5412     C
C         0.25   0.1848   0.5924     C
C         0.25   0.4076   0.5924     C
C         0.25   0.4076   0.8152     C
C         0.25   0.4588   0.5412     C
C         0.25   0.4588   0.9176     C
C         0.25   0.5534   0.1068     C
C         0.25   0.5534   0.4466     C
H         0.25  0.58505   0.1701     H
H         0.25  0.58505  0.41495     H
H         0.25   0.8299  0.41495     H
C         0.25   0.8932   0.4466     C
O      0.31936  0.22311  0.64669     O
O      0.31936  0.35331  0.57642     O
O      0.31936  0.42358  0.77689     O
C      0.33115   0.5048  0.44627     C
C      0.33115  0.55373  0.05853     C
C      0.33115  0.94147   0.4952     C
C       0.3327  0.03534  0.54136     C
C       0.3327  0.45864  0.49398     C
C       0.3327  0.50602  0.96466     C
H       0.3364   0.1042   0.2877     H
H       0.3364   0.1835   0.8958     H
H       0.3364   0.7123   0.8165     H
H       0.3474   0.2143   0.7772     H
H       0.3474   0.2228   0.4371     H
H       0.3474   0.5629   0.7857     H
C       0.3845   0.1031   0.3254     C
C       0.3845   0.2223   0.8969     C
C       0.3845   0.6746   0.7777     C
H        0.388   0.0668   0.5721     H
H        0.388   0.4279   0.4947     H
H        0.388   0.5053   0.9332     H
C       0.3898   0.1738   0.4147     C
C       0.3898   0.2409   0.8262     C
C       0.3898   0.5853   0.7591     C
Ni     0.39827  0.33333  0.66666    Ni
H       0.4124   0.5813   0.2167     H
H       0.4124   0.6354   0.4187     H
H       0.4124   0.7833   0.3646     H
N      0.41417  0.50599  0.39654     N
N      0.41417  0.60346  0.10945     N
N      0.41417  0.89055  0.49401     N
H       0.4361   0.0251   0.6787     H
H       0.4361   0.3213   0.3464     H
H       0.4361   0.6536   0.9749     H
C      0.44243  0.57878  0.38818     C
C      0.44243  0.61182   0.1906     C
C      0.44243   0.8094  0.42122     C
H       0.4447   0.2451   0.0155     H
H       0.4447   0.7704   0.7549     H
H       0.4447   0.9845   0.2296     H
C       0.4495   0.0299   0.2904     C
C       0.4495   0.2605   0.9701     C
C       0.4495   0.7096   0.7395     C
C       0.4615   0.1684  0.46976     C
C       0.4615  0.30136   0.8316     C
C       0.4615  0.53024  0.69864     C
C       0.4746   0.4342   0.3408     C
C       0.4746   0.6592   0.0934     C
C       0.4746   0.9066   0.5658     C
C        0.479   0.3443   0.3207     C
C        0.479   0.6793   0.0236     C
C        0.479   0.9764   0.6557     C
N      0.48406  0.22807  0.56117     N
N      0.48406   0.3331  0.77193     N
N      0.48406  0.43883   0.6669     N
N      0.51594  0.56117   0.3331     N
N      0.51594   0.6669  0.22807     N
N      0.51594  0.77193  0.43883     N
C        0.521   0.0236   0.3443     C
C        0.521   0.3207   0.9764     C
C        0.521   0.6557   0.6793     C
C       0.5254   0.0934   0.4342     C
C       0.5254   0.3408   0.9066     C
C       0.5254   0.5658   0.6592     C
C       0.5385  0.46976  0.30136     C
C       0.5385  0.69864   0.1684     C
C       0.5385   0.8316  0.53024     C
C       0.5505   0.2904   0.2605     C
C       0.5505   0.7395   0.0299     C
C       0.5505   0.9701   0.7096     C
H       0.5553   0.0155   0.7704     H
H       0.5553   0.2296   0.2451     H
H       0.5553   0.7549   0.9845     H
C      0.55757   0.1906  0.57878     C
C      0.55757  0.38818   0.8094     C
C      0.55757  0.42122  0.61182     C
H       0.5639   0.3464   0.0251     H
H       0.5639   0.6787   0.6536     H
H       0.5639   0.9749   0.3213     H
N      0.58583  0.10945  0.50599     N
N      0.58583  0.39654  0.89055     N
N      0.58583  0.49401  0.60346     N
H       0.5876   0.2167   0.6354     H
H       0.5876   0.3646   0.5813     H
H       0.5876   0.4187   0.7833     H
Ni     0.60173  0.66667  0.33334    Ni
C       0.6102   0.4147   0.2409     C
C       0.6102   0.7591   0.1738     C
C       0.6102   0.8262   0.5853     C
H        0.612   0.4947   0.0668     H
H        0.612   0.5721   0.5053     H
H        0.612   0.9332   0.4279     H
C       0.6155   0.3254   0.2223     C
C       0.6155   0.7777   0.1031     C
C       0.6155   0.8969   0.6746     C
H       0.6526   0.4371   0.2143     H
H       0.6526   0.7772   0.5629     H
H       0.6526   0.7857   0.2228     H
H       0.6636   0.2877   0.1835     H
H       0.6636   0.8165   0.1042     H
H       0.6636   0.8958   0.7123     H
C       0.6673  0.49398  0.03534     C
C       0.6673  0.54136  0.50602     C
C       0.6673  0.96466  0.45864     C
C      0.66885  0.05853   0.5048     C
C      0.66885  0.44627  0.94147     C
C      0.66885   0.4952  0.55373     C
O      0.68064  0.57642  0.22311     O
O      0.68064  0.64669  0.42358     O
O      0.68064  0.77689  0.35331     O
C         0.75   0.1068   0.5534     C
H         0.75   0.1701  0.58505     H
H         0.75  0.41495  0.58505     H
H         0.75  0.41495   0.8299     H
C         0.75   0.4466   0.5534     C
C         0.75   0.4466   0.8932     C
C         0.75   0.5412   0.0824     C
C         0.75   0.5412   0.4588     C
C         0.75   0.5924   0.1848     C
C         0.75   0.5924   0.4076     C
C         0.75   0.8152   0.4076     C
C         0.75   0.9176   0.4588     C
O      0.81936  0.57642  0.35331     O
O      0.81936  0.64669  0.22311     O
O      0.81936  0.77689  0.42358     O
C      0.83115  0.05853  0.55373     C
C      0.83115  0.44627   0.5048     C
C      0.83115   0.4952  0.94147     C
C       0.8327  0.49398  0.45864     C
C       0.8327  0.54136  0.03534     C
C       0.8327  0.96466  0.50602     C
H       0.8364   0.2877   0.1042     H
H       0.8364   0.8165   0.7123     H
H       0.8364   0.8958   0.1835     H
H       0.8474   0.4371   0.2228     H
H       0.8474   0.7772   0.2143     H
H       0.8474   0.7857   0.5629     H
C       0.8845   0.3254   0.1031     C
C       0.8845   0.7777   0.6746     C
C       0.8845   0.8969   0.2223     C
H        0.888   0.4947   0.4279     H
H        0.888   0.5721   0.0668     H
H        0.888   0.9332   0.5053     H
C       0.8898   0.4147   0.1738     C
C       0.8898   0.7591   0.5853     C
C       0.8898   0.8262   0.2409     C
Ni     0.89827  0.66667  0.33334    Ni
H       0.9124   0.2167   0.5813     H
H       0.9124   0.3646   0.7833     H
H       0.9124   0.4187   0.6354     H
N      0.91417  0.10945  0.60346     N
N      0.91417  0.39654  0.50599     N
N      0.91417  0.49401  0.89055     N
H       0.9361   0.3464   0.3213     H
H       0.9361   0.6787   0.0251     H
H       0.9361   0.9749   0.6536     H
C      0.94243   0.1906  0.61182     C
C      0.94243  0.38818  0.57878     C
C      0.94243  0.42122   0.8094     C
H       0.9447   0.0155   0.2451     H
H       0.9447   0.2296   0.9845     H
H       0.9447   0.7549   0.7704     H
C       0.9495   0.2904   0.0299     C
C       0.9495   0.7395   0.7096     C
C       0.9495   0.9701   0.2605     C
C       0.9615  0.46976   0.1684     C
C       0.9615  0.69864  0.53024     C
C       0.9615   0.8316  0.30136     C
C       0.9746   0.0934   0.6592     C
C       0.9746   0.3408   0.4342     C
C       0.9746   0.5658   0.9066     C
C        0.979   0.0236   0.6793     C
C        0.979   0.3207   0.3443     C
C        0.979   0.6557   0.9764     C
N      0.98406  0.56117  0.22807     N
N      0.98406   0.6669  0.43883     N
N      0.98406  0.77193   0.3331     N
