data_I
_chemical_name_common  '/home/zhangsd/repos/MofS-CGCNN/ML/data/WS24/clean_cifs/mil-140d'
_cell_length_a 34.86130
_cell_length_b 17.47950
_cell_length_c  7.85980
_cell_angle_alpha 90.00000
_cell_angle_beta  90.27000
_cell_angle_gamma 90.00000
_space_group_name_H-M_alt      'P 1'


loop_
_space_group_symop_operation_xyz
  'x, y, z' 

loop_
_atom_site_label
_atom_site_fract_x
_atom_site_fract_y
_atom_site_fract_z
_atom_site_type_symbol
C       0.0046   0.3442   0.0119     C
C       0.0046   0.6558   0.5119     C
C       0.0068   0.2591   0.0132     C
C       0.0068   0.7409   0.5132     C
C       0.0102   0.0993   0.0151     C
C       0.0102   0.9007   0.5151     C
N       0.0148    0.019   0.0225     N
N       0.0148    0.981   0.5225     N
C       0.0222   0.1365   0.5545     C
C       0.0222   0.8635   0.0545     C
O        0.023   0.3744   0.5741     O
O        0.023   0.4971   0.3697     O
O        0.023   0.5029   0.8697     O
O        0.023   0.6256   0.0741     O
C       0.0235   0.2157   0.5565     C
C       0.0235   0.7843   0.0565     C
O         0.03   0.3815   0.0954     O
O         0.03   0.6185   0.5954     O
C       0.0388   0.2219   0.0835     C
C       0.0388   0.7781   0.5835     C
Zr      0.0391   0.4934   0.6209    Zr
Zr      0.0391   0.5066   0.1209    Zr
C       0.0406   0.1424    0.083     C
C       0.0406   0.8576    0.583     C
H       0.0455   0.1019   0.6086     H
H       0.0455   0.8981   0.1086     H
H       0.0621   0.2563   0.1379     H
H       0.0621   0.7437   0.6379     H
Cl     0.06424  0.25573  0.65073    Cl
Cl     0.06424  0.74427  0.15073    Cl
H       0.0654   0.1118   0.1364     H
H       0.0654   0.8882   0.6364     H
O       0.0862   0.4252   0.7434     O
O       0.0862   0.5748   0.2434     O
O       0.0936   0.4646   0.0171     O
O       0.0936   0.5354   0.5171     O
C       0.1036   0.4256   0.8861     C
C       0.1036   0.5744   0.3861     C
H       0.1305   0.3216   0.6612     H
H       0.1305   0.6784   0.1612     H
C       0.1391   0.3784   0.9023     C
C       0.1391   0.6216   0.4023     C
C       0.1492    0.327   0.7731     C
C       0.1492    0.673   0.2731     C
Cl     0.15302  0.44881  0.21454    Cl
Cl     0.15302  0.55119  0.71454    Cl
C       0.1628   0.3865   0.0468     C
C       0.1628   0.6135   0.5468     C
C       0.1827    0.284   0.7884     C
C       0.1827    0.716   0.2884     C
H       0.1913    0.243   0.6899     H
H       0.1913    0.757   0.1899     H
C       0.1964   0.3445   0.0617     C
C       0.1964   0.6555   0.5617     C
C       0.2064   0.2928    0.932     C
C       0.2064   0.7072    0.432     C
H       0.2154   0.3507   0.1722     H
H       0.2154   0.6493   0.6722     H
N       0.2399   0.2471   0.9334     N
N       0.2399   0.7529   0.4334     N
N        0.261   0.2556   0.0642     N
N        0.261   0.7444   0.5642     N
H       0.2854   0.1519   0.8254     H
H       0.2854   0.8481   0.3254     H
C       0.2944   0.2097   0.0658     C
C       0.2944   0.7903   0.5658     C
C       0.3044   0.1578   0.9362     C
C       0.3044   0.8422   0.4362     C
H       0.3096   0.2592   0.3081     H
H       0.3096   0.7408   0.8081     H
C       0.3181   0.2181   0.2096     C
C       0.3181   0.7819   0.7096     C
C       0.3377   0.1152   0.9517     C
C       0.3377   0.8848   0.4517     C
Cl     0.34738  0.05275   0.7841    Cl
Cl     0.34738  0.94725   0.2841    Cl
C       0.3513   0.1745   0.2255     C
C       0.3513   0.8255   0.7255     C
C       0.3613   0.1229   0.0966     C
C       0.3613   0.8771   0.5966     C
H       0.3699   0.1796   0.3378     H
H       0.3699   0.8204   0.8378     H
C       0.3965   0.0749   0.1135     C
C       0.3965   0.9251   0.6135     C
O       0.4065   0.0357   0.9826     O
O       0.4065   0.9643   0.4826     O
O       0.4138   0.0748   0.2566     O
O       0.4138   0.9252   0.7566     O
H       0.4349   0.3884   0.8624     H
H       0.4349   0.6116   0.3624     H
Cl     0.43592  0.24435   0.3486    Cl
Cl     0.43592  0.75565   0.8486    Cl
H        0.438   0.2439   0.8614     H
H        0.438   0.7561   0.3614     H
H       0.4548   0.3981   0.3902     H
H       0.4548   0.6019   0.8902     H
C       0.4596   0.3577   0.9159     C
C       0.4596   0.6423   0.4159     C
Zr      0.4609   0.0065   0.3791    Zr
Zr      0.4609   0.9935   0.8791    Zr
C       0.4614   0.2782   0.9157     C
C       0.4614   0.7218   0.4157     C
O       0.4701   0.1186    0.904     O
O       0.4701   0.8814    0.404     O
C       0.4767   0.2843   0.4426     C
C       0.4767   0.7157   0.9426     C
O        0.477   0.0028   0.6302     O
O        0.477   0.9972   0.1302     O
O       0.4771   0.1255   0.4254     O
O       0.4771   0.8745   0.9254     O
C       0.4781   0.3635   0.4443     C
C       0.4781   0.6365   0.9443     C
N       0.4855   0.4811   0.9762     N
N       0.4855   0.5189   0.4762     N
C       0.4901   0.4008   0.9836     C
C       0.4901   0.5992   0.4836     C
C       0.4934    0.241    0.986     C
C       0.4934    0.759    0.486     C
C       0.4955   0.1559   0.9875     C
C       0.4955   0.8441   0.4875     C
C       0.5046   0.1558   0.5119     C
C       0.5046   0.8442   0.0119     C
C       0.5068   0.2409   0.5132     C
C       0.5068   0.7591   0.0132     C
C       0.5102   0.4007   0.5151     C
C       0.5102   0.5993   0.0151     C
N       0.5148    0.481   0.5225     N
N       0.5148    0.519   0.0225     N
C       0.5222   0.3635   0.0545     C
C       0.5222   0.6365   0.5545     C
O        0.523   0.0029   0.8697     O
O        0.523   0.1256   0.0741     O
O        0.523   0.8744   0.5741     O
O        0.523   0.9971   0.3697     O
C       0.5235   0.2843   0.0565     C
C       0.5235   0.7157   0.5565     C
O         0.53   0.1185   0.5954     O
O         0.53   0.8815   0.0954     O
C       0.5388   0.2781   0.5835     C
C       0.5388   0.7219   0.0835     C
Zr      0.5391   0.0066   0.1209    Zr
Zr      0.5391   0.9934   0.6209    Zr
C       0.5406   0.3576    0.583     C
C       0.5406   0.6424    0.083     C
H       0.5455   0.3981   0.1086     H
H       0.5455   0.6019   0.6086     H
H       0.5621   0.2437   0.6379     H
H       0.5621   0.7563   0.1379     H
Cl     0.56424  0.24427  0.15073    Cl
Cl     0.56424  0.75573  0.65073    Cl
H       0.5654   0.3882   0.6364     H
H       0.5654   0.6118   0.1364     H
O       0.5862   0.0748   0.2434     O
O       0.5862   0.9252   0.7434     O
O       0.5936   0.0354   0.5171     O
O       0.5936   0.9646   0.0171     O
C       0.6036   0.0744   0.3861     C
C       0.6036   0.9256   0.8861     C
H       0.6305   0.1784   0.1612     H
H       0.6305   0.8216   0.6612     H
C       0.6391   0.1216   0.4023     C
C       0.6391   0.8784   0.9023     C
C       0.6492    0.173   0.2731     C
C       0.6492    0.827   0.7731     C
Cl     0.65302  0.05119  0.71454    Cl
Cl     0.65302  0.94881  0.21454    Cl
C       0.6628   0.1135   0.5468     C
C       0.6628   0.8865   0.0468     C
C       0.6827    0.216   0.2884     C
C       0.6827    0.784   0.7884     C
H       0.6913    0.257   0.1899     H
H       0.6913    0.743   0.6899     H
C       0.6964   0.1555   0.5617     C
C       0.6964   0.8445   0.0617     C
C       0.7064   0.2072    0.432     C
C       0.7064   0.7928    0.932     C
H       0.7154   0.1493   0.6722     H
H       0.7154   0.8507   0.1722     H
N       0.7399   0.2529   0.4334     N
N       0.7399   0.7471   0.9334     N
N        0.761   0.2444   0.5642     N
N        0.761   0.7556   0.0642     N
H       0.7854   0.3481   0.3254     H
H       0.7854   0.6519   0.8254     H
C       0.7944   0.2903   0.5658     C
C       0.7944   0.7097   0.0658     C
C       0.8044   0.3422   0.4362     C
C       0.8044   0.6578   0.9362     C
H       0.8096   0.2408   0.8081     H
H       0.8096   0.7592   0.3081     H
C       0.8181   0.2819   0.7096     C
C       0.8181   0.7181   0.2096     C
C       0.8377   0.3848   0.4517     C
C       0.8377   0.6152   0.9517     C
Cl     0.84738  0.44725   0.2841    Cl
Cl     0.84738  0.55275   0.7841    Cl
C       0.8513   0.3255   0.7255     C
C       0.8513   0.6745   0.2255     C
C       0.8613   0.3771   0.5966     C
C       0.8613   0.6229   0.0966     C
H       0.8699   0.3204   0.8378     H
H       0.8699   0.6796   0.3378     H
C       0.8965   0.4251   0.6135     C
C       0.8965   0.5749   0.1135     C
O       0.9065   0.4643   0.4826     O
O       0.9065   0.5357   0.9826     O
O       0.9138   0.4252   0.7566     O
O       0.9138   0.5748   0.2566     O
H       0.9349   0.1116   0.3624     H
H       0.9349   0.8884   0.8624     H
Cl     0.93592  0.25565   0.8486    Cl
Cl     0.93592  0.74435   0.3486    Cl
H        0.938   0.2561   0.3614     H
H        0.938   0.7439   0.8614     H
H       0.9548   0.1019   0.8902     H
H       0.9548   0.8981   0.3902     H
C       0.9596   0.1423   0.4159     C
C       0.9596   0.8577   0.9159     C
Zr      0.9609   0.4935   0.8791    Zr
Zr      0.9609   0.5065   0.3791    Zr
C       0.9614   0.2218   0.4157     C
C       0.9614   0.7782   0.9157     C
O       0.9701   0.3814    0.404     O
O       0.9701   0.6186    0.904     O
C       0.9767   0.2157   0.9426     C
C       0.9767   0.7843   0.4426     C
O        0.977   0.4972   0.1302     O
O        0.977   0.5028   0.6302     O
O       0.9771   0.3745   0.9254     O
O       0.9771   0.6255   0.4254     O
C       0.9781   0.1365   0.9443     C
C       0.9781   0.8635   0.4443     C
N       0.9855   0.0189   0.4762     N
N       0.9855   0.9811   0.9762     N
C       0.9901   0.0992   0.4836     C
C       0.9901   0.9008   0.9836     C
C       0.9934    0.259    0.486     C
C       0.9934    0.741    0.986     C
C       0.9955   0.3441   0.4875     C
C       0.9955   0.6559   0.9875     C
