data_I
_chemical_name_common  '/home/zhangsd/repos/MofS-CGCNN/ML/data/WS24/clean_cifs/mil-53-cr'
_cell_length_a 16.73301
_cell_length_b 13.03801
_cell_length_c  6.81201
_cell_angle_alpha 90.00000
_cell_angle_beta  90.00000
_cell_angle_gamma 90.00000
_space_group_name_H-M_alt      'P 1'


loop_
_space_group_symop_operation_xyz
  'x, y, z' 

loop_
_atom_site_label
_atom_site_fract_x
_atom_site_fract_y
_atom_site_fract_z
_atom_site_type_symbol
C      0.04003  0.51803  0.30403     C
C      0.04003  0.51803  0.69603     C
C      0.04003  0.98203  0.19603     C
C      0.04003  0.98203  0.80403     C
C      0.05405  0.53901      0.5     C
C      0.05405  0.96101      0.0     C
H     0.080484 0.526918     0.18     H
H     0.080484 0.526918     0.82     H
H     0.080484 0.973082     0.32     H
H     0.080484 0.973082     0.68     H
C      0.12505  0.61201      0.5     C
C      0.12505  0.88801      0.0     C
O     0.1660015 0.6570015 0.3440015     O
O     0.1660015 0.6570015 0.6560015     O
O     0.1660015 0.8430015 0.1560015     O
O     0.1660015 0.8430015 0.8440015     O
O         0.25  0.68605      0.0     O
Cr        0.25     0.75     0.25    Cr
Cr        0.25     0.75     0.75    Cr
O         0.25  0.81405      0.5     O
O     0.3340015 0.6570015 0.3440015     O
O     0.3340015 0.6570015 0.6560015     O
O     0.3340015 0.8430015 0.1560015     O
O     0.3340015 0.8430015 0.8440015     O
C      0.37505  0.61201      0.5     C
C      0.37505  0.88801      0.0     C
H     0.419516 0.526918     0.18     H
H     0.419516 0.526918     0.82     H
H     0.419516 0.973082     0.32     H
H     0.419516 0.973082     0.68     H
C      0.44605  0.53901      0.5     C
C      0.44605  0.96101      0.0     C
C      0.46003  0.51803  0.30403     C
C      0.46003  0.51803  0.69603     C
C      0.46003  0.98203  0.19603     C
C      0.46003  0.98203  0.80403     C
C         0.54    0.018    0.196     C
C         0.54    0.482    0.304     C
C      0.54003  0.01803  0.80403     C
C      0.54003  0.48203  0.69603     C
C      0.55405  0.03901      0.0     C
C      0.55405  0.46101      0.5     C
H     0.580484 0.026918     0.32     H
H     0.580484 0.026918     0.68     H
H     0.580484 0.473082     0.18     H
H     0.580484 0.473082     0.82     H
C      0.62505  0.11201      0.0     C
C      0.62505  0.38801      0.5     C
O     0.6660015 0.1570015 0.1560015     O
O     0.6660015 0.1570015 0.8440015     O
O     0.6660015 0.3430015 0.3440015     O
O     0.6660015 0.3430015 0.6560015     O
O         0.75  0.18605      0.5     O
Cr        0.75     0.25     0.25    Cr
Cr        0.75     0.25     0.75    Cr
O         0.75  0.31405      0.0     O
O     0.8340015 0.1570015 0.1560015     O
O     0.8340015 0.1570015 0.8440015     O
O     0.8340015 0.3430015 0.3440015     O
O     0.8340015 0.3430015 0.6560015     O
C      0.87505  0.11201      0.0     C
C      0.87505  0.38801      0.5     C
H     0.919516 0.026918     0.32     H
H     0.919516 0.026918     0.68     H
H     0.919516 0.473082     0.18     H
H     0.919516 0.473082     0.82     H
C      0.94605  0.03901      0.0     C
C      0.94605  0.46101      0.5     C
C         0.96    0.018    0.196     C
C         0.96    0.482    0.304     C
C      0.96003  0.01803  0.80403     C
C      0.96003  0.48203  0.69603     C
