data_I
_chemical_name_common  '/home/zhangsd/repos/MofS-CGCNN/ML/data/WS24/clean_cifs/mil-110-al'
_cell_length_a 21.52050
_cell_length_b 21.52050
_cell_length_c 13.02101
_cell_angle_alpha 90.00000
_cell_angle_beta  90.00000
_cell_angle_gamma 120.00000
_space_group_name_H-M_alt      'P 1'


loop_
_space_group_symop_operation_xyz
  'x, y, z' 

loop_
_atom_site_label
_atom_site_fract_x
_atom_site_fract_y
_atom_site_fract_z
_atom_site_type_symbol
Al    -0.17413  0.44269  0.65217    Al
Al    -0.17413  0.44269  0.84797    Al
Al    -0.17412  0.44266  0.65216    Al
Al    -0.17412  0.44266  0.84796    Al
Al    -0.17293  0.38156  0.65226    Al
Al    -0.17293  0.38156  0.84786    Al
O     -0.071785 0.478513  0.67155     O
O     -0.071785 0.478513  0.82855     O
C     -0.040583   0.4893     0.75     C
C       0.0403 0.521818     0.75     C
H     0.046435 0.532748 0.914127     H
H     0.0464535  0.53276 0.585979     H
O     0.071815 0.550314  0.17155     O
O     0.071815 0.550314  0.32855     O
C     0.075416 0.540514  0.65776     C
C     0.075416 0.540514  0.84236     C
H     0.0986977 0.430338 0.402287     H
H     0.101974 0.424057  0.14928     H
O     0.146218 0.693116 0.105014     O
O     0.146218 0.693116 0.395014     O
H     0.148152 0.452319 0.0440803     H
O     0.149614 0.458319 0.119814     O
O     0.149614 0.458319 0.380214     O
O      0.15268  0.57788  0.01894     O
O      0.15268  0.57788  0.48114     O
C       0.1533   0.5713  0.65917     C
C       0.1533   0.5713  0.84097     C
H     0.156884 0.435578 0.318512     H
Al     0.17307  0.55456  0.15226    Al
Al     0.17307  0.55456  0.34786    Al
Al     0.17307  0.55456  1.15226    Al
Al     0.17427  0.61685  0.15217    Al
Al     0.17427  0.61685  0.34797    Al
Al     0.17427  0.61685  1.15217    Al
Al     0.17428  0.61687  0.15216    Al
Al     0.17428  0.61687  0.34796    Al
Al     0.17428  0.61687  1.15216    Al
O     0.184513 0.539811  0.20811     O
O     0.184513 0.539811  0.29191     O
C       0.1872 0.587217     0.75     C
C     0.190013 0.594611  0.55657     C
C     0.190013 0.594611  0.94357     C
O     0.191313 0.641412 0.203714     O
O     0.191313 0.641412 0.296314     O
H     0.245595 0.614635 0.749973     H
O     0.257511  0.62058 -0.05655     O
O     0.257511  0.62058  0.55665     O
O     0.265813 0.676314  0.11439     O
O     0.265813 0.676314  0.38579     O
H     0.266167 0.821994 0.164174     H
O      0.26921  0.58931  0.11759     O
O      0.26921  0.58931  0.38259     O
H     0.294682  0.83899 0.453422     H
O     0.306916 0.453115 0.105014     O
O     0.306916 0.453115 0.395014     O
O     0.308713 0.850415 0.119814     O
O     0.308713 0.850415 0.380214     O
O      0.32011  0.73081  0.11759     O
O      0.32011  0.73081  0.38259     O
O     0.323714 0.589511  0.11439     O
O     0.323714 0.589511  0.38579     O
H      0.32755 0.902372 0.368128     H
H     0.327552 0.902377 0.131857     H
Al    0.333333 0.666667  0.03722    Al
Al    0.333333 0.666667  0.46282    Al
Al    0.333333 0.666667  1.03722    Al
O     0.355312 0.815513  0.20811     O
O     0.355312 0.815513  0.29191     O
O     0.358613  0.54999 0.203714     O
O     0.358613  0.54999 0.296314     O
O     0.363011 0.742511 -0.05655     O
O     0.363011 0.742511  0.55665     O
H     0.368714  0.75483 0.749973     H
O     0.379511 0.637011 -0.05655     O
O     0.379511 0.637011  0.55665     O
Al     0.38156 -0.17293  0.15226    Al
Al     0.38156 -0.17293  0.34786    Al
Al     0.38156  0.82707  0.15226    Al
Al     0.38156  0.82707  0.34786    Al
Al     0.38156  0.82707  1.15226    Al
Al     0.38325  0.55749  0.15217    Al
Al     0.38325  0.55749  0.34797    Al
Al     0.38325  0.55749  1.15217    Al
Al     0.38327  0.55746  0.15216    Al
Al     0.38327  0.55746  0.34796    Al
Al     0.38327  0.55746  1.15216    Al
H      0.38612 0.631481 0.749973     H
C     0.400215   0.8132     0.75     C
C     0.404613 0.810013  0.55657     C
C     0.404613 0.810013  0.94357     C
C     0.405411 0.595411  0.55657     C
C     0.405411 0.595411  0.94357     C
O     0.410511 0.734213  0.11439     O
O     0.410511 0.734213  0.38579     O
O      0.41071  0.67998  0.11759     O
O      0.41071  0.67998  0.38259     O
C     0.412817 0.599818     0.75     C
C     0.418618   0.8473  0.65917     C
C     0.418618   0.8473  0.84097     C
O      0.42228  0.57488  0.01894     O
O      0.42228  0.57488  0.48114     O
H     0.423974 0.106226 0.841202     H
O      0.42527  0.84749  0.01894     O
O      0.42527  0.84749  0.48114     O
C     0.428515   0.5812  0.65917     C
C     0.428515   0.5812  0.84097     C
Al     0.44266 -0.17412  0.15216    Al
Al     0.44266 -0.17412  0.34796    Al
Al     0.44266  0.82588  0.15216    Al
Al     0.44266  0.82588  0.34796    Al
Al     0.44266  0.82588  1.15216    Al
Al     0.44269 -0.17413  0.15217    Al
Al     0.44269 -0.17413  0.34797    Al
Al     0.44269  0.82587  0.15217    Al
Al     0.44269  0.82587  0.34797    Al
Al     0.44269  0.82587  1.15217    Al
Al     0.44556  0.61856  0.15226    Al
Al     0.44556  0.61856  0.34786    Al
Al     0.44556  0.61856  1.15226    Al
H     0.446393  0.13017 0.548906     H
O     0.449714 0.521513  0.17155     O
O     0.449714 0.521513  0.32855     O
H     0.449796 0.140065 0.954984     H
O     0.450113 0.808713 0.203714     O
O     0.450113 0.808713 0.296314     O
O     0.453115 0.306916 0.605014     O
O     0.453115 0.306916 0.895014     O
H      0.45421 0.193468 0.624728     H
O     0.458319 0.149614 0.619814     O
O     0.458319 0.149614 0.880214     O
C     0.459514 0.534914  0.65776     C
C     0.459514 0.534914  0.84236     C
O     0.460211 0.644712  0.20811     O
O     0.460211 0.644712  0.29191     O
C     0.465114 0.924616  0.65776     C
C     0.465114 0.924616  0.84236     C
H     0.467594 0.514063 0.585868     H
H     0.467606 0.514056 0.914237     H
C     0.470113   0.5113     0.25     C
C       0.4783   0.5183     0.75     C
O     0.478513 -0.071785  0.17155     O
O     0.478513 -0.071785  0.32855     O
C       0.4822   0.9603     0.75     C
H      0.48582 0.953452 0.585766     H
H     0.485827 0.953471 0.914339     H
C       0.4893 -0.040583     0.25     C
C     0.510713 0.470117     0.75     C
H     0.514056 0.467606 0.414237     H
H     0.514063 0.467594 0.085868     H
C       0.5183   0.4783     0.25     C
O     0.521513 0.449714  0.67155     O
O     0.521513 0.449714  0.82855     O
C     0.521818   0.0403     0.25     C
C     0.529913 1.040617     0.75     C
H     0.532748 0.046435 0.414127     H
H      0.53276 0.0464535 0.0859788     H
C     0.534914 0.459514  0.15776     C
C     0.534914 0.459514  0.34236     C
O     0.539811 0.184513  0.70811     O
O     0.539811 0.184513  0.79191     O
C     0.540514 0.075416  0.15776     C
C     0.540514 0.075416  0.34236     C
O     0.541714 0.691315 0.119814     O
O     0.541714 0.691315 0.380214     O
O      0.54691 0.853818 0.105014     O
O      0.54691 0.853818 0.395014     O
H     0.549062 0.692795  0.45566     H
H     0.549829 0.738633 0.143661     H
O     0.549916  0.35869 0.703714     O
O     0.549916  0.35869 0.796314     O
O     0.550314 0.071815  0.67155     O
O     0.550314 0.071815  0.82855     O
Al     0.55456  0.17307 -0.15214    Al
Al     0.55456  0.17307  0.65226    Al
Al     0.55456  0.17307  0.84786    Al
Al     0.55456  1.17307  0.65226    Al
Al     0.55456  1.17307  0.84786    Al
Al     0.55746  0.38327 -0.15204    Al
Al     0.55746  0.38327  0.65216    Al
Al     0.55746  0.38327  0.84796    Al
Al     0.55749  0.38325 -0.15203    Al
Al     0.55749  0.38325  0.65217    Al
Al     0.55749  0.38325  0.84797    Al
C       0.5713   0.1533  0.15917     C
C       0.5713   0.1533  0.34097     C
O      0.57488  0.42228 -0.01886     O
O      0.57488  0.42228  0.51894     O
H     0.576093 0.680232 0.345414     H
H     0.576107 0.680247 0.154603     H
O      0.57787  0.15269 -0.01886     O
O      0.57787  0.15269  0.51894     O
C       0.5812 0.428515  0.15917     C
C       0.5812 0.428515  0.34097     C
C     0.587217   0.1872     0.25     C
O      0.58931  0.26921  0.61759     O
O      0.58931  0.26921  0.88259     O
O     0.589511 0.323714  0.61439     O
O     0.589511 0.323714  0.88579     O
C     0.594612 0.190013  0.05657     C
C     0.594612 0.190013  0.44357     C
C     0.595411 0.405411  0.05656     C
C     0.595411 0.405411  0.44356     C
C     0.599818 0.412817     0.25     C
H     0.614635 0.245595 0.249973     H
Al     0.61685  0.17427 -0.15203    Al
Al     0.61685  0.17427  0.65217    Al
Al     0.61685  0.17427  0.84797    Al
Al     0.61685  1.17427  0.65217    Al
Al     0.61685  1.17427  0.84797    Al
Al     0.61687  0.17428 -0.15204    Al
Al     0.61687  0.17428  0.65216    Al
Al     0.61687  0.17428  0.84796    Al
Al     0.61687  1.17428  0.65216    Al
Al     0.61687  1.17428  0.84796    Al
Al     0.61856  0.44556 -0.15214    Al
Al     0.61856  0.44556  0.65226    Al
Al     0.61856  0.44556  0.84786    Al
O     0.620511 0.257512  0.05665     O
O     0.620511 0.257512  0.44345     O
H     0.631481  0.38612 0.249973     H
O     0.637011 0.379511  0.05665     O
O     0.637011 0.379511  0.44345     O
O     0.641412 0.191313 0.703714     O
O     0.641412 0.191313 0.796314     O
O     0.644712 0.460211  0.70811     O
O     0.644712 0.460211  0.79191     O
Al    0.666667 0.333333 -0.03718    Al
Al    0.666667 0.333333  0.53722    Al
Al    0.666667 0.333333  0.96282    Al
O     0.676314 0.265813  0.61439     O
O     0.676314 0.265813  0.88579     O
H     0.678081 0.557448  0.94425     H
O     0.679912  0.41077  0.61759     O
O     0.679912  0.41077  0.88259     O
O     0.691313  0.54178 0.619814     O
O     0.691313  0.54178 0.880214     O
O     0.693116 0.146218 0.605014     O
O     0.693116 0.146218 0.895014     O
H     0.695647 0.574242    0.677     H
O      0.73081  0.32011  0.61759     O
O      0.73081  0.32011  0.88259     O
O     0.734213 0.410511  0.61439     O
O     0.734213 0.410511  0.88579     O
H     0.737906 0.543518 0.609877     H
H     0.737906 0.543519 0.890157     H
O     0.742511 0.363011  0.05665     O
O     0.742511 0.363011  0.44345     O
H      0.75483 0.368714 0.249973     H
O     0.808713 0.450113 0.703714     O
O     0.808713 0.450113 0.796314     O
C     0.810013 0.404612  0.05657     C
C     0.810013 0.404612  0.44357     C
C       0.8132 0.400215     0.25     C
O     0.815513 0.355312  0.70811     O
O     0.815513 0.355312  0.79191     O
H     0.821974 0.266176 0.835851     H
Al     0.82587  0.44269 -0.15203    Al
Al     0.82587  0.44269  0.65217    Al
Al     0.82587  0.44269  0.84797    Al
Al     0.82588  0.44266 -0.15204    Al
Al     0.82588  0.44266  0.65216    Al
Al     0.82588  0.44266  0.84796    Al
Al     0.82707  0.38156 -0.15214    Al
Al     0.82707  0.38156  0.65226    Al
Al     0.82707  0.38156  0.84786    Al
H     0.838964 0.294694 0.546607     H
C       0.8473 0.418618  0.15917     C
C       0.8473 0.418618  0.34097     C
O      0.84748  0.42528 -0.01886     O
O      0.84748  0.42528  0.51894     O
O     0.850414 0.308715 0.619814     O
O     0.850414 0.308715 0.880214     O
O     0.853817 0.546917 0.605014     O
O     0.853817 0.546917 0.895014     O
H     0.902371 0.327552 0.868128     H
H     0.902375 0.327554 0.631856     H
C     0.924616 0.465114  0.15776     C
C     0.924616 0.465114  0.34236     C
H     0.953452  0.48582 0.085766     H
H     0.953471 0.485827 0.414339     H
C       0.9603   0.4822     0.25     C
C     1.040617 0.529913     0.25     C
Al     1.17307  0.55456  0.15226    Al
Al     1.17307  0.55456  0.34786    Al
Al     1.17427  0.61685  0.15217    Al
Al     1.17427  0.61685  0.34797    Al
Al     1.17428  0.61687  0.15216    Al
Al     1.17428  0.61687  0.34796    Al
