data_I
_chemical_name_common  '/home/zhangsd/repos/MofS-CGCNN/ML/data/WS24/clean_cifs/mil-140b'
_cell_length_a 28.15820
_cell_length_b 13.46750
_cell_length_c  7.88900
_cell_angle_alpha 90.00000
_cell_angle_beta  93.43000
_cell_angle_gamma 90.00000
_space_group_name_H-M_alt      'P 1'


loop_
_space_group_symop_operation_xyz
  'x, y, z' 

loop_
_atom_site_label
_atom_site_fract_x
_atom_site_fract_y
_atom_site_fract_z
_atom_site_type_symbol
C       0.0044   0.2971   0.5036     C
C       0.0044   0.7029   0.0036     C
C         0.01   0.1871   0.5106     C
C         0.01   0.8129   0.0106     C
C       0.0209   0.0206   0.0433     C
C       0.0209   0.9794   0.5433     C
C       0.0252   0.1249   0.0588     C
C       0.0252   0.8751   0.5588     C
O       0.0291   0.4933   0.3754     O
O       0.0291   0.5067   0.8754     O
O       0.0296   0.3353   0.0895     O
O       0.0296   0.6647   0.5895     O
O       0.0349   0.3468   0.5975     O
O       0.0349   0.6532   0.0975     O
Zr      0.0486   0.4962   0.1297    Zr
Zr      0.0486   0.5038   0.6297    Zr
C       0.0515   0.1462   0.5954     C
C       0.0515   0.8538   0.0954     C
C       0.0568    0.045   0.6103     C
C       0.0568    0.955   0.1103     C
H       0.0571   0.1573   0.1245     H
H       0.0571   0.8427   0.6245     H
H       0.0788    0.197   0.6495     H
H       0.0788    0.803   0.1495     H
H       0.0889   0.0134   0.6763     H
H       0.0889   0.9866   0.1763     H
O       0.1124   0.4251   0.0406     O
O       0.1124   0.5749   0.5406     O
O       0.1126   0.4282   0.7529     O
O       0.1126   0.5718   0.2529     O
C       0.1298   0.4023   0.8994     C
C       0.1298   0.5977   0.3994     C
C       0.1747   0.3432   0.9081     C
C       0.1747   0.6568   0.4081     C
H       0.1779   0.3361   0.6346     H
H       0.1779   0.6639   0.1346     H
H       0.1794   0.3414   0.1804     H
H       0.1794   0.6586   0.6804     H
C       0.1958   0.3149   0.7564     C
C       0.1958   0.6851   0.2564     C
C       0.1962   0.3183   0.0648     C
C       0.1962   0.6817   0.5648     C
C       0.2379   0.2626   0.7642     C
C       0.2379   0.7374   0.2642     C
C       0.2394   0.2648    0.077     C
C       0.2394   0.7352    0.577     C
H       0.2459   0.2605   0.3535     H
H       0.2459   0.7395   0.8535     H
H       0.2544   0.2404   0.6467     H
H       0.2544   0.7596   0.1467     H
C       0.2609   0.2361   0.9232     C
C       0.2609   0.7639   0.4232     C
C       0.2624   0.2384    0.236     C
C       0.2624   0.7616    0.736     C
C        0.304   0.1825   0.9354     C
C        0.304   0.8175   0.4354     C
C       0.3045   0.1859   0.2438     C
C       0.3045   0.8141   0.7438     C
H       0.3208   0.1593   0.8197     H
H       0.3208   0.8407   0.3197     H
H       0.3224   0.1646   0.3656     H
H       0.3224   0.8354   0.8656     H
C       0.3255   0.1575    0.092     C
C       0.3255   0.8425    0.592     C
C       0.3703   0.0979   0.1006     C
C       0.3703   0.9021   0.6006     C
O       0.3875   0.0718    0.247     O
O       0.3875   0.9282    0.747     O
O       0.3876    0.075   0.9594     O
O       0.3876    0.925   0.4594     O
H       0.4113   0.4866   0.3234     H
H       0.4113   0.5134   0.8234     H
H       0.4214    0.303     0.35     H
H       0.4214    0.697     0.85     H
H        0.443   0.3428   0.8754     H
H        0.443   0.6572   0.3754     H
C       0.4433   0.4551   0.3895     C
C       0.4433   0.5449   0.8895     C
C       0.4486   0.3539   0.4043     C
C       0.4486   0.6461   0.9043     C
Zr      0.4514   0.0039   0.8702    Zr
Zr      0.4514   0.9961   0.3702    Zr
O       0.4652   0.1533   0.4022     O
O       0.4652   0.8467   0.9022     O
O       0.4705   0.1647   0.9103     O
O       0.4705   0.8353   0.4103     O
O       0.4709   0.0067   0.6244     O
O       0.4709   0.9933   0.1244     O
C       0.4749   0.3751   0.9411     C
C       0.4749   0.6249   0.4411     C
C       0.4792   0.4794   0.9567     C
C       0.4792   0.5206   0.4567     C
C       0.4901   0.3129   0.4892     C
C       0.4901   0.6871   0.9892     C
C       0.4957   0.2029   0.4962     C
C       0.4957   0.7971   0.9962     C
C       0.5044   0.2029   0.0036     C
C       0.5044   0.7971   0.5036     C
C         0.51   0.3129   0.0106     C
C         0.51   0.6871   0.5106     C
C       0.5209   0.4794   0.5433     C
C       0.5209   0.5206   0.0433     C
C       0.5252   0.3751   0.5588     C
C       0.5252   0.6249   0.0588     C
O       0.5291   0.0067   0.8754     O
O       0.5291   0.9933   0.3754     O
O       0.5296   0.1647   0.5895     O
O       0.5296   0.8353   0.0895     O
O       0.5349   0.1532   0.0975     O
O       0.5349   0.8468   0.5975     O
Zr      0.5486   0.0038   0.6297    Zr
Zr      0.5486   0.9962   0.1297    Zr
C       0.5515   0.3538   0.0954     C
C       0.5515   0.6462   0.5954     C
C       0.5568    0.455   0.1103     C
C       0.5568    0.545   0.6103     C
H       0.5571   0.3427   0.6245     H
H       0.5571   0.6573   0.1245     H
H       0.5788    0.303   0.1495     H
H       0.5788    0.697   0.6495     H
H       0.5889   0.4866   0.1763     H
H       0.5889   0.5134   0.6763     H
O       0.6124   0.0749   0.5406     O
O       0.6124   0.9251   0.0406     O
O       0.6126   0.0718   0.2529     O
O       0.6126   0.9282   0.7529     O
C       0.6298   0.0977   0.3994     C
C       0.6298   0.9023   0.8994     C
C       0.6747   0.1568   0.4081     C
C       0.6747   0.8432   0.9081     C
H       0.6779   0.1639   0.1346     H
H       0.6779   0.8361   0.6346     H
H       0.6794   0.1586   0.6804     H
H       0.6794   0.8414   0.1804     H
C       0.6958   0.1851   0.2564     C
C       0.6958   0.8149   0.7564     C
C       0.6962   0.1817   0.5648     C
C       0.6962   0.8183   0.0648     C
C       0.7379   0.2374   0.2642     C
C       0.7379   0.7626   0.7642     C
C       0.7394   0.2352    0.577     C
C       0.7394   0.7648    0.077     C
H       0.7459   0.2395   0.8535     H
H       0.7459   0.7605   0.3535     H
H       0.7544   0.2596   0.1467     H
H       0.7544   0.7404   0.6467     H
C       0.7609   0.2639   0.4232     C
C       0.7609   0.7361   0.9232     C
C       0.7624   0.2616    0.736     C
C       0.7624   0.7384    0.236     C
C        0.804   0.3175   0.4354     C
C        0.804   0.6825   0.9354     C
C       0.8045   0.3141   0.7438     C
C       0.8045   0.6859   0.2438     C
H       0.8208   0.3407   0.3197     H
H       0.8208   0.6593   0.8197     H
H       0.8224   0.3354   0.8656     H
H       0.8224   0.6646   0.3656     H
C       0.8255   0.3425    0.592     C
C       0.8255   0.6575    0.092     C
C       0.8703   0.4021   0.6006     C
C       0.8703   0.5979   0.1006     C
O       0.8875   0.4282    0.747     O
O       0.8875   0.5718    0.247     O
O       0.8876    0.425   0.4594     O
O       0.8876    0.575   0.9594     O
H       0.9113   0.0134   0.8234     H
H       0.9113   0.9866   0.3234     H
H       0.9214    0.197     0.85     H
H       0.9214    0.803     0.35     H
H        0.943   0.1572   0.3754     H
H        0.943   0.8428   0.8754     H
C       0.9433   0.0449   0.8895     C
C       0.9433   0.9551   0.3895     C
C       0.9486   0.1461   0.9043     C
C       0.9486   0.8539   0.4043     C
Zr      0.9514   0.4961   0.3702    Zr
Zr      0.9514   0.5039   0.8702    Zr
O       0.9652   0.3467   0.9022     O
O       0.9652   0.6533   0.4022     O
O       0.9705   0.3353   0.4103     O
O       0.9705   0.6647   0.9103     O
O       0.9709   0.4933   0.1244     O
O       0.9709   0.5067   0.6244     O
C       0.9749   0.1249   0.4411     C
C       0.9749   0.8751   0.9411     C
C       0.9792   0.0206   0.4567     C
C       0.9792   0.9794   0.9567     C
C       0.9901   0.1871   0.9892     C
C       0.9901   0.8129   0.4892     C
C       0.9957   0.2971   0.9962     C
C       0.9957   0.7029   0.4962     C
