data_I
_chemical_name_common  '/home/zhangsd/repos/MofS-CGCNN/ML/data/WS24/clean_cifs/mil-125-nh2'
_cell_length_a 16.25464
_cell_length_b 16.25464
_cell_length_c 16.25464
_cell_angle_alpha 108.11459
_cell_angle_beta  108.11459
_cell_angle_gamma 112.21994
_space_group_name_H-M_alt      'P 1'


loop_
_space_group_symop_operation_xyz
  'x, y, z' 

loop_
_atom_site_label
_atom_site_fract_x
_atom_site_fract_y
_atom_site_fract_z
_atom_site_type_symbol
H     -0.24825719842106236 0.33569864178177483 0.8202841265873961     H
N     -0.1804797031837776 0.3677268074231495 0.82093610262191     N
H     -0.17881942334319773 0.35124865681206946 0.7557981545074006     H
C     0.0009730000000000183 0.09102700000000001  0.52438     C
C     0.0009730000000000753 0.476593 0.909946     C
H     0.0034480000000000175 0.459221 0.840711     H
H     0.0034480000000000344 0.162737 0.544227     H
C     0.036454999999999994 0.436284 0.472739     C
C     0.03645500000000003 0.563716 0.600171     C
H     0.04497359127763569 0.6727129998536492 0.7176865911312846     H
H     0.06572600000000005 0.387265 0.452991     H
N     0.07208762213992502 0.6266471792074576 0.6987348013473825     N
C     0.07328799999999995 0.49999999999999994 0.573288     C
C     0.09102699999999996 0.566647 0.09005400000000001     C
C     0.09102700000000001 0.0009730000000000183  0.52438     C
C     0.09252499999999995 0.543491      0.0     C
C     0.092525 0.09252499999999997 0.549034     C
H     0.12553880849694135 0.6270957084102564 0.7526345169071978     H
C     0.151447      0.5 0.651447     C
H     0.16273700000000002 0.003447999999999979 0.544227     H
H     0.16273700000000002  0.61851 0.159289     H
O     0.18309699999999995 0.5591159999999998 0.742213     O
O     0.18309699999999998 0.44088399999999994 0.623981     O
O     0.189439 0.272881 0.624536     O
O     0.18943900000000002 0.564903 0.916558     O
C     0.19148099999999996 0.588669      1.0     C
C     0.19148100000000004 0.191481 0.602812     C
O     0.23319300000000007 0.432344 0.8008490000000001     O
O     0.27288099999999993 0.648345 0.08344199999999999     O
O     0.272881 0.18943899999999994 0.624536     O
Ti     0.28984  0.57187  0.86171    Ti
Ti    0.28984000000000004  0.42813  0.71797    Ti
O     0.351655 0.43509699999999996 0.624536     O
O     0.351655 0.727119 0.916558     O
O     0.3685050000000001 0.567656 0.8008490000000001     O
H      0.38149 0.5407789999999999 0.544227     H
H     0.38149000000000005 0.837263 0.840711     H
H     0.38726499999999997 0.9342739999999999 0.32153899999999996     H
H     0.387265 0.06572599999999999 0.452991     H
O     0.39025499999999996 0.609745      0.0     O
O     0.3902550000000001 0.390255 0.7805100000000001     O
H     0.4045494976952158 0.9346175778503014 0.7557981545074943     H
H     0.4045494976954967 0.6487513431874555 0.46993191984490684     H
C     0.41133099999999995 0.8085189999999999      1.0     C
C     0.411331 0.411331 0.602812     C
H     0.426196 0.426196 0.852392     H
H     0.426196 0.573804      1.0     H
Ti     0.42813  0.28984  0.71797    Ti
Ti     0.42813 0.7101599999999999  0.13829    Ti
O     0.432344 0.6314949999999999 0.199151     O
O     0.43234400000000006 0.233193 0.8008490000000001     O
C     0.43335299999999993 0.523407  0.52438     C
C     0.433353 0.908973 0.909946     C
O     0.43509699999999996 0.35165499999999994 0.624536     O
O     0.43509699999999996 0.810561 0.08344199999999999     O
C     0.436284 0.036454999999999994 0.472739     C
C     0.436284 0.963545 0.39982900000000005     C
O     0.44088399999999994 0.8169029999999999 0.257787     O
O     0.44088400000000005 0.18309699999999998 0.623981     O
N     0.45320929519886344 1.001415805805686 0.8209361026223034     N
N     0.4532092951988903 0.632273192576485 0.45179348939320535     N
C     0.45650899999999994 0.9074749999999999      0.0     C
C     0.456509 0.456509 0.549034     C
C     0.476593 0.0009730000000000197 0.909946     C
C     0.476593 0.566647 0.47562000000000004     C
H     0.48458548480581165 0.6643013582176992 0.4160441597973514     H
H     0.48458548480601915 1.0685413250087517 0.8202841265883807     H
C     0.49999999999999994 0.8485529999999999 0.348553     C
C          0.5 0.07328799999999995 0.573288     C
C          0.5 0.151447 0.651447     C
C          0.5 0.926712 0.42671200000000004     C
C     0.523407 0.433353  0.52438     C
C     0.523407 0.9990270000000001 0.09005400000000001     C
H     0.5407789999999999 0.9965519999999999 0.159289     H
H     0.540779  0.38149 0.544227     H
C     0.543491 0.09252499999999998      1.0     C
C     0.543491 0.5434909999999998 0.450966     C
O     0.559116 0.8169029999999999 0.376019     O
O     0.5591160000000001 0.18309699999999998 0.742213     O
C     0.5637159999999999 0.963545 0.527261     C
C     0.563716 0.03645500000000003 0.600171     C
O     0.564903 0.18943899999999997 0.916558     O
O     0.564903 0.648345 0.37546399999999996     O
C     0.566647 0.476593 0.47562000000000004     C
C     0.5666470000000001 0.091027 0.09005400000000001     C
O     0.5676559999999999 0.7668069999999999 0.199151     O
O     0.5676560000000002 0.368505 0.8008490000000001     O
Ti     0.57187 0.28983999999999993  0.86171    Ti
Ti     0.57187  0.71016  0.28203    Ti
H     0.573804 0.573804 0.147608     H
H     0.5738040000000001 0.42619599999999996      1.0     H
C     0.588669 0.19148099999999998      0.0     C
C     0.588669 0.588669 0.397188     C
O     0.609745 0.390255      1.0     O
O     0.609745 0.6097449999999999  0.21949     O
H     0.612735 0.934274 0.547009     H
H      0.61851 0.162737 0.159289     H
H      0.61851 0.45922099999999993 0.455773     H
N     0.6266471792074576 0.07208762213992502 0.6987348013473825     N
H     0.6270957084102566 0.12553880849694155 0.7526345169071981     H
O     0.631495 0.43234400000000006 0.199151     O
O     0.6483449999999998 0.272881 0.08344199999999999     O
O     0.648345 0.564903 0.37546399999999996     O
H     0.6727129998536491 0.04497359127763564 0.7176865911312846     H
Ti    0.7101599999999999  0.42813  0.13829    Ti
Ti    0.7101600000000001  0.57187  0.28203    Ti
O     0.7271189999999998 0.8105609999999999 0.37546399999999996     O
O     0.7271190000000001 0.351655 0.916558     O
H     0.7517428015791393 0.9314586749912902 0.4160441597971493     H
O     0.766807 0.567656 0.199151     O
C     0.808519 0.411331      0.0     C
C     0.808519 0.8085189999999999 0.397188     C
O     0.8105609999999999 0.7271189999999998 0.37546399999999996     O
O     0.810561 0.435097 0.08344199999999999     O
O     0.8169029999999998 0.440884 0.257787     O
O     0.8169029999999998 0.5591159999999998 0.376019     O
N     0.8195202968166143 0.9985841941943144 0.4517934893931771     N
H     0.821180576657674 1.065382422149658 0.46993191984503146     H
C     0.848553 0.49999999999999994 0.348553     C
C     0.9074749999999999 0.907475 0.450966     C
C     0.907475 0.456509      1.0     C
C     0.908973 0.43335299999999993 0.909946     C
C     0.908973 0.999027 0.47562000000000004     C
C     0.9267120000000001      0.5 0.42671200000000004     C
H     0.9342739999999999 0.612735 0.547009     H
H     0.934274 0.387265 0.32153899999999996     H
C     0.9635449999999998 0.436284 0.39982900000000005     C
C     0.9635450000000001 0.563716 0.527261     C
H     0.9965519999999999 0.8372629999999999 0.455773     H
H     0.996552 0.540779 0.159289     H
C     0.9990269999999999 0.523407 0.09005400000000001     C
C     0.9990269999999999 0.908973 0.47562000000000004     C
