data_I
_chemical_name_common  '/home/zhangsd/repos/MofS-CGCNN/ML/data/WS24/clean_cifs/MITRUD'
_cell_length_a 10.14784
_cell_length_b 10.14784
_cell_length_c 23.52856
_cell_angle_alpha 99.73895
_cell_angle_beta  99.73895
_cell_angle_gamma 102.44962
_space_group_name_H-M_alt      'P 1'


loop_
_space_group_symop_operation_xyz
  'x, y, z' 

loop_
_atom_site_label
_atom_site_fract_x
_atom_site_fract_y
_atom_site_fract_z
_atom_site_type_symbol
O      0.01692  0.38168   0.5766     O
O      0.06022  0.51998   0.7384     O
C       0.0616   0.5632   0.9516     C
O      0.07522  0.33342  0.48964     O
H       0.0818   0.5872   0.9926     H
C      0.10578  0.36658  0.54696     C
C      0.12447  0.51067  0.85814     C
C      0.15682  0.54122  0.92384     C
H       0.1935   0.5033   0.8372     H
H       0.2149   0.4323   0.6598     H
C      0.25181  0.38201  0.58182     C
C      0.28182   0.4121  0.63952     C
C      0.29867  0.54807  0.95514     C
H       0.3004   0.3524   0.7422     H
O      0.32427  0.56863   0.0081     O
H       0.3392   0.3446   0.5074     H
C         0.36   0.3616   0.5484     C
O      0.36653  0.40589  0.76602     O
O      0.38751  0.52705  0.92436     O
C       0.4106   0.4148   0.6714     C
C      0.45639  0.46319  0.73778     C
C      0.48298  0.36738  0.57616     C
C      0.51633  0.40253  0.64186     C
O      0.56053  0.31617   0.9919     O
O      0.56617  0.31053   0.4919     O
O      0.57182  0.53158   0.7616     O
Cd     0.57779  0.57779      0.0    Cd
O      0.58342  0.82522  0.98964     O
C      0.59293  0.34353  0.04486     C
C      0.59353  0.34293  0.54486     C
H       0.5946   0.0892   0.0074     H
H       0.6024   0.0504   0.2422     H
O      0.60269  0.46315  0.07564     O
H       0.6063   0.4161   0.6628     H
H       0.6102   0.5582   0.2578     H
C       0.6116     0.11   0.0484     C
C      0.61658  0.85578  0.04696     C
C      0.61738  0.23298  0.07616     C
O      0.63168  0.76692   0.0766     O
C      0.63201  0.00181  0.08182     C
O      0.63987  0.60051  0.23398     O
C      0.65253  0.26633  0.14186     C
O      0.65589  0.11653  0.26602     O
C       0.6621  0.03182  0.13952     C
C       0.6648   0.1606   0.1714     C
H       0.6661   0.3563   0.1628     H
H       0.6823   0.9649   0.1598     H
O      0.69032  0.55508   0.9234     O
O      0.71315  0.35269  0.57564     O
C      0.71319  0.20639  0.23778     C
C      0.72541  0.71861  0.26222     C
C       0.7434   0.7392   0.3286     C
H       0.7533   0.9435   0.3372     H
C      0.76067  0.87447  0.35814     C
O      0.76998  0.81022   0.2384     O
H       0.7725   0.5551   0.3402     H
C      0.77258   0.6423  0.36048     C
O      0.77705  0.13751  0.42436     O
O      0.78158  0.32182   0.2616     O
C      0.79122  0.90682  0.42384     C
C      0.79807  0.04867  0.45514     C
C      0.80019  0.66999  0.41818     C
O      0.80508  0.44032   0.4234     O
H       0.8051   0.5225   0.8402     H
H       0.8082   0.3602   0.7578     H
C      0.80882  0.56962  0.95304     C
C       0.8132   0.8116   0.4516     C
O      0.81863  0.07427   0.5081     O
C      0.81962  0.55882  0.45304     C
Cd     0.82779  0.32779      0.5    Cd
O      0.83558  0.59378  0.01036     O
H       0.8372   0.8318   0.4926     H
O      0.84378  0.58558  0.51036     O
O      0.85051  0.38987  0.73398     O
C       0.8923  0.52258  0.86048     C
C      0.91999  0.55019  0.91818     C
C      0.96861  0.47541  0.76222     C
C       0.9892   0.4934   0.8286     C
