data_I
_chemical_name_common  '/home/zhangsd/repos/MofS-CGCNN/ML/data/WS24/clean_cifs/MITSIS'
_cell_length_a 10.24300
_cell_length_b 17.97100
_cell_length_c 36.48500
_cell_angle_alpha 90.00000
_cell_angle_beta  90.00000
_cell_angle_gamma 99.75300
_space_group_name_H-M_alt      'P 1'


loop_
_space_group_symop_operation_xyz
  'x, y, z' 

loop_
_atom_site_label
_atom_site_fract_x
_atom_site_fract_y
_atom_site_fract_z
_atom_site_type_symbol
H       0.0302   0.3501   0.2985     H
H       0.0302   0.8501   0.2015     H
C       0.0307   0.1495  0.51962     C
C       0.0307   0.6495  0.98038     C
C       0.0361   0.3737   0.3213     C
C       0.0361   0.8737   0.1787     C
C       0.0458   0.2263   0.5164     C
C       0.0458   0.7263   0.9836     C
C       0.0474   0.1532  0.00957     C
C       0.0474   0.6532  0.49043     C
C       0.0516   0.4389   0.3907     C
C       0.0516   0.9389   0.1093     C
O       0.0542    0.021  0.94211     O
O       0.0542    0.521  0.55789     O
C       0.0572   0.4695   0.4294     C
C       0.0572   0.9695   0.0706     C
C       0.0647    0.238  0.01242     C
C       0.0647    0.738  0.48758     C
C       0.0679   0.0762   0.8714     C
C       0.0679   0.5762   0.6286     C
O       0.0683   0.3821  0.51094     O
O       0.0683   0.8821  0.98906     O
C       0.0742   0.1067   0.8379     C
C       0.0742   0.6067   0.6621     C
C       0.0958   0.3933  0.01976     C
C       0.0958   0.8933  0.48024     C
H       0.1064   0.4456   0.0218     H
H       0.1064   0.9456   0.4782     H
H       0.1303   0.2551   0.5169     H
H       0.1303   0.7551   0.9831     H
O       0.1384    0.046  0.53435     O
O       0.1384    0.546  0.96565     O
H       0.1445   0.0648   0.8821     H
H       0.1445   0.5648   0.6179     H
C       0.1507   0.1126  0.52384     C
O       0.1507   0.1257   0.0046     O
C       0.1507   0.6126  0.97616     C
O       0.1507   0.6257   0.4954     O
Cd     0.15781  0.00419   0.9952    Cd
Cd     0.15781  0.50419   0.5048    Cd
C       0.1598   0.3908  0.34021     C
C       0.1598   0.8908  0.15979     C
C       0.1653   0.4223  0.37484     C
C       0.1653   0.9223  0.12516     C
O       0.1677   0.4808  0.44593     O
O       0.1677   0.9808  0.05407     O
C       0.1885   0.2814  0.01342     C
C       0.1885   0.7814  0.48658     C
C       0.2049   0.3587   0.0169     C
C       0.2049   0.8587   0.4831     C
C       0.2095   0.1218   0.8195     C
C       0.2095   0.6218   0.6805     C
O       0.2182   0.1543   0.7895     O
O       0.2182   0.6543   0.7105     O
H       0.2455   0.4323   0.3874     H
H       0.2455   0.9323   0.1126     H
O       0.2618   0.1499  0.51616     O
O       0.2618   0.6499  0.98384     O
H       0.2628   0.2582   0.0117     H
H       0.2628   0.7582   0.4883     H
O        0.277   0.3356  0.29424     O
O        0.277   0.8356  0.20576     O
C       0.2824   0.3716   0.3227     C
C       0.2824   0.8716   0.1773     C
O       0.3017   0.1014   0.8335     O
O       0.3017   0.6014   0.6665     O
C       0.3423   0.4045  0.01746     C
C       0.3423   0.9045  0.48254     C
O       0.3562  0.47493  0.01815     O
O       0.3562  0.97493  0.48185     O
Cd      0.3745   0.0527  0.53061    Cd
Cd      0.3745   0.5527  0.96939    Cd
O       0.3867   0.4663  0.92438     O
O       0.3867   0.9663  0.57562     O
O        0.391   0.3947  0.33937     O
O        0.391   0.8947  0.16063     O
O          0.4   0.0811  0.59599     O
O          0.4   0.5811  0.90401     O
C       0.4019   0.0133   0.6019     C
C       0.4019   0.5133   0.8981     C
H       0.4213   0.3785   0.8749     H
H       0.4213   0.8785   0.6251     H
C       0.4214   0.4851   0.8608     C
C       0.4214   0.9851   0.6392     C
H       0.4238   0.0847   0.6659     H
H       0.4238   0.5847   0.8341     H
C       0.4312   0.0343  0.66943     C
C       0.4312   0.5343  0.83057     C
C       0.4317   0.4115  0.85502     C
C       0.4317   0.9115  0.64498     C
O       0.4378   0.3693   0.0187     O
O       0.4378   0.8693   0.4813     O
C       0.4518   0.0086  0.70428     C
C       0.4518   0.5086  0.79572     C
C       0.4572   0.3834  0.82052     C
C       0.4572   0.8834  0.67948     C
C       0.4592   0.0596   0.7367     C
C       0.4592   0.5596   0.7633     C
O       0.4593   0.0312  0.76785     O
O       0.4593   0.5312  0.73215     O
C       0.4671   0.4333  0.79104     C
C       0.4671   0.9333  0.70896     C
O       0.4677   0.1299  0.73206     O
O       0.4677   0.6299  0.76794     O
C       0.4738   0.3032  0.81548     C
C       0.4738   0.8032  0.68452     C
Cd     0.47508  0.15301  0.79692    Cd
Cd     0.47508  0.65301  0.70308    Cd
O       0.4806   0.2634  0.84302     O
O       0.4806   0.7634  0.65698     O
O       0.4807    0.278  0.78404     O
O       0.4807    0.778  0.71596     O
H       0.4842   0.4162   0.7678     H
H       0.4842   0.9162   0.7322     H
H       0.5158   0.0838   0.2678     H
H       0.5158   0.5838   0.2322     H
O       0.5193    0.222  0.28404     O
O       0.5193    0.722  0.21596     O
O       0.5194   0.2366  0.34302     O
O       0.5194   0.7366  0.15698     O
Cd     0.52492  0.34699  0.29692    Cd
Cd     0.52492  0.84699  0.20308    Cd
C       0.5262   0.1968  0.31548     C
C       0.5262   0.6968  0.18452     C
O       0.5323   0.3701  0.23206     O
O       0.5323   0.8701  0.26794     O
C       0.5329   0.0667  0.29104     C
C       0.5329   0.5667  0.20896     C
O       0.5407   0.4688  0.26785     O
O       0.5407   0.9688  0.23215     O
C       0.5408   0.4404   0.2367     C
C       0.5408   0.9404   0.2633     C
C       0.5428   0.1166  0.32052     C
C       0.5428   0.6166  0.17948     C
C       0.5482   0.4914  0.20428     C
C       0.5482   0.9914  0.29572     C
O       0.5622   0.1307   0.5187     O
O       0.5622   0.6307   0.9813     O
C       0.5683   0.0885  0.35502     C
C       0.5683   0.5885  0.14498     C
C       0.5688   0.4657  0.16943     C
C       0.5688   0.9657  0.33057     C
H       0.5762   0.4153   0.1659     H
H       0.5762   0.9153   0.3341     H
C       0.5786   0.0149   0.3608     C
C       0.5786   0.5149   0.1392     C
H       0.5787   0.1215   0.3749     H
H       0.5787   0.6215   0.1251     H
C       0.5981   0.4867   0.1019     C
C       0.5981   0.9867   0.3981     C
O          0.6   0.4189  0.09599     O
O          0.6   0.9189  0.40401     O
O        0.609   0.1053  0.83937     O
O        0.609   0.6053  0.66063     O
O       0.6133   0.0337  0.42438     O
O       0.6133   0.5337  0.07562     O
Cd      0.6255   0.4473  0.03061    Cd
Cd      0.6255   0.9473  0.46939    Cd
O       0.6438  0.02507  0.51815     O
O       0.6438  0.52507  0.98185     O
C       0.6577   0.0955  0.51746     C
C       0.6577   0.5955  0.98254     C
O       0.6983   0.3986   0.3335     O
O       0.6983   0.8986   0.1665     O
C       0.7176   0.1284   0.8227     C
C       0.7176   0.6284   0.6773     C
O        0.723   0.1644  0.79424     O
O        0.723   0.6644  0.70576     O
H       0.7372   0.2418   0.5117     H
H       0.7372   0.7418   0.9883     H
O       0.7382   0.3501  0.01616     O
O       0.7382   0.8501  0.48384     O
H       0.7545   0.0677   0.8874     H
H       0.7545   0.5677   0.6126     H
O       0.7818   0.3457   0.2895     O
O       0.7818   0.8457   0.2105     O
C       0.7905   0.3782   0.3195     C
C       0.7905   0.8782   0.1805     C
C       0.7951   0.1413   0.5169     C
C       0.7951   0.6413   0.9831     C
C       0.8115   0.2186  0.51342     C
C       0.8115   0.7186  0.98658     C
O       0.8323   0.0192  0.94593     O
O       0.8323   0.5192  0.55407     O
C       0.8347   0.0777  0.87484     C
C       0.8347   0.5777  0.62516     C
C       0.8402   0.1092  0.84021     C
C       0.8402   0.6092  0.65979     C
Cd     0.84219  0.49581   0.4952    Cd
Cd     0.84219  0.99581   0.0048    Cd
O       0.8493   0.3743   0.5046     O
C       0.8493   0.3874  0.02384     C
O       0.8493   0.8743   0.9954     O
C       0.8493   0.8874  0.47616     C
H       0.8555   0.4352   0.3821     H
H       0.8555   0.9352   0.1179     H
O       0.8616    0.454  0.03435     O
O       0.8616    0.954  0.46565     O
H       0.8697   0.2449   0.0169     H
H       0.8697   0.7449   0.4831     H
H       0.8936   0.0544   0.5218     H
H       0.8936   0.5544   0.9782     H
C       0.9042   0.1067  0.51976     C
C       0.9042   0.6067  0.98024     C
C       0.9258   0.3933   0.3379     C
C       0.9258   0.8933   0.1621     C
O       0.9317   0.1179  0.01094     O
O       0.9317   0.6179  0.48906     O
C       0.9321   0.4238   0.3714     C
C       0.9321   0.9238   0.1286     C
C       0.9353    0.262  0.51242     C
C       0.9353    0.762  0.98758     C
C       0.9428   0.0305   0.9294     C
C       0.9428   0.5305   0.5706     C
O       0.9458    0.479  0.44211     O
O       0.9458    0.979  0.05789     O
C       0.9484   0.0611   0.8907     C
C       0.9484   0.5611   0.6093     C
C       0.9526   0.3468  0.50957     C
C       0.9526   0.8468  0.99043     C
C       0.9542   0.2737   0.0164     C
C       0.9542   0.7737   0.4836     C
C       0.9639   0.1263   0.8213     C
C       0.9639   0.6263   0.6787     C
C       0.9693   0.3505  0.01962     C
C       0.9693   0.8505  0.48038     C
H       0.9698   0.1499   0.7985     H
H       0.9698   0.6499   0.7015     H
