data_I
_chemical_name_common  '/home/zhangsd/repos/MofS-CGCNN/ML/data/WS24/clean_cifs/MIXYEZ'
_cell_length_a  7.00120
_cell_length_b 16.66600
_cell_length_c 16.66600
_cell_angle_alpha 120.00000
_cell_angle_beta  90.00000
_cell_angle_gamma 90.00000
_space_group_name_H-M_alt      'P 1'


loop_
_space_group_symop_operation_xyz
  'x, y, z' 

loop_
_atom_site_label
_atom_site_fract_x
_atom_site_fract_y
_atom_site_fract_z
_atom_site_type_symbol
C       0.1076   0.0815   0.7546     C
C       0.1076   0.2454   0.3269     C
C       0.1076   0.3269   0.2454     C
C       0.1076   0.6731   0.9185     C
C       0.1076   0.7546   0.0815     C
C       0.1076   0.9185   0.6731     C
C        0.108     -0.0   0.5934     C
C        0.108   0.4066   0.4066     C
C        0.108   0.5934     -0.0     C
H        0.154   0.0848   0.8123     H
H        0.154   0.1372    0.754     H
H        0.154   0.1877   0.2725     H
H        0.154    0.246   0.3832     H
H        0.154   0.2725   0.1877     H
H        0.154   0.3832    0.246     H
H        0.154   0.6168   0.8628     H
H        0.154   0.7275   0.9152     H
H        0.154    0.754   0.1372     H
H        0.154   0.8123   0.0848     H
H        0.154   0.8628   0.6168     H
H        0.154   0.9152   0.7275     H
H       0.1548   0.0555   0.5923     H
H       0.1548   0.4077   0.4632     H
H       0.1548   0.4632   0.4077     H
H       0.1548   0.5368   0.9445     H
H       0.1548   0.5923   0.0555     H
H       0.1548   0.9445   0.5368     H
N       0.1857     -0.0    0.676     N
N       0.1857    0.324    0.324     N
N       0.1857    0.676      0.0     N
C          0.5     -0.0   0.0828     C
H          0.5     -0.0   0.1398     H
Ni         0.5     -0.0  0.67827    Ni
C          0.5     -0.0   0.8253     C
C          0.5     -0.0   0.9161     C
O          0.5   0.0777   0.8274     O
O          0.5   0.0815   0.5178     O
C          0.5   0.0828      0.0     C
C          0.5   0.0839   0.0839     C
O          0.5   0.1147   0.6657     O
C          0.5   0.1386    0.605     C
H          0.5   0.1398     -0.0     H
O          0.5   0.1726   0.2503     O
C          0.5   0.1747   0.1747     C
H          0.5    0.225   0.5086     H
C          0.5   0.2388   0.6372     C
O          0.5   0.2503   0.1726     O
C          0.5   0.2692    0.573     C
H          0.5   0.2836    0.775     H
C          0.5   0.3038   0.7308     C
Ni         0.5  0.32173  0.32173    Ni
O          0.5   0.3343    0.449     O
C          0.5   0.3628   0.6016     C
C          0.5    0.395   0.5336     C
C          0.5   0.3984   0.7612     C
C          0.5    0.427   0.6962     C
O          0.5   0.4363   0.9185     O
O          0.5    0.449   0.3343     O
C          0.5   0.4664   0.8614     C
O          0.5   0.4822   0.5637     O
H          0.5   0.4914   0.7164     H
H          0.5   0.5086    0.225     H
O          0.5   0.5178   0.0815     O
C          0.5   0.5336    0.395     C
O          0.5    0.551   0.8853     O
O          0.5   0.5637   0.4822     O
C          0.5    0.573   0.2692     C
C          0.5   0.6016   0.3628     C
C          0.5    0.605   0.1386     C
C          0.5   0.6372   0.2388     C
O          0.5   0.6657   0.1147     O
Ni         0.5  0.67827      0.0    Ni
C          0.5   0.6962    0.427     C
H          0.5   0.7164   0.4914     H
C          0.5   0.7308   0.3038     C
O          0.5   0.7497   0.9223     O
C          0.5   0.7612   0.3984     C
H          0.5    0.775   0.2836     H
C          0.5   0.8253      0.0     C
O          0.5   0.8274   0.0777     O
H          0.5   0.8602   0.8602     H
C          0.5   0.8614   0.4664     C
O          0.5   0.8853    0.551     O
C          0.5   0.9161      0.0     C
C          0.5   0.9172   0.9172     C
O          0.5   0.9185   0.4363     O
O          0.5   0.9223   0.7497     O
N       0.8143     -0.0    0.676     N
N       0.8143    0.324    0.324     N
N       0.8143    0.676      0.0     N
H       0.8452   0.0555   0.5923     H
H       0.8452   0.4077   0.4632     H
H       0.8452   0.4632   0.4077     H
H       0.8452   0.5368   0.9445     H
H       0.8452   0.5923   0.0555     H
H       0.8452   0.9445   0.5368     H
H        0.846   0.0848   0.8123     H
H        0.846   0.1372    0.754     H
H        0.846   0.1877   0.2725     H
H        0.846    0.246   0.3832     H
H        0.846   0.2725   0.1877     H
H        0.846   0.3832    0.246     H
H        0.846   0.6168   0.8628     H
H        0.846   0.7275   0.9152     H
H        0.846    0.754   0.1372     H
H        0.846   0.8123   0.0848     H
H        0.846   0.8628   0.6168     H
H        0.846   0.9152   0.7275     H
C        0.892     -0.0   0.5934     C
C        0.892   0.4066   0.4066     C
C        0.892   0.5934     -0.0     C
C       0.8924   0.0815   0.7546     C
C       0.8924   0.2454   0.3269     C
C       0.8924   0.3269   0.2454     C
C       0.8924   0.6731   0.9185     C
C       0.8924   0.7546   0.0815     C
C       0.8924   0.9185   0.6731     C
