data_I
_chemical_name_common  '/home/zhangsd/repos/MofS-CGCNN/ML/data/WS24/clean_cifs/MIYGUX'
_cell_length_a 22.86910
_cell_length_b 22.86910
_cell_length_c 22.86910
_cell_angle_alpha 109.47100
_cell_angle_beta  109.47100
_cell_angle_gamma 109.47100
_space_group_name_H-M_alt      'P 1'


loop_
_space_group_symop_operation_xyz
  'x, y, z' 

loop_
_atom_site_label
_atom_site_fract_x
_atom_site_fract_y
_atom_site_fract_z
_atom_site_type_symbol
H       0.0019   0.7356   0.3511     H
Cu     0.00197  0.58561  0.61898    Cu
C       0.0023   0.2879   0.0388     C
H       0.0036     0.84   0.7418     H
C        0.006   0.2238   0.0334     C
N       0.0068   0.0162   0.1288     N
N       0.0094    0.122   0.4932     N
C       0.0108   0.7953   0.9423     C
H       0.0118   0.1772   0.3956     H
C        0.014   0.9369   0.7955     C
C       0.0141   0.0327   0.1936     C
Cu     0.01431  0.42202  0.43903    Cu
N       0.0162   0.6288   0.5068     N
Cu     0.01701  0.07798  0.09229    Cu
C       0.0186   0.1795   0.4859     C
N       0.0197   0.1408   0.0571     N
C       0.0274    0.994   0.7178     C
C       0.0278   0.8873   0.2671     C
N       0.0283   0.9595   0.8626     N
N       0.0304   0.8647   0.9659     N
C       0.0306   0.2053   0.0849     C
H       0.0314   0.2185   0.1771     H
C       0.0321   0.7758   0.3989     C
C       0.0327   0.6936   0.5141     C
Cu     0.03337  0.91439  0.91636    Cu
C       0.0334   0.7238    0.006     C
N       0.0341   0.3988   0.5645     N
H       0.0352   0.1157   0.2801     H
C       0.0365   0.9977   0.7856     C
N       0.0374   0.9803   0.6211     N
C       0.0388   0.7879   0.0023     C
N       0.0405   0.4031   0.0688     N
H       0.0414   0.3229   0.8543     H
H       0.0493   0.9043   0.2422     H
C       0.0496   0.1943   0.4423     C
C       0.0543   0.9694   0.6747     C
H       0.0555   0.2898   0.1743     H
H       0.0555   0.8183   0.3974     H
N       0.0571   0.6408   0.0197     N
C       0.0577   0.1073    0.252     C
C       0.0577    0.353   0.5685     C
C       0.0589   0.2471   0.1632     C
Cu     0.06097  0.07528  0.48299    Cu
H        0.062   0.1386   0.2324     H
C       0.0631   0.3586   0.0771     C
N       0.0645   0.0341   0.8988     N
H       0.0646   0.8986   0.3116     H
H       0.0674   0.7678   0.4266     H
C       0.0685   0.0577    0.853     C
N       0.0688   0.9031   0.0405     N
H       0.0711   0.3112   0.9193     H
H       0.0734   0.1408   0.8412     H
Cu     0.07528  0.98299  0.56097    Cu
H       0.0766   0.1704    0.438     H
C       0.0771   0.8586   0.0631     C
Cu     0.07798  0.59229  0.51701    Cu
H       0.0791   0.7372   0.6817     H
H       0.0805   0.2449   0.4648     H
H       0.0807   0.8919   0.6518     H
Cu     0.08364  0.49803  0.61701    Cu
N       0.0837   0.4429   0.9626     N
C       0.0839   0.3368   0.8957     C
C       0.0849   0.7053   0.0306     C
Cu     0.08561  0.50197  0.11898    Cu
H        0.087    0.753   0.1884     H
Cu     0.09229  0.57798  0.01701    Cu
H       0.0938   0.3614   0.4234     H
H       0.0957   0.8379    0.145     H
N       0.0969   0.6374   0.1657     N
H       0.0982   0.7582   0.2618     H
C       0.1011   0.1332   0.8769     C
N       0.1012   0.6353   0.6657     N
H       0.1014    0.913    0.166     H
H       0.1026   0.1581   0.9209     H
C       0.1043   0.9411   0.6882     C
H       0.1044   0.1162   0.2816     H
C       0.1073    0.752   0.5577     C
H       0.1081   0.2599   0.1888     H
N       0.1126   0.4838   0.4906     N
C       0.1127   0.8798   0.1405     C
H       0.1155   0.3257   0.8812     H
H       0.1155   0.7663   0.7644     H
H       0.1157   0.7801   0.5352     H
H       0.1162   0.7816   0.6044     H
Cu     0.11701  0.08364  0.99803    Cu
H       0.1188   0.9445   0.7343     H
Cu     0.11898  0.00197  0.08561    Cu
C       0.1202   0.7607   0.2329     C
C       0.1204   0.4151   0.9457     C
N       0.1211   0.0374   0.4803     N
N        0.122   0.9932   0.5094     N
C       0.1231   0.7563   0.7242     C
N       0.1288   0.5162   0.0068     N
C       0.1332   0.3769   0.6011     C
N       0.1353   0.6012   0.1657     N
N       0.1374   0.5969   0.6657     N
H       0.1386   0.7324    0.562     H
C       0.1405   0.3798   0.1127     C
H       0.1408   0.3412   0.5734     H
N       0.1408   0.5571   0.5197     N
C       0.1414   0.7045   0.2185     C
C       0.1447   0.3927   0.4504     C
H        0.145   0.3379   0.0957     H
H       0.1457   0.9686   0.6871     H
C        0.147   0.7047   0.7155     C
H       0.1489   0.1508   0.8845     H
H       0.1508   0.3845   0.6489     H
H       0.1518   0.0807   0.3919     H
H       0.1581   0.4209   0.6026     H
H       0.1588   0.7996   0.7322     H
H         0.16   0.4018   0.1636     H
C       0.1609   0.4673   0.4814     C
H       0.1621   0.8071   0.2578     H
C       0.1632   0.7471   0.0589     C
H       0.1636   0.9018     0.16     H
H       0.1644   0.3843   0.4195     H
H       0.1654   0.3838   0.4882     H
N       0.1657   0.1012   0.1353     N
N       0.1657   0.1374   0.0969     N
H        0.166    0.413   0.1014     H
H       0.1704    0.938   0.5766     H
H       0.1743   0.7898   0.0555     H
C       0.1747   0.0543   0.4694     C
H       0.1771   0.7185   0.0314     H
H       0.1772   0.8956   0.5118     H
C       0.1795   0.9859   0.5186     C
H       0.1817   0.0791   0.2372     H
H       0.1871   0.1457   0.4686     H
C       0.1882   0.1043   0.4411     C
H       0.1884    0.253    0.087     H
H       0.1888   0.7599   0.1081     H
C       0.1904   0.4666   0.9726     C
H       0.1929   0.9507    0.355     H
C       0.1936   0.5327   0.0141     C
C       0.1943   0.9423   0.5496     C
H       0.2004   0.4326   0.3592     H
C       0.2045   0.6414   0.7185     C
C       0.2047    0.647   0.2155     C
C       0.2053   0.5849   0.5306     C
H       0.2102   0.7657   0.3845     H
C       0.2121   0.7144   0.2509     C
C       0.2144   0.7121   0.7509     C
C       0.2155    0.147   0.2047     C
C       0.2178   0.0274    0.494     C
H       0.2184   0.3228   0.3346     H
C       0.2185   0.2045   0.1414     C
H       0.2185   0.6771   0.5314     H
H       0.2199   0.2551   0.3356     H
C       0.2238   0.5334    0.506     C
C       0.2242   0.1231   0.2563     C
H       0.2322   0.1588   0.2996     H
H       0.2324   0.6386    0.062     H
C       0.2329   0.2607   0.1202     C
H       0.2337   0.4981   0.3492     H
H       0.2343   0.1188   0.4445     H
H       0.2356   0.5019   0.8511     H
H       0.2372   0.5791   0.1817     H
H       0.2382   0.3364   0.9964     H
C       0.2393   0.9722   0.3595     C
H       0.2401   0.8482   0.4289     H
H       0.2418   0.0036     0.34     H
H       0.2422   0.4043   0.0493     H
C       0.2437   0.4679   0.3668     C
H       0.2449   0.9648   0.5805     H
H        0.247   0.9354    0.334     H
C       0.2471   0.6632   0.5589     C
C        0.248   0.3057   0.3553     C
C       0.2491   0.4612   0.9635     C
C       0.2509   0.2144   0.2121     C
C        0.252   0.6073   0.0577     C
C       0.2529   0.8118   0.4161     C
H        0.253    0.587   0.6884     H
H       0.2551   0.8356   0.7199     H
C       0.2563   0.6231   0.2242     C
H       0.2578   0.3071   0.1621     H
H       0.2582   0.5982   0.7618     H
H       0.2599   0.6888   0.6081     H
C       0.2607   0.6202   0.7329     C
H       0.2618   0.2582   0.0982     H
H       0.2628   0.4445   0.3419     H
H       0.2644   0.1155   0.2663     H
H       0.2657   0.7102   0.8845     H
H       0.2663   0.6155   0.2644     H
C       0.2671   0.3873   0.0278     C
H       0.2676   0.3296   0.4062     H
H       0.2678   0.5674   0.9266     H
C       0.2758   0.5321   0.8989     C
C       0.2762   0.7822   0.3096     C
H       0.2801   0.6157   0.0352     H
C       0.2815   0.4229    0.986     C
H       0.2815   0.8129   0.4586     H
H       0.2816   0.6162   0.1044     H
C       0.2822   0.7762   0.8096     C
C       0.2845   0.4892   0.9315     C
C       0.2856   0.0365   0.4977     C
C       0.2879   0.5388   0.5023     C
H       0.2898   0.6743   0.5555     H
C       0.2947   0.8253   0.3796     C
C       0.2953   0.5108   0.4423     C
C       0.2955    0.014   0.4369     C
H       0.2996   0.6588   0.2322     H
C       0.3057   0.8553    0.748     C
C       0.3064   0.3205   0.3391     C
H       0.3071   0.6621   0.7578     H
C       0.3096   0.2822   0.2762     C
H       0.3112   0.4193   0.5711     H
H       0.3116   0.3986   0.0646     H
C       0.3118   0.7529   0.9161     C
H       0.3129   0.7815   0.9586     H
H       0.3183   0.5555   0.8974     H
C       0.3205   0.8391   0.8064     C
H       0.3228   0.8346   0.7184     H
H       0.3229   0.3543   0.5414     H
C       0.3253   0.7947   0.8796     C
H       0.3257   0.3812   0.6155     H
H       0.3296   0.9062   0.7676     H
H        0.334   0.4354    0.247     H
N       0.3343   0.4312   0.9717     N
N       0.3343   0.4696   0.9355     N
H       0.3346   0.8228   0.2184     H
H       0.3356   0.7551   0.2199     H
H       0.3364   0.4964   0.7382     H
C       0.3368   0.3957   0.5839     C
H       0.3379   0.5957    0.645     H
C       0.3391   0.8205   0.3064     C
H         0.34   0.5036   0.2418     H
H       0.3412   0.0734   0.6408     H
H       0.3419   0.9445   0.2628     H
H       0.3482   0.7401   0.9289     H
H       0.3492   0.9981   0.2337     H
H       0.3511   0.2356   0.0019     H
C        0.353   0.0685   0.5577     C
H       0.3543   0.0414   0.8229     H
H        0.355   0.4507   0.1929     H
C       0.3553   0.8057    0.248     C
C       0.3586   0.5771   0.5631     C
N       0.3592   0.8789   0.4163     N
H       0.3592   0.9326   0.2004     H
C       0.3595   0.4722   0.2393     C
H       0.3614   0.9234   0.5938     H
N       0.3626   0.0283   0.4595     N
N       0.3647   0.5304   0.4659     N
C       0.3668   0.9679   0.2437     C
N       0.3712    0.378   0.3874     N
C       0.3769   0.1011   0.6332     C
N        0.378   0.8874   0.8712     N
N       0.3789   0.8592   0.9163     N
C       0.3796   0.3253   0.2947     C
C       0.3798   0.6127   0.6405     C
Cu     0.38102  0.46663  0.88299    Cu
H       0.3812   0.1155   0.8257     H
Cu     0.38299  0.38102  0.96663    Cu
H       0.3838   0.9882   0.6654     H
H       0.3843   0.9195   0.6644     H
H       0.3845   0.1489   0.6508     H
H       0.3845   0.2657   0.2102     H
C       0.3873   0.5278   0.7671     C
N       0.3874    0.878   0.3712     N
H       0.3919   0.5807   0.1518     H
C       0.3927   0.9504   0.6447     C
H       0.3956   0.6772   0.0118     H
C       0.3957   0.0839   0.8368     C
H       0.3974   0.3183   0.0555     H
H       0.3986   0.5646   0.8116     H
N       0.3988   0.0645   0.5341     N
C       0.3989   0.2758   0.0321     C
H       0.4018   0.6636     0.66     H
N       0.4031   0.5688   0.5405     N
H       0.4043   0.5493   0.7422     H
H       0.4062   0.8296   0.2676     H
Cu     0.40771  0.42472  0.48569    Cu
H        0.413   0.6014    0.666     H
Cu     0.41439  0.53337  0.41636    Cu
C       0.4151   0.4457   0.6204     C
C       0.4161   0.3118   0.2529     C
N       0.4163   0.3789   0.3592     N
Cu     0.41636  0.03337  0.41439    Cu
H       0.4193   0.0711   0.8112     H
H       0.4195   0.8843   0.1644     H
H       0.4209   0.1026   0.6581     H
Cu     0.42202  0.93903  0.51431    Cu
C       0.4229    0.486   0.7815     C
H       0.4234   0.8614   0.0938     H
Cu     0.42472  0.98569  0.90771    Cu
H       0.4266   0.2678   0.0674     H
H       0.4289   0.3482   0.2401     H
N       0.4312   0.4717   0.8343     N
C       0.4315   0.2845   0.9892     C
H       0.4326   0.8592   0.7004     H
H       0.4354    0.747    0.834     H
N       0.4355   0.3343   0.9696     N
C       0.4369    0.514   0.2955     C
H        0.438   0.6704   0.0766     H
Cu     0.43903  0.92202  0.01431    Cu
C       0.4411   0.6043   0.1882     C
C       0.4423   0.0108   0.2953     C
C       0.4423   0.6943   0.0496     C
N       0.4429   0.4626   0.5837     N
H       0.4445   0.6188   0.2343     H
H       0.4445   0.8419   0.7628     H
C       0.4457   0.1204   0.9151     C
C       0.4504   0.8927   0.1447     C
H       0.4507   0.6929    0.855     H
H       0.4586   0.3129   0.2815     H
N       0.4595   0.5283   0.3626     N
C       0.4612   0.4635   0.7491     C
N       0.4626   0.0837   0.9429     N
C       0.4635   0.2491   0.9612     C
H       0.4648   0.7449   0.0805     H
N       0.4659   0.0304   0.3647     N
C       0.4666   0.4726   0.6904     C
Cu     0.46663  0.38299  0.88102    Cu
C       0.4673   0.9814   0.6609     C
C       0.4679   0.8668   0.7437     C
H       0.4686   0.6457   0.1871     H
C       0.4694   0.5543   0.1747     C
N       0.4696   0.4355   0.8343     N
N       0.4717   0.3343   0.9312     N
C       0.4722   0.7393   0.8595     C
C       0.4726   0.1904   0.9666     C
N       0.4803   0.5374   0.1211     N
C       0.4814   0.9673   0.1609     C
Cu     0.48299  0.57528  0.06097    Cu
N       0.4838   0.9906   0.6126     N
Cu     0.48569  0.92472  0.40771    Cu
C       0.4859   0.6795   0.0186     C
C        0.486   0.2815   0.9229     C
H       0.4882   0.8838   0.1654     H
C       0.4892   0.4315   0.7845     C
N       0.4906   0.9838   0.1126     N
N       0.4932    0.622   0.0094     N
C        0.494   0.5274   0.2178     C
H       0.4964   0.2382   0.8364     H
C       0.4977   0.5365   0.2856     C
Cu     0.49803  0.11701  0.58364    Cu
H       0.4981   0.8492   0.7337     H
H       0.5019   0.3511   0.7356     H
Cu     0.50197  0.61898  0.58561    Cu
C       0.5023   0.0388   0.2879     C
H       0.5036   0.7418     0.84     H
C        0.506   0.0334   0.2238     C
N       0.5068   0.1288   0.0162     N
N       0.5094   0.4932    0.122     N
C       0.5108   0.9423   0.7953     C
H       0.5118   0.3956   0.1772     H
C        0.514   0.7955   0.9369     C
C       0.5141   0.1936   0.0327     C
Cu     0.51431  0.43903  0.42202    Cu
N       0.5162   0.5068   0.6288     N
Cu     0.51701  0.09229  0.07798    Cu
C       0.5186   0.4859   0.1795     C
N       0.5197   0.0571   0.1408     N
C       0.5274   0.7178    0.994     C
C       0.5278   0.2671   0.8873     C
N       0.5283   0.8626   0.9595     N
N       0.5304   0.9659   0.8647     N
C       0.5306   0.0849   0.2053     C
H       0.5314   0.1771   0.2185     H
C       0.5321   0.3989   0.7758     C
C       0.5327   0.5141   0.6936     C
Cu     0.53337  0.91636  0.91439    Cu
C       0.5334    0.006   0.7238     C
N       0.5341   0.5645   0.3988     N
H       0.5352   0.2801   0.1157     H
C       0.5365   0.7856   0.9977     C
N       0.5374   0.6211   0.9803     N
C       0.5388   0.0023   0.7879     C
N       0.5405   0.0688   0.4031     N
H       0.5414   0.8543   0.3229     H
H       0.5493   0.2422   0.9043     H
C       0.5496   0.4423   0.1943     C
C       0.5543   0.6747   0.9694     C
H       0.5555   0.1743   0.2898     H
H       0.5555   0.3974   0.8183     H
N       0.5571   0.0197   0.6408     N
C       0.5577    0.252   0.1073     C
C       0.5577   0.5685    0.353     C
C       0.5589   0.1632   0.2471     C
Cu     0.56097  0.48299  0.07528    Cu
H        0.562   0.2324   0.1386     H
C       0.5631   0.0771   0.3586     C
N       0.5645   0.8988   0.0341     N
H       0.5646   0.3116   0.8986     H
H       0.5674   0.4266   0.7678     H
C       0.5685    0.853   0.0577     C
N       0.5688   0.0405   0.9031     N
H       0.5711   0.9193   0.3112     H
H       0.5734   0.8412   0.1408     H
Cu     0.57528  0.56097  0.98299    Cu
H       0.5766    0.438   0.1704     H
C       0.5771   0.0631   0.8586     C
Cu     0.57798  0.51701  0.59229    Cu
H       0.5791   0.6817   0.7372     H
H       0.5805   0.4648   0.2449     H
H       0.5807   0.6518   0.8919     H
Cu     0.58364  0.61701  0.49803    Cu
N       0.5837   0.9626   0.4429     N
C       0.5839   0.8957   0.3368     C
C       0.5849   0.0306   0.7053     C
Cu     0.58561  0.11898  0.50197    Cu
H        0.587   0.1884    0.753     H
Cu     0.59229  0.01701  0.57798    Cu
H       0.5938   0.4234   0.3614     H
H       0.5957    0.145   0.8379     H
N       0.5969   0.1657   0.6374     N
H       0.5982   0.2618   0.7582     H
C       0.6011   0.8769   0.1332     C
N       0.6012   0.6657   0.6353     N
H       0.6014    0.166    0.913     H
H       0.6026   0.9209   0.1581     H
C       0.6043   0.6882   0.9411     C
H       0.6044   0.2816   0.1162     H
C       0.6073   0.5577    0.752     C
H       0.6081   0.1888   0.2599     H
N       0.6126   0.4906   0.4838     N
C       0.6127   0.1405   0.8798     C
H       0.6155   0.7644   0.7663     H
H       0.6155   0.8812   0.3257     H
H       0.6157   0.5352   0.7801     H
H       0.6162   0.6044   0.7816     H
Cu     0.61701  0.99803  0.08364    Cu
H       0.6188   0.7343   0.9445     H
Cu     0.61898  0.08561  0.00197    Cu
C       0.6202   0.2329   0.7607     C
C       0.6204   0.9457   0.4151     C
N       0.6211   0.4803   0.0374     N
N        0.622   0.5094   0.9932     N
C       0.6231   0.7242   0.7563     C
N       0.6288   0.0068   0.5162     N
C       0.6332   0.6011   0.3769     C
N       0.6353   0.1657   0.6012     N
N       0.6374   0.6657   0.5969     N
H       0.6386    0.562   0.7324     H
C       0.6405   0.1127   0.3798     C
N       0.6408   0.5197   0.5571     N
H       0.6408   0.5734   0.3412     H
C       0.6414   0.2185   0.7045     C
C       0.6447   0.4504   0.3927     C
H        0.645   0.0957   0.3379     H
H       0.6457   0.6871   0.9686     H
C        0.647   0.7155   0.7047     C
H       0.6489   0.8845   0.1508     H
H       0.6508   0.6489   0.3845     H
H       0.6518   0.3919   0.0807     H
H       0.6581   0.6026   0.4209     H
H       0.6588   0.7322   0.7996     H
H         0.66   0.1636   0.4018     H
C       0.6609   0.4814   0.4673     C
H       0.6621   0.2578   0.8071     H
C       0.6632   0.0589   0.7471     C
H       0.6636     0.16   0.9018     H
H       0.6644   0.4195   0.3843     H
H       0.6654   0.4882   0.3838     H
N       0.6657   0.0969   0.1374     N
N       0.6657   0.1353   0.1012     N
H        0.666   0.1014    0.413     H
H       0.6704   0.5766    0.938     H
H       0.6743   0.0555   0.7898     H
C       0.6747   0.4694   0.0543     C
H       0.6771   0.0314   0.7185     H
H       0.6772   0.5118   0.8956     H
C       0.6795   0.5186   0.9859     C
H       0.6817   0.2372   0.0791     H
H       0.6871   0.4686   0.1457     H
C       0.6882   0.4411   0.1043     C
H       0.6884    0.087    0.253     H
H       0.6888   0.1081   0.7599     H
C       0.6904   0.9726   0.4666     C
H       0.6929    0.355   0.9507     H
C       0.6936   0.0141   0.5327     C
C       0.6943   0.5496   0.9423     C
H       0.7004   0.3592   0.4326     H
C       0.7045   0.7185   0.6414     C
C       0.7047   0.2155    0.647     C
C       0.7053   0.5306   0.5849     C
H       0.7102   0.3845   0.7657     H
C       0.7121   0.2509   0.7144     C
C       0.7144   0.7509   0.7121     C
C       0.7155   0.2047    0.147     C
C       0.7178    0.494   0.0274     C
H       0.7184   0.3346   0.3228     H
C       0.7185   0.1414   0.2045     C
H       0.7185   0.5314   0.6771     H
H       0.7199   0.3356   0.2551     H
C       0.7238    0.506   0.5334     C
C       0.7242   0.2563   0.1231     C
H       0.7322   0.2996   0.1588     H
H       0.7324    0.062   0.6386     H
C       0.7329   0.1202   0.2607     C
H       0.7337   0.3492   0.4981     H
H       0.7343   0.4445   0.1188     H
H       0.7356   0.8511   0.5019     H
H       0.7372   0.1817   0.5791     H
H       0.7382   0.9964   0.3364     H
C       0.7393   0.3595   0.9722     C
H       0.7401   0.4289   0.8482     H
H       0.7418     0.34   0.0036     H
H       0.7422   0.0493   0.4043     H
C       0.7437   0.3668   0.4679     C
H       0.7449   0.5805   0.9648     H
H        0.747    0.334   0.9354     H
C       0.7471   0.5589   0.6632     C
C        0.748   0.3553   0.3057     C
C       0.7491   0.9635   0.4612     C
C       0.7509   0.2121   0.2144     C
C        0.752   0.0577   0.6073     C
C       0.7529   0.4161   0.8118     C
H        0.753   0.6884    0.587     H
H       0.7551   0.7199   0.8356     H
C       0.7563   0.2242   0.6231     C
H       0.7578   0.1621   0.3071     H
H       0.7582   0.7618   0.5982     H
H       0.7599   0.6081   0.6888     H
C       0.7607   0.7329   0.6202     C
H       0.7618   0.0982   0.2582     H
H       0.7628   0.3419   0.4445     H
H       0.7644   0.2663   0.1155     H
H       0.7657   0.8845   0.7102     H
H       0.7663   0.2644   0.6155     H
C       0.7671   0.0278   0.3873     C
H       0.7676   0.4062   0.3296     H
H       0.7678   0.9266   0.5674     H
C       0.7758   0.8989   0.5321     C
C       0.7762   0.3096   0.7822     C
H       0.7801   0.0352   0.6157     H
H       0.7815   0.4586   0.8129     H
C       0.7815    0.986   0.4229     C
H       0.7816   0.1044   0.6162     H
C       0.7822   0.8096   0.7762     C
C       0.7845   0.9315   0.4892     C
C       0.7856   0.4977   0.0365     C
C       0.7879   0.5023   0.5388     C
H       0.7898   0.5555   0.6743     H
C       0.7947   0.3796   0.8253     C
C       0.7953   0.4423   0.5108     C
C       0.7955   0.4369    0.014     C
H       0.7996   0.2322   0.6588     H
C       0.8057    0.748   0.8553     C
C       0.8064   0.3391   0.3205     C
H       0.8071   0.7578   0.6621     H
C       0.8096   0.2762   0.2822     C
H       0.8112   0.5711   0.4193     H
H       0.8116   0.0646   0.3986     H
C       0.8118   0.9161   0.7529     C
H       0.8129   0.9586   0.7815     H
H       0.8183   0.8974   0.5555     H
C       0.8205   0.8064   0.8391     C
H       0.8228   0.7184   0.8346     H
H       0.8229   0.5414   0.3543     H
C       0.8253   0.8796   0.7947     C
H       0.8257   0.6155   0.3812     H
H       0.8296   0.7676   0.9062     H
H        0.834    0.247   0.4354     H
N       0.8343   0.9355   0.4696     N
N       0.8343   0.9717   0.4312     N
H       0.8346   0.2184   0.8228     H
H       0.8356   0.2199   0.7551     H
H       0.8364   0.7382   0.4964     H
C       0.8368   0.5839   0.3957     C
H       0.8379    0.645   0.5957     H
C       0.8391   0.3064   0.8205     C
H         0.84   0.2418   0.5036     H
H       0.8412   0.6408   0.0734     H
H       0.8419   0.2628   0.9445     H
H       0.8482   0.9289   0.7401     H
H       0.8492   0.2337   0.9981     H
H       0.8511   0.0019   0.2356     H
C        0.853   0.5577   0.0685     C
H       0.8543   0.8229   0.0414     H
H        0.855   0.1929   0.4507     H
C       0.8553    0.248   0.8057     C
C       0.8586   0.5631   0.5771     C
H       0.8592   0.2004   0.9326     H
N       0.8592   0.4163   0.8789     N
C       0.8595   0.2393   0.4722     C
H       0.8614   0.5938   0.9234     H
N       0.8626   0.4595   0.0283     N
N       0.8647   0.4659   0.5304     N
C       0.8668   0.2437   0.9679     C
N       0.8712   0.3874    0.378     N
C       0.8769   0.6332   0.1011     C
N        0.878   0.8712   0.8874     N
N       0.8789   0.9163   0.8592     N
C       0.8796   0.2947   0.3253     C
C       0.8798   0.6405   0.6127     C
Cu     0.88102  0.88299  0.46663    Cu
H       0.8812   0.8257   0.1155     H
Cu     0.88299  0.96663  0.38102    Cu
H       0.8838   0.6654   0.9882     H
H       0.8843   0.6644   0.9195     H
H       0.8845   0.2102   0.2657     H
H       0.8845   0.6508   0.1489     H
C       0.8873   0.7671   0.5278     C
N       0.8874   0.3712    0.878     N
H       0.8919   0.1518   0.5807     H
C       0.8927   0.6447   0.9504     C
H       0.8956   0.0118   0.6772     H
C       0.8957   0.8368   0.0839     C
H       0.8974   0.0555   0.3183     H
H       0.8986   0.8116   0.5646     H
N       0.8988   0.5341   0.0645     N
C       0.8989   0.0321   0.2758     C
H       0.9018     0.66   0.6636     H
N       0.9031   0.5405   0.5688     N
H       0.9043   0.7422   0.5493     H
H       0.9062   0.2676   0.8296     H
Cu     0.90771  0.48569  0.42472    Cu
H        0.913    0.666   0.6014     H
Cu     0.91439  0.41636  0.53337    Cu
C       0.9151   0.6204   0.4457     C
C       0.9161   0.2529   0.3118     C
N       0.9163   0.3592   0.3789     N
Cu     0.91636  0.41439  0.03337    Cu
H       0.9193   0.8112   0.0711     H
H       0.9195   0.1644   0.8843     H
H       0.9209   0.6581   0.1026     H
Cu     0.92202  0.51431  0.93903    Cu
C       0.9229   0.7815    0.486     C
H       0.9234   0.0938   0.8614     H
Cu     0.92472  0.90771  0.98569    Cu
H       0.9266   0.0674   0.2678     H
H       0.9289   0.2401   0.3482     H
N       0.9312   0.8343   0.4717     N
C       0.9315   0.9892   0.2845     C
H       0.9326   0.7004   0.8592     H
H       0.9354    0.834    0.747     H
N       0.9355   0.9696   0.3343     N
C       0.9369   0.2955    0.514     C
H        0.938   0.0766   0.6704     H
Cu     0.93903  0.01431  0.92202    Cu
C       0.9411   0.1882   0.6043     C
C       0.9423   0.0496   0.6943     C
C       0.9423   0.2953   0.0108     C
N       0.9429   0.5837   0.4626     N
H       0.9445   0.2343   0.6188     H
H       0.9445   0.7628   0.8419     H
C       0.9457   0.9151   0.1204     C
C       0.9504   0.1447   0.8927     C
H       0.9507    0.855   0.6929     H
H       0.9586   0.2815   0.3129     H
N       0.9595   0.3626   0.5283     N
C       0.9612   0.7491   0.4635     C
N       0.9626   0.9429   0.0837     N
C       0.9635   0.9612   0.2491     C
H       0.9648   0.0805   0.7449     H
N       0.9659   0.3647   0.0304     N
C       0.9666   0.6904   0.4726     C
Cu     0.96663  0.88102  0.38299    Cu
C       0.9673   0.6609   0.9814     C
C       0.9679   0.7437   0.8668     C
H       0.9686   0.1871   0.6457     H
C       0.9694   0.1747   0.5543     C
N       0.9696   0.8343   0.4355     N
N       0.9717   0.9312   0.3343     N
C       0.9722   0.8595   0.7393     C
C       0.9726   0.9666   0.1904     C
N       0.9803   0.1211   0.5374     N
C       0.9814   0.1609   0.9673     C
Cu     0.98299  0.06097  0.57528    Cu
N       0.9838   0.6126   0.9906     N
Cu     0.98569  0.40771  0.92472    Cu
C       0.9859   0.0186   0.6795     C
C        0.986   0.9229   0.2815     C
H       0.9882   0.1654   0.8838     H
C       0.9892   0.7845   0.4315     C
N       0.9906   0.1126   0.9838     N
N       0.9932   0.0094    0.622     N
C        0.994   0.2178   0.5274     C
H       0.9964   0.8364   0.2382     H
C       0.9977   0.2856   0.5365     C
Cu     0.99803  0.58364  0.11701    Cu
H       0.9981   0.7337   0.8492     H
