data_I
_chemical_name_common  '/home/zhangsd/repos/MofS-CGCNN/ML/data/WS24/clean_cifs/MOF-801-P'
_cell_length_a 17.83482
_cell_length_b 17.83482
_cell_length_c 17.83482
_cell_angle_alpha 90.00000
_cell_angle_beta  90.00000
_cell_angle_gamma 90.00000
_space_group_name_H-M_alt      'P 1'


loop_
_space_group_symop_operation_xyz
  'x, y, z' 

loop_
_atom_site_label
_atom_site_fract_x
_atom_site_fract_y
_atom_site_fract_z
_atom_site_type_symbol
C        7e-05  0.19067  0.33987     C
C        7e-05  0.30947  0.16027     C
C        7e-05  0.69067  0.83987     C
C        7e-05  0.80947  0.66027     C
H       0.0001   0.1944   0.1954     H
H       0.0001   0.3056   0.3046     H
C      0.00018  0.24339  0.21357     C
C      0.00018  0.25679  0.28657     C
O      0.00734  0.62634  0.81044     O
O      0.00734  0.87374  0.68964     O
O      0.00804  0.20904  0.40854     O
O      0.00804  0.29104  0.09154     O
Zr    0.011134 0.511884 0.862154    Zr
Zr    0.011134 0.988124 0.637854    Zr
Zr    0.011884 0.137854 0.511134    Zr
Zr    0.011884 0.362154 0.988874    Zr
O      0.02394  0.09064  0.70884     O
O      0.02394  0.40944  0.79124     O
C      0.02407  0.16047  0.68917     C
C      0.02407  0.33967  0.81097     C
C      0.02439  0.21427  0.75559     C
C      0.02439  0.28587  0.74459     C
H       0.0244   0.1955   0.8042     H
H       0.0244   0.3045   0.6958     H
O      0.02465  0.19044  0.62464     O
O      0.02465  0.30964  0.87544     O
O      0.06471  0.57651  0.09179     O
O      0.06471  0.92351  0.40839     O
O      0.07651  0.59179  0.93531     O
O      0.07651  0.90839  0.56471     O
O      0.07857  0.07857  0.42157     O
O      0.07857  0.42157  0.07857     O
O      0.09064  0.70884  0.02394     O
O      0.09064  0.79124  0.47614     O
O      0.09154  0.00804  0.29104     O
O      0.09154  0.49204  0.20904     O
O      0.09179  0.06471  0.57651     O
O      0.09179  0.43531  0.92351     O
O      0.12464  0.52465  0.80964     O
O      0.12464  0.97545  0.69044     O
O      0.12634  0.18964  0.50734     O
O      0.12634  0.31044  0.99274     O
Zr    0.137854 0.511134 0.011884    Zr
Zr    0.137854 0.988874 0.488124    Zr
C      0.16027    7e-05  0.30947     C
C      0.16027  0.50007  0.19067     C
C      0.16047  0.68917  0.02407     C
C      0.16047  0.81097  0.47607     C
C      0.18917  0.52407  0.83967     C
C      0.18917  0.97607  0.66047     C
O      0.18964  0.50734  0.12634     O
O      0.18964  0.99274  0.37374     O
O      0.19044  0.62464  0.02465     O
O      0.19044  0.87544  0.47545     O
C      0.19067  0.16027  0.50007     C
C      0.19067  0.33987    7e-05     C
H       0.1944   0.1954   0.0001     H
H       0.1944   0.3046   0.4999     H
H       0.1954   0.0001   0.1944     H
H       0.1954   0.4999   0.3056     H
H       0.1955   0.6958   0.4756     H
H       0.1955   0.8042   0.0244     H
H       0.1958   0.5244   0.6955     H
H       0.1958   0.9756   0.8045     H
O      0.20884  0.52394  0.90944     O
O      0.20884  0.97614  0.59064     O
O      0.20904  0.09154  0.49204     O
O      0.20904  0.40854  0.00804     O
C      0.21357  0.00018  0.24339     C
C      0.21357  0.49998  0.25679     C
C      0.21427  0.74459  0.47579     C
C      0.21427  0.75559  0.02439     C
C      0.24339  0.21357  0.00018     C
C      0.24339  0.28657  0.49998     C
C      0.24459  0.52439  0.71427     C
C      0.24459  0.97579  0.78587     C
C      0.25559  0.52439  0.78587     C
C      0.25559  0.97579  0.71427     C
C      0.25679  0.21357  0.49998     C
C      0.25679  0.28657  0.00018     C
C      0.28587  0.74459  0.02439     C
C      0.28587  0.75559  0.47579     C
C      0.28657  0.00018  0.25679     C
C      0.28657  0.49998  0.24339     C
O      0.29104  0.09154  0.00804     O
O      0.29104  0.40854  0.49204     O
O      0.29124  0.52394  0.59064     O
O      0.29124  0.97614  0.90944     O
H       0.3042   0.5244   0.8045     H
H       0.3042   0.9756   0.6955     H
H       0.3045   0.6958   0.0244     H
H       0.3045   0.8042   0.4756     H
H       0.3046   0.0001   0.3056     H
H       0.3046   0.4999   0.1944     H
H       0.3056   0.1954   0.4999     H
H       0.3056   0.3046   0.0001     H
C      0.30947  0.16027    7e-05     C
C      0.30947  0.33987  0.50007     C
O      0.30964  0.62464  0.47545     O
O      0.30964  0.87544  0.02465     O
O      0.31044  0.50734  0.37374     O
O      0.31044  0.99274  0.12634     O
C      0.31097  0.52407  0.66047     C
C      0.31097  0.97607  0.83967     C
C      0.33967  0.68917  0.47607     C
C      0.33967  0.81097  0.02407     C
C      0.33987    7e-05  0.19067     C
C      0.33987  0.50007  0.30947     C
Zr    0.362154 0.511134 0.488124    Zr
Zr    0.362154 0.988874 0.011884    Zr
O      0.37374  0.18964  0.99274     O
O      0.37374  0.31044  0.50734     O
O      0.37544  0.52465  0.69044     O
O      0.37544  0.97545  0.80964     O
O      0.40839  0.06471  0.92351     O
O      0.40839  0.43531  0.57651     O
O      0.40854  0.00804  0.20904     O
O      0.40854  0.49204  0.29104     O
O      0.40944  0.70884  0.47614     O
O      0.40944  0.79124  0.02394     O
O      0.42157  0.07857  0.07857     O
O      0.42157  0.42157  0.42157     O
O      0.42351  0.59179  0.56471     O
O      0.42351  0.90839  0.93531     O
O      0.43531  0.57651  0.40839     O
O      0.43531  0.92351  0.09179     O
O      0.47545  0.19044  0.87544     O
O      0.47545  0.30964  0.62464     O
H       0.4756   0.1955   0.6958     H
H       0.4756   0.3045   0.8042     H
C      0.47579  0.21427  0.74459     C
C      0.47579  0.28587  0.75559     C
C      0.47607  0.16047  0.81097     C
C      0.47607  0.33967  0.68917     C
O      0.47614  0.09064  0.79124     O
O      0.47614  0.40944  0.70884     O
Zr    0.488124 0.137854 0.988874    Zr
Zr    0.488124 0.362154 0.511134    Zr
Zr    0.488874 0.511884 0.637854    Zr
Zr    0.488874 0.988124 0.862154    Zr
O      0.49204  0.20904  0.09154     O
O      0.49204  0.29104  0.40854     O
O      0.49274  0.62634  0.68964     O
O      0.49274  0.87374  0.81044     O
H       0.4999   0.1944   0.3046     H
H       0.4999   0.3056   0.1954     H
C      0.49998  0.24339  0.28657     C
C      0.49998  0.25679  0.21357     C
C      0.50007  0.19067  0.16027     C
C      0.50007  0.30947  0.33987     C
C      0.50007  0.69067  0.66027     C
C      0.50007  0.80947  0.83987     C
H       0.5001   0.6944   0.8046     H
H       0.5001   0.8056   0.6954     H
C      0.50018  0.74339  0.78657     C
C      0.50018  0.75679  0.71357     C
O      0.50734  0.12634  0.18964     O
O      0.50734  0.37374  0.31044     O
O      0.50804  0.70904  0.59154     O
O      0.50804  0.79104  0.90854     O
Zr    0.511134 0.011884 0.137854    Zr
Zr    0.511134 0.488124 0.362154    Zr
Zr    0.511884 0.637854 0.488874    Zr
Zr    0.511884 0.862154 0.011134    Zr
O      0.52394  0.59064  0.29124     O
O      0.52394  0.90944  0.20884     O
C      0.52407  0.66047  0.31097     C
C      0.52407  0.83967  0.18917     C
C      0.52439  0.71427  0.24459     C
C      0.52439  0.78587  0.25559     C
H       0.5244   0.6955   0.1958     H
H       0.5244   0.8045   0.3042     H
O      0.52465  0.69044  0.37544     O
O      0.52465  0.80964  0.12464     O
O      0.56471  0.07651  0.90839     O
O      0.56471  0.42351  0.59179     O
O      0.57651  0.09179  0.06471     O
O      0.57651  0.40839  0.43531     O
O      0.57857  0.57857  0.57857     O
O      0.57857  0.92157  0.92157     O
O      0.59064  0.20884  0.97614     O
O      0.59064  0.29124  0.52394     O
O      0.59154  0.50804  0.70904     O
O      0.59154  0.99204  0.79104     O
O      0.59179  0.56471  0.42351     O
O      0.59179  0.93531  0.07651     O
O      0.62464  0.02465  0.19044     O
O      0.62464  0.47545  0.30964     O
O      0.62634  0.68964  0.49274     O
O      0.62634  0.81044  0.00734     O
Zr    0.637854 0.011134 0.988124    Zr
Zr    0.637854 0.488874 0.511884    Zr
C      0.66027    7e-05  0.80947     C
C      0.66027  0.50007  0.69067     C
C      0.66047  0.18917  0.97607     C
C      0.66047  0.31097  0.52407     C
C      0.68917  0.02407  0.16047     C
C      0.68917  0.47607  0.33967     C
O      0.68964  0.00734  0.87374     O
O      0.68964  0.49274  0.62634     O
O      0.69044  0.12464  0.97545     O
O      0.69044  0.37544  0.52465     O
C      0.69067  0.66027  0.50007     C
C      0.69067  0.83987    7e-05     C
H       0.6944   0.6954   0.9999     H
H       0.6944   0.8046   0.5001     H
H       0.6954   0.5001   0.8056     H
H       0.6954   0.9999   0.6944     H
H       0.6955   0.1958   0.5244     H
H       0.6955   0.3042   0.9756     H
H       0.6958   0.0244   0.3045     H
H       0.6958   0.4756   0.1955     H
O      0.70884  0.02394  0.09064     O
O      0.70884  0.47614  0.40944     O
O      0.70904  0.59154  0.50804     O
O      0.70904  0.90854  0.99204     O
C      0.71357  0.50018  0.75679     C
C      0.71357  0.99998  0.74339     C
C      0.71427  0.24459  0.52439     C
C      0.71427  0.25559  0.97579     C
C      0.74339  0.71357  0.99998     C
C      0.74339  0.78657  0.50018     C
C      0.74459  0.02439  0.28587     C
C      0.74459  0.47579  0.21427     C
C      0.75559  0.02439  0.21427     C
C      0.75559  0.47579  0.28587     C
C      0.75679  0.71357  0.50018     C
C      0.75679  0.78657  0.99998     C
C      0.78587  0.24459  0.97579     C
C      0.78587  0.25559  0.52439     C
C      0.78657  0.50018  0.74339     C
C      0.78657  0.99998  0.75679     C
O      0.79104  0.59154  0.99204     O
O      0.79104  0.90854  0.50804     O
O      0.79124  0.02394  0.40944     O
O      0.79124  0.47614  0.09064     O
H       0.8042   0.0244   0.1955     H
H       0.8042   0.4756   0.3045     H
H       0.8045   0.1958   0.9756     H
H       0.8045   0.3042   0.5244     H
H       0.8046   0.5001   0.6944     H
H       0.8046   0.9999   0.8056     H
H       0.8056   0.6954   0.5001     H
H       0.8056   0.8046   0.9999     H
C      0.80947  0.66027    7e-05     C
C      0.80947  0.83987  0.50007     C
O      0.80964  0.12464  0.52465     O
O      0.80964  0.37544  0.97545     O
O      0.81044  0.00734  0.62634     O
O      0.81044  0.49274  0.87374     O
C      0.81097  0.02407  0.33967     C
C      0.81097  0.47607  0.16047     C
C      0.83967  0.18917  0.52407     C
C      0.83967  0.31097  0.97607     C
C      0.83987    7e-05  0.69067     C
C      0.83987  0.50007  0.80947     C
Zr    0.862154 0.011134 0.511884    Zr
Zr    0.862154 0.488874 0.988124    Zr
O      0.87374  0.68964  0.00734     O
O      0.87374  0.81044  0.49274     O
O      0.87544  0.02465  0.30964     O
O      0.87544  0.47545  0.19044     O
O      0.90839  0.56471  0.07651     O
O      0.90839  0.93531  0.42351     O
O      0.90854  0.50804  0.79104     O
O      0.90854  0.99204  0.70904     O
O      0.90944  0.20884  0.52394     O
O      0.90944  0.29124  0.97614     O
O      0.92157  0.57857  0.92157     O
O      0.92157  0.92157  0.57857     O
O      0.92351  0.09179  0.43531     O
O      0.92351  0.40839  0.06471     O
O      0.93531  0.07651  0.59179     O
O      0.93531  0.42351  0.90839     O
O      0.97545  0.69044  0.12464     O
O      0.97545  0.80964  0.37544     O
H       0.9756   0.6955   0.3042     H
H       0.9756   0.8045   0.1958     H
C      0.97579  0.71427  0.25559     C
C      0.97579  0.78587  0.24459     C
C      0.97607  0.66047  0.18917     C
C      0.97607  0.83967  0.31097     C
O      0.97614  0.59064  0.20884     O
O      0.97614  0.90944  0.29124     O
Zr    0.988124 0.637854 0.011134    Zr
Zr    0.988124 0.862154 0.488874    Zr
Zr    0.988874 0.011884 0.362154    Zr
Zr    0.988874 0.488124 0.137854    Zr
O      0.99204  0.70904  0.90854     O
O      0.99204  0.79104  0.59154     O
O      0.99274  0.12634  0.31044     O
O      0.99274  0.37374  0.18964     O
H       0.9999   0.6944   0.6954     H
H       0.9999   0.8056   0.8046     H
C      0.99998  0.74339  0.71357     C
C      0.99998  0.75679  0.78657     C
