data_I
_chemical_name_common  '/home/zhangsd/repos/MofS-CGCNN/ML/data/WS24/clean_cifs/MOF-69C'
_cell_length_a 17.66430
_cell_length_b 14.84820
_cell_length_c 18.12930
_cell_angle_alpha 90.00000
_cell_angle_beta  112.14020
_cell_angle_gamma 90.00000
_space_group_name_H-M_alt      'P 1'


loop_
_space_group_symop_operation_xyz
  'x, y, z' 

loop_
_atom_site_label
_atom_site_fract_x
_atom_site_fract_y
_atom_site_fract_z
_atom_site_type_symbol
Zn         0.0      0.0      0.0    Zn
Zn    0.0003811 0.00381111 0.3343801    Zn
Zn    0.0021431 0.09549612 0.8331591    Zn
Zn    0.0026331 0.09820112 0.1663841    Zn
Zn    0.0035431 0.09847012 0.5049541    Zn
O     0.045847 0.865017 0.671336     O
O     0.047488 0.996857 0.787967     O
O     0.047988 0.998097 0.121527     O
O     0.048258 0.000937 0.456617     O
O     0.051296 0.872177 0.345006     O
O     0.060487 0.126437 0.009816     O
O     0.074387 0.818627 0.567406     O
O     0.075187 0.823148 0.908636     O
O     0.084677 0.835358 0.241796     O
O     0.084757 0.171608 0.242076     O
C     0.085479 0.819191 0.641249     C
H     0.090113  0.99931 0.135911     H
O     0.090917 0.164968 0.905176     O
H     0.092013 0.999611 0.472013     H
H     0.093313 0.994011 0.804513     H
O     0.093917 0.161128 0.583886     O
C     0.096979 0.835991 0.315629     C
O     0.104576 0.933467 0.998736     O
C     0.104679 0.163551 0.979399     C
O     0.109606 0.062117 0.332946     O
O     0.113066 0.048737 0.671156     O
C     0.116269 0.8568911 0.976029     C
C     0.123129 0.1382111 0.310519     C
C     0.133709 0.1213711 0.648979     C
C     0.153729 0.761361 0.695509     C
H       0.1602   0.8191   0.4733     H
H       0.1622   0.8268   0.7972     H
H       0.1647   0.6772   0.6114     H
H       0.1683   0.1809   0.1367     H
H       0.1722   0.6972   0.9535     H
C     0.173459 0.789961 0.368889     C
H       0.1769   0.2995   0.2891     H
C     0.181449 0.2097611 0.032389     C
C     0.184429 0.8004311 0.030919     C
C     0.186599 0.7815211 0.776439     C
C     0.187381 0.6919011 0.666429     C
C     0.190349 0.1950811 0.366139     C
C     0.195001 0.7910711 0.450959     C
C     0.202761 0.7177511 0.006019     C
C     0.203051 0.2089411 0.114369     C
C     0.207851 0.2785711 0.341339     C
H       0.2105   0.7482   0.2804     H
C     0.210809 0.1671811 0.702399     C
H       0.2177   0.2521    0.944     H
H       0.2178    0.888   0.1245     H
H       0.2219   0.2512   0.6185     H
H       0.2224   0.1084   0.4602     H
H       0.2244    0.095   0.8023     H
C     0.224981 0.7487811 0.336519     C
C     0.229721 0.8311211 0.107449     C
C     0.232601 0.2511911  6.9e-05     C
C     0.234741 0.1649211 0.442889     C
C     0.245241 0.2356611 0.673329     C
C     0.245981 0.1438212 0.782539     C
C     0.254021 0.6438212 0.717479     C
C     0.254761 0.7356611 0.826689     C
C     0.265261 0.6649211 0.057129     C
C     0.267401 0.7511911 0.499949     C
C     0.270281 0.3311211 0.392569     C
C     0.275021 0.2487811 0.163499     C
H       0.2756    0.595   0.6977     H
H       0.2776   0.6084   0.0398     H
H       0.2781   0.7512   0.8815     H
H       0.2822    0.388   0.3755     H
H       0.2823   0.7521    0.556     H
C     0.289209 0.6671811 0.797619     C
H       0.2895   0.2482   0.2196     H
C     0.292151 0.7785711 0.158679     C
C     0.296951 0.7089411 0.385649     C
C     0.297241 0.2177511 0.493999     C
C     0.305001 0.2910711 0.049059     C
C     0.309669 0.6950811 0.133879     C
C     0.312621 0.1919011 0.833589     C
C     0.313419 0.2815211 0.723579     C
C     0.315589 0.3004311 0.469099     C
C     0.318569 0.7097611 0.467629     C
H       0.3231   0.7995   0.2109     H
C     0.326559 0.289961 0.131129     C
H       0.3278   0.1972   0.5465     H
H       0.3317   0.6809   0.3633     H
H       0.3353   0.1772   0.8886     H
H       0.3378   0.3268   0.7028     H
H       0.3398   0.3191   0.0267     H
C     0.346289 0.261361 0.804509     C
C     0.366309 0.6213711 0.851039     C
C     0.376889 0.6382111 0.189499     C
C     0.383749 0.3568911 0.523989     C
O     0.386946 0.548737 0.828856     O
O     0.390406 0.562117 0.167066     O
C     0.395339 0.663551 0.520619     C
O     0.395436 0.433467 0.501276     O
C     0.403039 0.335991 0.184389     C
O     0.406097 0.661128 0.916126     O
H     0.406713 0.494011 0.695513     H
H     0.408013 0.499611 0.028013     H
O     0.409097 0.664968 0.594836     O
H     0.409913  0.49931 0.364111     H
C     0.414539 0.319191 0.858769     C
O     0.415257 0.671608 0.257936     O
O     0.415337 0.335358 0.258216     O
O     0.424827 0.323148 0.591376     O
O     0.425627 0.318627 0.932606     O
O     0.439527 0.626437 0.490196     O
O     0.448716 0.372177 0.155006     O
O     0.451758 0.500937 0.043397     O
O     0.452028 0.498097 0.378487     O
O     0.452528 0.496857 0.712047     O
O     0.454167 0.365017 0.828676     O
Zn    0.4964571 0.59847012 0.9950461    Zn
Zn    0.4973671 0.59820112 0.3336161    Zn
Zn    0.4978571 0.59549612 0.6668411    Zn
Zn    0.4996191 0.50381111 0.1656201    Zn
Zn         0.5      0.5      0.5    Zn
Zn    0.5003811 0.49618911 0.8343801    Zn
Zn    0.5021431 0.40450412 0.3331591    Zn
Zn    0.5026331 0.40179912 0.6663841    Zn
Zn    0.5035431 0.40153012 0.0049541    Zn
O     0.545847 0.634997 0.171336     O
O     0.547488 0.503157 0.287967     O
O     0.547988 0.501917 0.621527     O
O     0.548258 0.499077 0.956617     O
O     0.551296 0.627837 0.845006     O
O     0.560487 0.373577 0.509816     O
O     0.574387 0.681387 0.067406     O
O     0.575187 0.676868 0.408636     O
O     0.584677 0.664658 0.741796     O
O     0.584757 0.328408 0.742076     O
C     0.585479 0.680811 0.141249     C
H     0.590113  0.50071 0.635911     H
O     0.590917 0.335048 0.405176     O
H     0.592013 0.500411 0.972013     H
H     0.593313 0.506011 0.304513     H
O     0.593917 0.338888 0.083886     O
C     0.596979 0.664011 0.815629     C
O     0.604576 0.566547 0.498736     O
C     0.604679 0.336451 0.479399     C
O     0.609606 0.437897 0.832946     O
O     0.613066 0.451277 0.171156     O
C     0.616269 0.6431111 0.476029     C
C     0.623129 0.3617911 0.810519     C
C     0.633709 0.3786311 0.148979     C
C     0.653729 0.738641 0.195509     C
H       0.6602   0.6809   0.9733     H
H       0.6622   0.6732   0.2972     H
H       0.6647   0.8228   0.1114     H
H       0.6683   0.3191   0.6367     H
H       0.6722   0.8028   0.4535     H
C     0.673459 0.710041 0.868889     C
H       0.6769   0.2005   0.7891     H
C     0.681449 0.2902411 0.532389     C
C     0.684429 0.6995711 0.530919     C
C     0.686599 0.7184811 0.276439     C
C     0.687381 0.8081011 0.166429     C
C     0.690349 0.3049211 0.866139     C
C     0.695001 0.7089311 0.950959     C
C     0.702761 0.7822511 0.506019     C
C     0.703051 0.2910611 0.614369     C
C     0.707851 0.2214311 0.841339     C
H       0.7105   0.7518   0.7804     H
C     0.710809 0.3328211 0.202399     C
H       0.7177   0.2479    0.444     H
H       0.7178    0.612   0.6245     H
H       0.7219   0.2488   0.1185     H
H       0.7224   0.3916   0.9602     H
H       0.7244    0.405   0.3023     H
C     0.724981 0.7512211 0.836519     C
C     0.729721 0.6688811 0.607449     C
C     0.732601 0.2488111 0.500069     C
C     0.734741 0.3350811 0.942889     C
C     0.745241 0.2643411 0.173329     C
C     0.745981 0.3561812 0.282539     C
C     0.754021 0.8561812 0.217479     C
C     0.754761 0.7643411 0.326689     C
C     0.765261 0.8350811 0.557129     C
C     0.767401 0.7488111 0.999949     C
C     0.770281 0.1688811 0.892569     C
C     0.775021 0.2512211 0.663499     C
H       0.7756    0.905   0.1977     H
H       0.7776   0.8916   0.5398     H
H       0.7781   0.7488   0.3815     H
H       0.7822    0.112   0.8755     H
H       0.7823   0.7479    0.056     H
C     0.789209 0.8328211 0.297619     C
H       0.7895   0.2518   0.7196     H
C     0.792151 0.7214311 0.658679     C
C     0.796951 0.7910611 0.885649     C
C     0.797241 0.2822511 0.993999     C
C     0.805001 0.2089311 0.549059     C
C     0.809669 0.8049211 0.633879     C
C     0.812621 0.3081011 0.333589     C
C     0.813419 0.2184811 0.223579     C
C     0.815589 0.1995711 0.969099     C
C     0.818569 0.7902411 0.967629     C
H       0.8231   0.7005   0.7109     H
C     0.826559 0.210041 0.631129     C
H       0.8278   0.3028   0.0465     H
H       0.8317   0.8191   0.8633     H
H       0.8353   0.3228   0.3886     H
H       0.8378   0.1732   0.2028     H
H       0.8398   0.1809   0.5267     H
C     0.846289 0.238641 0.304509     C
C     0.866309 0.8786311 0.351039     C
C     0.876889 0.8617911 0.689499     C
C     0.883749 0.1431111 0.023989     C
O     0.886946 0.951277 0.328856     O
O     0.890406 0.937897 0.667066     O
C     0.895339 0.836451 0.020619     C
O     0.895436 0.066547 0.001276     O
C     0.903039 0.164011 0.684389     C
O     0.906097 0.838888 0.416126     O
H     0.906713 0.006011 0.195513     H
H     0.908013 0.000411 0.528013     H
O     0.909097 0.835048 0.094836     O
H     0.909913  0.00071 0.864111     H
C     0.914539 0.180811 0.358769     C
O     0.915257 0.828408 0.757936     O
O     0.915337 0.164658 0.758216     O
O     0.924827 0.176868 0.091376     O
O     0.925627 0.181387 0.432606     O
O     0.939527 0.873577 0.990196     O
O     0.948716 0.127837 0.655006     O
O     0.951758 0.999077 0.543397     O
O     0.952028 0.001917 0.878487     O
O     0.952528 0.003157 0.212047     O
O     0.954167 0.134997 0.328676     O
Zn    0.9964571 0.90153012 0.4950461    Zn
Zn    0.9973671 0.90179912 0.8336161    Zn
Zn    0.9978571 0.90450412 0.1668411    Zn
Zn    0.9996191 0.99618911 0.6656201    Zn
