data_I
_chemical_name_common  '/home/zhangsd/repos/MofS-CGCNN/ML/data/WS24/clean_cifs/MOF-545'
_cell_length_a 42.68060
_cell_length_b 42.68060
_cell_length_c 16.66030
_cell_angle_alpha 90.00000
_cell_angle_beta  90.00000
_cell_angle_gamma 120.00000
_space_group_name_H-M_alt      'P 1'


loop_
_space_group_symop_operation_xyz
  'x, y, z' 

loop_
_atom_site_label
_atom_site_fract_x
_atom_site_fract_y
_atom_site_fract_z
_atom_site_type_symbol
O          0.0 0.4059316  0.40245     O
O          0.0 0.4059316  0.59765     O
Zr         0.0 0.458782 0.394365    Zr
Zr         0.0 0.458782 0.605645    Zr
O          0.0  0.46162  0.26194     O
O          0.0  0.46162  0.73814     O
O          0.0  0.53842  0.26194     O
O          0.0  0.53842  0.73814     O
Zr         0.0 0.541222 0.394365    Zr
Zr         0.0 0.541222 0.605645    Zr
O          0.0 0.5940716  0.40245     O
O          0.0 0.5940716  0.59765     O
Zr       3e-06 0.458782 0.394365    Zr
Zr       3e-06 0.458782 0.605645    Zr
Zr       3e-06 0.541222 0.394365    Zr
Zr       3e-06 0.541222 0.605645    Zr
H       0.0162   0.4586   0.2439     H
H       0.0162   0.4586   0.7561     H
H       0.0162   0.5576   0.2439     H
H       0.0162   0.5576   0.7561     H
H       0.0195   0.4089   0.3868     H
H       0.0195   0.4089   0.6132     H
H       0.0195   0.6106   0.3868     H
H       0.0195   0.6106   0.6132     H
O     0.0317616  0.47503      0.5     O
O     0.0317616  0.55682      0.5     O
O      0.03303 0.516518  0.39324     O
O      0.03303 0.516518  0.60684     O
O     0.0539212 0.4688218  0.35284     O
O     0.0539212 0.4688218  0.64724     O
O     0.0539212  0.58513  0.35284     O
O     0.0539212  0.58513  0.64724     O
Zr    0.066482 0.53324011      0.5    Zr
Zr    0.066483 0.53324011      0.5    Zr
H       0.0811    0.443   0.2708     H
H       0.0811    0.443   0.7292     H
H       0.0811   0.6381   0.2708     H
H       0.0811   0.6381   0.7292     H
C      0.08624  0.49302  0.36715     C
C      0.08624  0.49302  0.63295     C
C      0.08624  0.59323  0.36715     C
C      0.08624  0.59323  0.63295     C
O     0.097199 0.5177313  0.41944     O
O     0.097199 0.5177313  0.58064     O
O     0.097199 0.5794616  0.41944     O
O     0.097199 0.5794616  0.58064     O
C      0.10442  0.46274  0.26767     C
C      0.10442  0.46274  0.73247     C
C      0.10442  0.64174  0.26767     C
C      0.10442  0.64174  0.73247     C
C      0.11472  0.49194  0.31485     C
C      0.11472  0.49194  0.68525     C
C      0.11472  0.62284  0.31485     C
C      0.11472  0.62284  0.68525     C
H       0.1242   0.4427   0.1799     H
H       0.1242   0.4427   0.8201     H
H       0.1242   0.6815   0.1799     H
H       0.1242   0.6815   0.8201     H
C      0.13034  0.46264  0.21255     C
C      0.13034  0.46264  0.78755     C
C      0.13034  0.66775  0.21255     C
C      0.13034  0.66775  0.78755     C
H       0.1313    0.496   0.0722     H
H       0.1313    0.496   0.9278     H
H       0.1313   0.6353   0.0722     H
H       0.1313   0.6353   0.9278     H
C      0.14882  0.49574  0.03914     C
C      0.14882  0.49574  0.96094     C
C      0.14882  0.65314  0.03914     C
C      0.14882  0.65314  0.96094     C
C      0.14942  0.52062  0.31195     C
C      0.14942  0.52062  0.68815     C
C      0.14942  0.62883  0.31195     C
C      0.14942  0.62883  0.68815     C
H       0.1559   0.5402   0.3457     H
H       0.1559   0.5402   0.6543     H
H       0.1559   0.6157   0.3457     H
H       0.1559   0.6157   0.6543     H
C      0.16492  0.49344  0.20915     C
C      0.16492  0.49344  0.79095     C
C      0.16492  0.67154  0.20915     C
C      0.16492  0.67154  0.79095     C
C      0.17482  0.52134  0.26115     C
C      0.17482  0.52134  0.73895     C
C      0.17482  0.65354  0.26115     C
C      0.17482  0.65354  0.73895     C
C      0.18122  0.49534  0.06535     C
C      0.18122  0.49534  0.93475     C
C      0.18122  0.68594  0.06535     C
C      0.18122  0.68594  0.93475     C
C      0.18992  0.49384  0.14455     C
C      0.18992  0.49384  0.85555     C
C      0.18992  0.69614  0.14455     C
C      0.18992  0.69614  0.85555     C
H       0.1984   0.5405    0.262     H
H       0.1984   0.5405    0.738     H
H       0.1984   0.6579    0.262     H
H       0.1984   0.6579    0.738     H
N      0.19972  0.49354      0.0     N
N      0.19972  0.70624      0.0     N
H       0.2122   0.4818   0.2979     H
H       0.2122   0.4818   0.7021     H
H       0.2122   0.7304   0.2979     H
H       0.2122   0.7304   0.7021     H
Cl     0.21484  0.42967      0.0    Cl
Cl     0.21487  0.78524      0.0    Cl
C      0.21902  0.48934  0.17135     C
C      0.21902  0.48934  0.82875     C
C      0.21902  0.72974  0.17135     C
C      0.21902  0.72974  0.82875     C
C      0.22642  0.48444  0.25345     C
C      0.22642  0.48444  0.74665     C
C      0.22642  0.74205  0.25345     C
C      0.22642  0.74205  0.74665     C
N      0.24654 0.7534516  0.12125     N
N      0.24654 0.7534516  0.87885     N
N     0.2465516  0.49314  0.12125     N
N     0.2465516  0.49314  0.87885     N
Fe    0.2476013 0.752405      0.0    Fe
Fe    0.247605 0.4952011      0.0    Fe
C      0.25804  0.48444  0.25345     C
C      0.25804  0.48444  0.74665     C
C      0.25804  0.77366  0.25345     C
C      0.25804  0.77366  0.74665     C
H       0.2696   0.4818   0.2979     H
H       0.2696   0.4818   0.7021     H
H       0.2696   0.7878   0.2979     H
H       0.2696   0.7878   0.7021     H
C      0.27034  0.48934  0.17135     C
C      0.27034  0.48934  0.82875     C
C      0.27034  0.78102  0.17135     C
C      0.27034  0.78102  0.82875     C
Cl     0.27742  0.55484      0.0    Cl
Cl     0.27745  0.72262      0.0    Cl
N      0.29384  0.49354      0.0     N
N      0.29384  0.80032      0.0     N
C      0.30394  0.49384  0.14455     C
C      0.30394  0.49384  0.85555     C
C      0.30394  0.81012  0.14455     C
C      0.30394  0.81012  0.85555     C
C      0.31414  0.49534  0.06535     C
C      0.31414  0.49534  0.93475     C
C      0.31414  0.81882  0.06535     C
C      0.31414  0.81882  0.93475     C
H       0.3185   0.4427   0.1799     H
H       0.3185   0.4427   0.8201     H
H       0.3185   0.8758   0.1799     H
H       0.3185   0.8758   0.8201     H
C      0.32854  0.49344  0.20915     C
C      0.32854  0.49344  0.79095     C
C      0.32854  0.83512  0.20915     C
C      0.32854  0.83512  0.79095     C
C      0.33234  0.46264  0.21255     C
C      0.33234  0.46264  0.78755     C
C      0.33234  0.86975  0.21255     C
C      0.33234  0.86975  0.78755     C
H       0.3421   0.5405    0.262     H
H       0.3421   0.5405    0.738     H
H       0.3421   0.8016    0.262     H
H       0.3421   0.8016    0.738     H
C      0.34654  0.52134  0.26115     C
C      0.34654  0.52134  0.73895     C
C      0.34654  0.82522  0.26115     C
C      0.34654  0.82522  0.73895     C
C      0.34694  0.49574  0.03914     C
C      0.34694  0.49574  0.96094     C
C      0.34694  0.85122  0.03914     C
C      0.34694  0.85122  0.96094     C
C      0.35834  0.46274  0.26767     C
C      0.35834  0.46274  0.73247     C
C      0.35834  0.89562  0.26767     C
C      0.35834  0.89562  0.73247     C
H       0.3619    0.443   0.2708     H
H       0.3619    0.443   0.7292     H
H       0.3619   0.9189   0.2708     H
H       0.3619   0.9189   0.7292     H
H       0.3647    0.496   0.0722     H
H       0.3647    0.496   0.9278     H
H       0.3647   0.8687   0.0722     H
H       0.3647   0.8687   0.9278     H
C      0.37123  0.52062  0.31195     C
C      0.37123  0.52062  0.68815     C
C      0.37123  0.85062  0.31195     C
C      0.37123  0.85062  0.68815     C
C      0.37724  0.49194  0.31485     C
C      0.37724  0.49194  0.68525     C
C      0.37724  0.88532  0.31485     C
C      0.37724  0.88532  0.68525     C
H       0.3843   0.5402   0.3457     H
H       0.3843   0.5402   0.6543     H
H       0.3843   0.8441   0.3457     H
H       0.3843   0.8441   0.6543     H
H       0.3894   0.4089   0.3868     H
H       0.3894   0.4089   0.6132     H
H       0.3894   0.9805   0.3868     H
H       0.3894   0.9805   0.6132     H
O     0.4059316      0.0  0.40245     O
O     0.4059316      0.0  0.59765     O
O     0.4059316 0.4059316  0.40245     O
O     0.4059316 0.4059316  0.59765     O
C      0.40673  0.49302  0.36715     C
C      0.40673  0.49302  0.63295     C
C      0.40673 0.9137516  0.36715     C
C      0.40673 0.9137516  0.63295     C
H       0.4089   0.0195   0.3868     H
H       0.4089   0.0195   0.6132     H
H       0.4089   0.3894   0.3868     H
H       0.4089   0.3894   0.6132     H
O      0.41493 0.4688218  0.35284     O
O      0.41493 0.4688218  0.64724     O
O      0.41493 0.9460812  0.35284     O
O      0.41493 0.9460812  0.64724     O
O     0.4205416 0.5177313  0.41944     O
O     0.4205416 0.5177313  0.58064     O
O     0.4205416 0.902819  0.41944     O
O     0.4205416 0.902819  0.58064     O
Cl     0.42967  0.21487      0.0    Cl
H       0.4424   0.4586   0.2439     H
H       0.4424   0.4586   0.7561     H
H       0.4424   0.9838   0.2439     H
H       0.4424   0.9838   0.7561     H
H       0.4427   0.1242   0.1799     H
H       0.4427   0.1242   0.8201     H
H       0.4427   0.3185   0.1799     H
H       0.4427   0.3185   0.8201     H
H        0.443   0.0811   0.2708     H
H        0.443   0.0811   0.7292     H
H        0.443   0.3619   0.2708     H
H        0.443   0.3619   0.7292     H
O      0.44322  0.47503      0.5     O
O      0.44322 0.9682416      0.5     O
Cl     0.44524  0.72265      0.0    Cl
H       0.4586   0.0162   0.2439     H
H       0.4586   0.0162   0.7561     H
H       0.4586   0.4424   0.2439     H
H       0.4586   0.4424   0.7561     H
Zr    0.458782      0.0 0.394365    Zr
Zr    0.458782      0.0 0.605645    Zr
Zr    0.458782    3e-06 0.394365    Zr
Zr    0.458782    3e-06 0.605645    Zr
Zr    0.458782 0.458782 0.394365    Zr
Zr    0.458782 0.458782 0.605645    Zr
H       0.4595   0.6579    0.262     H
H       0.4595   0.6579    0.738     H
H       0.4595   0.8016    0.262     H
H       0.4595   0.8016    0.738     H
H       0.4598   0.6157   0.3457     H
H       0.4598   0.6157   0.6543     H
H       0.4598   0.8441   0.3457     H
H       0.4598   0.8441   0.6543     H
O      0.46162      0.0  0.26194     O
O      0.46162      0.0  0.73814     O
O      0.46162  0.46162  0.26194     O
O      0.46162  0.46162  0.73814     O
C      0.46264  0.13034  0.21255     C
C      0.46264  0.13034  0.78755     C
C      0.46264  0.33234  0.21255     C
C      0.46264  0.33234  0.78755     C
C      0.46274  0.10442  0.26767     C
C      0.46274  0.10442  0.73247     C
C      0.46274  0.35834  0.26767     C
C      0.46274  0.35834  0.73247     C
Zr    0.46676011 0.533243      0.5    Zr
Zr    0.466763 0.933522      0.5    Zr
Zr    0.466763 0.933523      0.5    Zr
O     0.4688218 0.0539212  0.35284     O
O     0.4688218 0.0539212  0.64724     O
O     0.4688218  0.41493  0.35284     O
O     0.4688218  0.41493  0.64724     O
O      0.47503 0.0317616      0.5     O
O      0.47503  0.44322      0.5     O
C      0.47874  0.65354  0.26115     C
C      0.47874  0.65354  0.73895     C
C      0.47874  0.82522  0.26115     C
C      0.47874  0.82522  0.73895     C
C      0.47942  0.62883  0.31195     C
C      0.47942  0.62883  0.68815     C
C      0.47942  0.85062  0.31195     C
C      0.47942  0.85062  0.68815     C
H       0.4818   0.2122   0.2979     H
H       0.4818   0.2122   0.7021     H
H       0.4818   0.2696   0.2979     H
H       0.4818   0.2696   0.7021     H
O     0.4822713 0.5794616  0.41944     O
O     0.4822713 0.5794616  0.58064     O
O     0.4822713 0.902819  0.41944     O
O     0.4822713 0.902819  0.58064     O
O     0.4834819 0.9669717  0.39324     O
O     0.4834819 0.9669717  0.60684     O
O     0.483498 0.5165219  0.39324     O
O     0.483498 0.5165219  0.60684     O
C      0.48444  0.22642  0.25345     C
C      0.48444  0.22642  0.74665     C
C      0.48444  0.25804  0.25345     C
C      0.48444  0.25804  0.74665     C
C      0.48934  0.21902  0.17135     C
C      0.48934  0.21902  0.82875     C
C      0.48934  0.27034  0.17135     C
C      0.48934  0.27034  0.82875     C
C      0.49194  0.11472  0.31485     C
C      0.49194  0.11472  0.68525     C
C      0.49194  0.37724  0.31485     C
C      0.49194  0.37724  0.68525     C
C      0.49302  0.08624  0.36715     C
C      0.49302  0.08624  0.63295     C
C      0.49302  0.40673  0.36715     C
C      0.49302  0.40673  0.63295     C
N      0.49314  0.24654  0.12125     N
N      0.49314  0.24654  0.87885     N
C      0.49344  0.16492  0.20915     C
C      0.49344  0.16492  0.79095     C
C      0.49344  0.32854  0.20915     C
C      0.49344  0.32854  0.79095     C
N      0.49354  0.19972      0.0     N
N      0.49354  0.29384      0.0     N
C      0.49384  0.18992  0.14455     C
C      0.49384  0.18992  0.85555     C
C      0.49384  0.30394  0.14455     C
C      0.49384  0.30394  0.85555     C
Fe    0.4952011 0.2476013      0.0    Fe
C      0.49534  0.18122  0.06535     C
C      0.49534  0.18122  0.93475     C
C      0.49534  0.31414  0.06535     C
C      0.49534  0.31414  0.93475     C
C      0.49574  0.14882  0.03914     C
C      0.49574  0.14882  0.96094     C
C      0.49574  0.34694  0.03914     C
C      0.49574  0.34694  0.96094     C
H        0.496   0.1313   0.0722     H
H        0.496   0.1313   0.9278     H
H        0.496   0.3647   0.0722     H
H        0.496   0.3647   0.9278     H
H        0.504   0.6353   0.0722     H
H        0.504   0.6353   0.9278     H
H        0.504   0.8687   0.0722     H
H        0.504   0.8687   0.9278     H
C      0.50434  0.65314  0.03914     C
C      0.50434  0.65314  0.96094     C
C      0.50434  0.85122  0.03914     C
C      0.50434  0.85122  0.96094     C
C      0.50474  0.68594  0.06535     C
C      0.50474  0.68594  0.93475     C
C      0.50474  0.81882  0.06535     C
C      0.50474  0.81882  0.93475     C
Fe    0.5048011 0.7524013      0.0    Fe
C      0.50624  0.69614  0.14455     C
C      0.50624  0.69614  0.85555     C
C      0.50624  0.81012  0.14455     C
C      0.50624  0.81012  0.85555     C
N      0.50654  0.70624      0.0     N
N      0.50654  0.80032      0.0     N
C      0.50664  0.67154  0.20915     C
C      0.50664  0.67154  0.79095     C
C      0.50664  0.83512  0.20915     C
C      0.50664  0.83512  0.79095     C
N      0.50694  0.75354  0.12125     N
N      0.50694  0.75354  0.87885     N
C      0.50702  0.59323  0.36715     C
C      0.50702  0.59323  0.63295     C
C      0.50702 0.9137516  0.36715     C
C      0.50702 0.9137516  0.63295     C
C      0.50814  0.62284  0.31485     C
C      0.50814  0.62284  0.68525     C
C      0.50814  0.88532  0.31485     C
C      0.50814  0.88532  0.68525     C
C      0.51074  0.72974  0.17135     C
C      0.51074  0.72974  0.82875     C
C      0.51074  0.78102  0.17135     C
C      0.51074  0.78102  0.82875     C
C      0.51564  0.74204  0.25345     C
C      0.51564  0.74204  0.74665     C
C      0.51564  0.77362  0.25345     C
C      0.51564  0.77362  0.74665     C
O     0.516518 0.4834819  0.39324     O
O     0.516518 0.4834819  0.60684     O
O     0.5165219 0.0330317  0.39324     O
O     0.5165219 0.0330317  0.60684     O
O     0.5177313 0.097199  0.41944     O
O     0.5177313 0.097199  0.58064     O
O     0.5177313 0.4205416  0.41944     O
O     0.5177313 0.4205416  0.58064     O
H       0.5182   0.7304   0.2979     H
H       0.5182   0.7304   0.7021     H
H       0.5182   0.7878   0.2979     H
H       0.5182   0.7878   0.7021     H
C      0.52062  0.14942  0.31195     C
C      0.52062  0.14942  0.68815     C
C      0.52062  0.37123  0.31195     C
C      0.52062  0.37123  0.68815     C
C      0.52134  0.17482  0.26115     C
C      0.52134  0.17482  0.73895     C
C      0.52134  0.34654  0.26115     C
C      0.52134  0.34654  0.73895     C
O      0.52503  0.55682      0.5     O
O      0.52503  0.96824      0.5     O
O     0.5311818  0.58513  0.35284     O
O     0.5311818  0.58513  0.64724     O
O     0.5311818 0.9460812  0.35284     O
O     0.5311818 0.9460812  0.64724     O
Zr    0.53324011 0.466763      0.5    Zr
Zr    0.533243 0.066482      0.5    Zr
Zr    0.533243 0.066483      0.5    Zr
C      0.53734  0.64174  0.26767     C
C      0.53734  0.64174  0.73247     C
C      0.53734  0.89562  0.26767     C
C      0.53734  0.89562  0.73247     C
C      0.53744  0.66774  0.21255     C
C      0.53744  0.66774  0.78755     C
C      0.53744  0.86974  0.21255     C
C      0.53744  0.86974  0.78755     C
O      0.53842      0.0  0.26194     O
O      0.53842      0.0  0.73814     O
O      0.53842  0.53842  0.26194     O
O      0.53842  0.53842  0.73814     O
H       0.5402   0.1559   0.3457     H
H       0.5402   0.1559   0.6543     H
H       0.5402   0.3843   0.3457     H
H       0.5402   0.3843   0.6543     H
H       0.5405   0.1984    0.262     H
H       0.5405   0.1984    0.738     H
H       0.5405   0.3421    0.262     H
H       0.5405   0.3421    0.738     H
Zr    0.541222      0.0 0.394365    Zr
Zr    0.541222      0.0 0.605645    Zr
Zr    0.541222    3e-06 0.394365    Zr
Zr    0.541222    3e-06 0.605645    Zr
Zr    0.541222 0.541222 0.394365    Zr
Zr    0.541222 0.541222 0.605645    Zr
H       0.5414   0.5576   0.2439     H
H       0.5414   0.5576   0.7561     H
H       0.5414   0.9838   0.2439     H
H       0.5414   0.9838   0.7561     H
Cl     0.55484  0.27745      0.0    Cl
O      0.55682 0.0317616      0.5     O
O      0.55682  0.52503      0.5     O
H        0.557   0.6381   0.2708     H
H        0.557   0.6381   0.7292     H
H        0.557   0.9189   0.2708     H
H        0.557   0.9189   0.7292     H
H       0.5573   0.6815   0.1799     H
H       0.5573   0.6815   0.8201     H
H       0.5573   0.8758   0.1799     H
H       0.5573   0.8758   0.8201     H
H       0.5576   0.0162   0.2439     H
H       0.5576   0.0162   0.7561     H
H       0.5576   0.5414   0.2439     H
H       0.5576   0.5414   0.7561     H
Cl     0.57047  0.78527      0.0    Cl
O     0.5794616 0.097199  0.41944     O
O     0.5794616 0.097199  0.58064     O
O     0.5794616 0.4822713  0.41944     O
O     0.5794616 0.4822713  0.58064     O
O      0.58513 0.0539212  0.35284     O
O      0.58513 0.0539212  0.64724     O
O      0.58513 0.5311818  0.35284     O
O      0.58513 0.5311818  0.64724     O
H       0.5911   0.6106   0.3868     H
H       0.5911   0.6106   0.6132     H
H       0.5911   0.9805   0.3868     H
H       0.5911   0.9805   0.6132     H
C      0.59323  0.08624  0.36715     C
C      0.59323  0.08624  0.63295     C
C      0.59323  0.50702  0.36715     C
C      0.59323  0.50702  0.63295     C
O     0.5940716      0.0  0.40245     O
O     0.5940716      0.0  0.59765     O
O     0.5940716 0.5940716  0.40245     O
O     0.5940716 0.5940716  0.59765     O
H       0.6106   0.0195   0.3868     H
H       0.6106   0.0195   0.6132     H
H       0.6106   0.5911   0.3868     H
H       0.6106   0.5911   0.6132     H
H       0.6157   0.1559   0.3457     H
H       0.6157   0.1559   0.6543     H
H       0.6157   0.4598   0.3457     H
H       0.6157   0.4598   0.6543     H
C      0.62284  0.11472  0.31485     C
C      0.62284  0.11472  0.68525     C
C      0.62284  0.50814  0.31485     C
C      0.62284  0.50814  0.68525     C
C      0.62883  0.14942  0.31195     C
C      0.62883  0.14942  0.68815     C
C      0.62883  0.47942  0.31195     C
C      0.62883  0.47942  0.68815     C
H       0.6353   0.1313   0.0722     H
H       0.6353   0.1313   0.9278     H
H       0.6353    0.504   0.0722     H
H       0.6353    0.504   0.9278     H
H       0.6381   0.0811   0.2708     H
H       0.6381   0.0811   0.7292     H
H       0.6381    0.557   0.2708     H
H       0.6381    0.557   0.7292     H
C      0.64174  0.10442  0.26767     C
C      0.64174  0.10442  0.73247     C
C      0.64174  0.53734  0.26767     C
C      0.64174  0.53734  0.73247     C
C      0.65314  0.14882  0.03914     C
C      0.65314  0.14882  0.96094     C
C      0.65314  0.50434  0.03914     C
C      0.65314  0.50434  0.96094     C
C      0.65354  0.17482  0.26115     C
C      0.65354  0.17482  0.73895     C
C      0.65354  0.47874  0.26115     C
C      0.65354  0.47874  0.73895     C
H       0.6579   0.1984    0.262     H
H       0.6579   0.1984    0.738     H
H       0.6579   0.4595    0.262     H
H       0.6579   0.4595    0.738     H
C      0.66774  0.13035  0.21255     C
C      0.66774  0.13035  0.78755     C
C      0.66774  0.53744  0.21255     C
C      0.66774  0.53744  0.78755     C
C      0.67154  0.16492  0.20915     C
C      0.67154  0.16492  0.79095     C
C      0.67154  0.50664  0.20915     C
C      0.67154  0.50664  0.79095     C
H       0.6815   0.1242   0.1799     H
H       0.6815   0.1242   0.8201     H
H       0.6815   0.5573   0.1799     H
H       0.6815   0.5573   0.8201     H
C      0.68594  0.18122  0.06535     C
C      0.68594  0.18122  0.93475     C
C      0.68594  0.50474  0.06535     C
C      0.68594  0.50474  0.93475     C
C      0.69614  0.18992  0.14455     C
C      0.69614  0.18992  0.85555     C
C      0.69614  0.50624  0.14455     C
C      0.69614  0.50624  0.85555     C
N      0.70624  0.19972      0.0     N
N      0.70624  0.50654      0.0     N
Cl     0.72262  0.44524      0.0    Cl
Cl     0.72265  0.27742      0.0    Cl
C      0.72974  0.21902  0.17135     C
C      0.72974  0.21902  0.82875     C
C      0.72974  0.51074  0.17135     C
C      0.72974  0.51074  0.82875     C
H       0.7304   0.2122   0.2979     H
H       0.7304   0.2122   0.7021     H
H       0.7304   0.5182   0.2979     H
H       0.7304   0.5182   0.7021     H
C      0.74204  0.22646  0.25345     C
C      0.74204  0.22646  0.74665     C
C      0.74204  0.51564  0.25345     C
C      0.74204  0.51564  0.74665     C
Fe    0.7524013 0.247605      0.0    Fe
Fe    0.752405 0.5048011      0.0    Fe
N     0.7534516  0.50694  0.12125     N
N     0.7534516  0.50694  0.87885     N
N      0.75354 0.2465516  0.12125     N
N      0.75354 0.2465516  0.87885     N
C      0.77362  0.25805  0.25345     C
C      0.77362  0.25805  0.74665     C
C      0.77362  0.51564  0.25345     C
C      0.77362  0.51564  0.74665     C
C      0.78102  0.27034  0.17135     C
C      0.78102  0.27034  0.82875     C
C      0.78102  0.51074  0.17135     C
C      0.78102  0.51074  0.82875     C
Cl     0.78524  0.57047      0.0    Cl
Cl     0.78527  0.21484      0.0    Cl
H       0.7878   0.2696   0.2979     H
H       0.7878   0.2696   0.7021     H
H       0.7878   0.5182   0.2979     H
H       0.7878   0.5182   0.7021     H
N      0.80032  0.29384      0.0     N
N      0.80032  0.50654      0.0     N
H       0.8016   0.3421    0.262     H
H       0.8016   0.3421    0.738     H
H       0.8016   0.4595    0.262     H
H       0.8016   0.4595    0.738     H
C      0.81012  0.30394  0.14455     C
C      0.81012  0.30394  0.85555     C
C      0.81012  0.50624  0.14455     C
C      0.81012  0.50624  0.85555     C
C      0.81882  0.31414  0.06535     C
C      0.81882  0.31414  0.93475     C
C      0.81882  0.50474  0.06535     C
C      0.81882  0.50474  0.93475     C
C      0.82522  0.34654  0.26115     C
C      0.82522  0.34654  0.73895     C
C      0.82522  0.47874  0.26115     C
C      0.82522  0.47874  0.73895     C
C      0.83512  0.32854  0.20915     C
C      0.83512  0.32854  0.79095     C
C      0.83512  0.50664  0.20915     C
C      0.83512  0.50664  0.79095     C
H       0.8441   0.3843   0.3457     H
H       0.8441   0.3843   0.6543     H
H       0.8441   0.4598   0.3457     H
H       0.8441   0.4598   0.6543     H
C      0.85062  0.37123  0.31195     C
C      0.85062  0.37123  0.68815     C
C      0.85062  0.47942  0.31195     C
C      0.85062  0.47942  0.68815     C
C      0.85122  0.34694  0.03914     C
C      0.85122  0.34694  0.96094     C
C      0.85122  0.50434  0.03914     C
C      0.85122  0.50434  0.96094     C
H       0.8687   0.3647   0.0722     H
H       0.8687   0.3647   0.9278     H
H       0.8687    0.504   0.0722     H
H       0.8687    0.504   0.9278     H
C      0.86974  0.33235  0.21255     C
C      0.86974  0.33235  0.78755     C
C      0.86974  0.53744  0.21255     C
C      0.86974  0.53744  0.78755     C
H       0.8758   0.3185   0.1799     H
H       0.8758   0.3185   0.8201     H
H       0.8758   0.5573   0.1799     H
H       0.8758   0.5573   0.8201     H
C      0.88532  0.37724  0.31485     C
C      0.88532  0.37724  0.68525     C
C      0.88532  0.50814  0.31485     C
C      0.88532  0.50814  0.68525     C
C      0.89562  0.35834  0.26767     C
C      0.89562  0.35834  0.73247     C
C      0.89562  0.53734  0.26767     C
C      0.89562  0.53734  0.73247     C
O     0.902819 0.4205416  0.41944     O
O     0.902819 0.4205416  0.58064     O
O     0.902819 0.4822713  0.41944     O
O     0.902819 0.4822713  0.58064     O
C     0.9137516  0.40673  0.36715     C
C     0.9137516  0.40673  0.63295     C
C     0.9137516  0.50702  0.36715     C
C     0.9137516  0.50702  0.63295     C
H       0.9189   0.3619   0.2708     H
H       0.9189   0.3619   0.7292     H
H       0.9189    0.557   0.2708     H
H       0.9189    0.557   0.7292     H
Zr    0.933522 0.46676011      0.5    Zr
Zr    0.933523 0.46676011      0.5    Zr
O     0.9460812  0.41493  0.35284     O
O     0.9460812  0.41493  0.64724     O
O     0.9460812 0.5311818  0.35284     O
O     0.9460812 0.5311818  0.64724     O
O     0.9669717 0.483498  0.39324     O
O     0.9669717 0.483498  0.60684     O
O      0.96824  0.44325      0.5     O
O      0.96824  0.52503      0.5     O
H       0.9805   0.3894   0.3868     H
H       0.9805   0.3894   0.6132     H
H       0.9805   0.5911   0.3868     H
H       0.9805   0.5911   0.6132     H
H       0.9838   0.4424   0.2439     H
H       0.9838   0.4424   0.7561     H
H       0.9838   0.5414   0.2439     H
H       0.9838   0.5414   0.7561     H
