data_I
_chemical_name_common  '/home/zhangsd/repos/MofS-CGCNN/ML/data/WS24/clean_cifs/MOF-805'
_cell_length_a 23.98100
_cell_length_b 23.98100
_cell_length_c 23.98100
_cell_angle_alpha 90.00000
_cell_angle_beta  90.00000
_cell_angle_gamma 90.00000
_space_group_name_H-M_alt      'P 1'


loop_
_space_group_symop_operation_xyz
  'x, y, z' 

loop_
_atom_site_label
_atom_site_fract_x
_atom_site_fract_y
_atom_site_fract_z
_atom_site_type_symbol
Zr      0.0001   0.0001  0.10376    Zr
Zr      0.0001   0.0001  0.89644    Zr
Zr      0.0001  0.10376   0.0001    Zr
C       0.0001  0.27701  0.76316     C
Zr      0.0001  0.39634      0.5    Zr
Zr      0.0001      0.5  0.39634    Zr
Zr      0.0001      0.5  0.60366    Zr
Zr      0.0001  0.60366      0.5    Zr
C       0.0001   0.8236  0.82801     C
Zr      0.0001  0.89644   0.0001    Zr
C      0.00111  0.82637  0.17491     C
H      0.00136   0.1817  0.65658     H
C      0.00152   0.2213  0.67827     C
H      0.00153  0.38651  0.79241     H
C       0.0021  0.32645  0.73004     C
C      0.00221  0.17753  0.17135     C
O      0.00233  0.08116  0.14805     O
O      0.00233  0.35205  0.58106     O
O      0.00233  0.41894  0.64795     O
O      0.00233  0.58106  0.35205     O
O      0.00233  0.64795  0.41894     O
O      0.00233  0.91904  0.85215     O
O      0.00234  0.14805  0.08116     O
O      0.00234  0.85215  0.91904     O
O      0.00244  0.37798  0.75316     O
C      0.00331   0.2695  0.64621     C
C       0.0036  0.13196  0.13196     C
C       0.0036  0.36815  0.63186     C
C       0.0036  0.63186  0.36815     C
C       0.0036  0.86824  0.86824     C
C      0.00363  0.32238  0.67113     C
H      0.00446  0.26514  0.60127     H
C      0.00904  0.22424  0.26251     C
C      0.01445  0.17527  0.22909     C
C       0.0151  0.27237  0.35168     C
C      0.02066  0.22418  0.31994     C
C      0.02122  0.77021  0.74288     C
H      0.02475  0.26939  0.39571     H
C      0.02773   0.7476  0.25913     C
O      0.03112  0.12588  0.25083     O
C      0.03159  0.81684  0.77841     C
H      0.03425  0.18741  0.34192     H
C      0.04036  0.71591  0.65927     C
H      0.04066  0.11872  0.28919     H
C      0.04212  0.70853  0.30119     C
O      0.04373  0.04373  0.04373     O
O      0.04373  0.45637  0.54363     O
O      0.04373  0.54363  0.45638     O
O      0.04373  0.95647  0.95647     O
C      0.05115  0.76163  0.69324     C
C      0.05598  0.82014   0.1941     C
O      0.05834  0.05834  0.94186     O
O      0.05834  0.44176  0.44176     O
O      0.05834  0.55824  0.55824     O
O      0.05834  0.94186  0.05834     O
H      0.06497  0.71182  0.62162     H
C      0.06908  0.78161  0.23532     C
O      0.07091  0.85554   0.7663     O
O      0.08116  0.00233  0.14805     O
O      0.08116  0.14805  0.00234     O
O      0.08116  0.35205  0.50224     O
O      0.08116  0.49777  0.64795     O
O      0.08116  0.50224  0.35205     O
O      0.08116  0.64795  0.49777     O
O      0.08116  0.85215  0.99786     O
O      0.08116  0.99787  0.85215     O
H      0.08178  0.08178  0.91842     H
H      0.08178  0.41832  0.41832     H
H      0.08178  0.58168  0.58168     H
H      0.08178  0.91842  0.08178     H
H      0.08344  0.78956  0.67923     H
H       0.0894  0.84534  0.17712     H
H      0.09494  0.85586  0.73412     H
O      0.09642    0.706  0.31659     O
H      0.10312  0.26605  0.52255     H
Zr     0.10376   0.0001   0.0001    Zr
Zr     0.10376      0.5      0.5    Zr
H      0.10914  0.22367  0.07976     H
H      0.11222  0.77876  0.24839     H
H      0.11289  0.68209  0.34415     H
H      0.11871  0.56501  0.27967     H
H      0.11959  0.78326  0.93186     H
H      0.11959  0.94076  0.21675     H
H      0.12159  0.71792  0.43176     H
C      0.13196   0.0036  0.13196     C
C      0.13196  0.13196   0.0036     C
C      0.13196  0.36815   0.5035     C
C      0.13196   0.4965  0.63186     C
C      0.13196   0.5035  0.36815     C
C      0.13196  0.63186   0.4965     C
C      0.13196  0.86824   0.9966     C
C      0.13196   0.9966  0.86824     C
H      0.13704  0.08105  0.73116     H
H      0.13828  0.41361  0.77165     H
O      0.13929  0.05825  0.76415     O
O      0.14022  0.43539  0.73795     O
O      0.14326  0.24175  0.06922     O
C      0.14741  0.27008  0.51469     C
O      0.14805  0.00233  0.08116     O
O      0.14805  0.08116  0.00234     O
O      0.14805  0.41894  0.50224     O
O      0.14805  0.49777  0.58106     O
O      0.14805  0.50224  0.41894     O
O      0.14805  0.58106  0.49777     O
O      0.14805  0.91904  0.99786     O
O      0.14805  0.99786  0.91904     O
C      0.15725  0.54148  0.27867     C
C      0.15796  0.78104   0.9556     C
C      0.15796   0.9645  0.21896     C
H       0.1588  0.18279  0.52329     H
C      0.15922  0.71974  0.45669     C
C      0.17132  0.32243  0.50442     C
C      0.17207  0.50648  0.32309     C
C      0.17252  0.00205  0.17633     C
C      0.17252  0.82367  0.99315     C
C      0.17264  0.67651  0.49398     C
C      0.17633  0.17252  0.00205     C
C      0.17682  0.49955  0.67189     C
H      0.17682  0.70435  0.91763     H
H      0.17682  0.92653  0.29565     H
C      0.17683  0.99255  0.82816     C
H      0.17767  0.57468  0.19929     H
H      0.17922  0.79702  0.42054     H
C      0.17969  0.22199   0.5151     C
C      0.18104  0.02261  0.77749     C
C      0.18145  0.47118  0.72348     C
C      0.18178  0.22367  0.03205     C
C      0.19141  0.54701  0.23223     C
C       0.1917  0.73465  0.94729     C
C       0.1917   0.9562  0.26535     C
C       0.1932  0.76625  0.45015     C
H      0.20332  0.32184  0.08236     H
H      0.20405  0.07305  0.67652     H
H      0.20514  0.42432  0.82601     H
H      0.21653  0.55908  0.61676     H
H      0.21674  0.11959  0.94076     H
H      0.21739  0.93188  0.88138     H
C      0.21896  0.15796   0.9645     C
C      0.21896  0.53681  0.65598     C
C       0.2195  0.95541  0.84288     C
H      0.22142  0.60806  0.57211     H
C       0.2228  0.47636   0.3203     C
C      0.22285  0.68146  0.52559     C
C      0.22366  0.03205  0.18179     C
C      0.22366  0.81822  0.02315     C
H      0.22367  0.07976  0.10914     H
H      0.22367  0.89087  0.07085     H
C      0.22835  0.01482  0.74221     C
C      0.22863  0.48077   0.7585     C
C      0.22923  0.25797  0.02342     C
C      0.22939  0.32606  0.49431     C
H       0.2315  0.63739  0.90956     H
H       0.2315  0.91847  0.36262     H
H      0.23412  0.86408  0.41521     H
C       0.2345  0.04362  0.69155     C
C      0.23474  0.30833  0.05287     C
C      0.23517  0.45369  0.81004     C
O      0.23624  0.44281  0.36372     O
C       0.2374  0.22425  0.50521     C
O       0.2398  0.64234  0.56267     O
O      0.24175  0.06922  0.14326     O
O      0.24175  0.85674  0.06032     O
C      0.24198  0.51768  0.22826     C
O      0.24214  0.12623   0.5162     O
C      0.24221  0.72835  0.97632     C
C      0.24221  0.98523  0.27165     C
C       0.2428  0.77206   0.4808     C
O      0.25154  0.37709  0.48448     O
C       0.2574  0.72903  0.51877     C
H      0.25757  0.08935  0.51807     H
O      0.25783  0.55892  0.13994     O
C      0.25797  0.02342  0.22923     C
C      0.25797  0.77077  0.01452     C
C      0.25804  0.48192  0.27264     C
C      0.26273  0.27674  0.49468     C
O      0.26438  0.63952  0.93255     O
O      0.26438  0.94145  0.36048     O
C      0.26494  0.54627  0.68992     C
C      0.26535   0.1917   0.9562     C
C      0.26561  0.94771  0.80868     C
O      0.26628  0.86157  0.43914     O
H      0.26928  0.42021  0.36705     H
C      0.26953  0.17456  0.50583     C
C       0.2707  0.51876  0.74134     C
C      0.27097  0.97693  0.75817     C
C      0.27165  0.24221  0.98523     C
H      0.27581  0.56774  0.10529     H
C       0.2762  0.52399  0.18039     C
C      0.27753  0.68108  0.96847     C
C      0.27753  0.97738  0.31892     C
C      0.27834  0.81944  0.47478     C
C      0.28081  0.34258  0.04511     C
C      0.28094  0.03538  0.65785     C
C      0.28147  0.46368  0.84346     C
H      0.28303  0.05893  0.61936     H
H      0.28304  0.38095  0.06883     H
H      0.28388   0.4414  0.88269     H
H      0.29016  0.38529  0.47707     H
H      0.29565  0.17682  0.92653     H
H      0.29609  0.57553  0.67534     H
H      0.29718  0.91845  0.82234     H
C      0.30684  0.73405  0.54982     C
C      0.30833  0.05287  0.23474     C
C      0.30833  0.76526  0.04397     C
C      0.30875  0.45296  0.26787     C
C      0.31804  0.52909  0.77531     C
C      0.31846  0.96837  0.72391     C
C      0.31892  0.27753  0.97738     C
H      0.31945  0.70216   0.5792     H
C      0.32048  0.27812   0.4849     C
H      0.32184  0.08236  0.20332     H
H      0.32184  0.79668  0.07346     H
C      0.32329  0.32804  0.00767     C
C      0.32375  0.50106  0.82753     C
C      0.32376  0.99813  0.67261     C
H      0.32387  0.42507   0.2997     H
C      0.32756  0.49412   0.1765     C
C      0.32791   0.8233  0.50666     C
C      0.32804  0.00767  0.32329     C
C      0.32804  0.67671  0.99877     C
C      0.32816  0.17703  0.49577     C
C       0.3413  0.78022  0.54383     C
C      0.34241  0.45901  0.22107     C
C      0.34258  0.04511  0.28081     C
C      0.34258  0.71919   0.0362     C
H      0.34279  0.31623   0.4766     H
O      0.35205  0.00233  0.41894     O
O      0.35205  0.08116  0.49777     O
O      0.35205  0.41894  0.00234     O
O      0.35205  0.49777  0.08116     O
O      0.35205  0.50224  0.91904     O
O      0.35205  0.58106  0.99787     O
O      0.35205  0.91904  0.50224     O
O      0.35205  0.99786  0.58106     O
C      0.35213  0.22955  0.48547     C
O      0.35623  0.56592  0.75587     O
O      0.35718  0.93149  0.74218     O
O      0.36048  0.26438  0.94145     O
H      0.36262  0.23151  0.91847     H
C      0.36814   0.0036  0.36815     C
C      0.36814  0.13196   0.4965     C
C      0.36814  0.36815   0.0036     C
C      0.36814   0.4965  0.13196     C
C      0.36814   0.5035  0.86824     C
C      0.36814  0.63186   0.9966     C
C      0.36814  0.86824   0.5035     C
C      0.36814   0.9966  0.63186     C
H      0.37893  0.78206  0.56874     H
H      0.38094  0.06883  0.28304     H
H      0.38094  0.71696  0.05993     H
H      0.38095  0.43547  0.22009     H
H      0.38224  0.75172  0.72647     H
H      0.38605  0.65592  0.82301     H
H      0.39025  0.57744  0.77355     H
H      0.39135  0.92104  0.72416     H
Zr     0.39634   0.0001      0.5    Zr
Zr     0.39634      0.5   0.0001    Zr
H      0.39642  0.23361   0.4776     H
O      0.40139   0.6835  0.79839     O
H      0.40195  0.82304  0.65896     H
H      0.41189  0.21509  0.81016     H
H      0.41499  0.12051   0.7124     H
H      0.41832  0.08178  0.58168     H
H      0.41832  0.41832  0.91842     H
H      0.41832  0.58168  0.08178     H
H      0.41832  0.91842  0.41832     H
O      0.41894  0.00233  0.35205     O
O      0.41894  0.14805  0.49777     O
O      0.41894  0.35205  0.00234     O
O      0.41894  0.49777  0.14805     O
O      0.41894  0.50224  0.85215     O
O      0.41894  0.64795  0.99787     O
O      0.41894  0.85215  0.50224     O
O      0.41894  0.99787  0.64795     O
C      0.42519  0.76483  0.72166     C
O      0.42753  0.15304  0.73206     O
H      0.42799  0.29277  0.87132     H
C       0.4365  0.80608   0.6826     C
O      0.44176  0.05834  0.55824     O
O      0.44176  0.44176  0.94186     O
O      0.44176  0.55824  0.05834     O
O      0.44176  0.94186  0.44176     O
C      0.44697  0.24205  0.80112     C
H      0.45243  0.80943  0.16551     H
H      0.45418  0.90319   0.2641     H
C      0.45551  0.69895  0.79341     C
C      0.45621  0.28694  0.83654     C
O      0.45637  0.04373  0.45637     O
O      0.45637  0.45637  0.04373     O
O      0.45637  0.54363  0.95647     O
O      0.45637  0.95647  0.54363     O
O      0.46122  0.86734  0.24775     O
H      0.46148  0.72749  0.10862     H
C      0.46807  0.74104  0.75374     C
C      0.47174  0.18595   0.7196     C
C      0.47215  0.77318  0.18385     C
C      0.47734  0.72584  0.15088     C
C        0.482  0.23208  0.75522     C
C      0.48607  0.82272  0.27193     C
H      0.48766  0.31819  0.34325     H
H      0.48793  0.41166  0.24437     H
O        0.489  0.37464  0.25955     O
H      0.48904  0.23475  0.39864     H
C      0.49065  0.27866  0.32163     C
C        0.491  0.82533   0.6739     C
C      0.49144  0.23045  0.35374     C
C      0.49183  0.77387  0.23903     C
C      0.49276  0.32588  0.23123     C
C      0.49364  0.27607  0.26317     C
C      0.49523  0.17767   0.3289     C
C       0.4958  0.32308  0.17184     C
C       0.4965  0.13196  0.36815     C
C       0.4965  0.36815  0.13196     C
C       0.4965  0.63186  0.86824     C
C       0.4965  0.86824  0.63186     C
C      0.49751  0.22314  0.23689     C
O      0.49777  0.08116  0.35205     O
O      0.49777  0.14805  0.41894     O
O      0.49777  0.35205  0.08116     O
O      0.49777  0.41894  0.14805     O
O      0.49777  0.58106  0.85215     O
O      0.49777  0.64795  0.91904     O
O      0.49777  0.85215  0.58106     O
O      0.49777  0.91904  0.64795     O
C       0.4983   0.1737  0.27005     C
C      0.49919  0.67488  0.82593     C
C      0.49961  0.27012  0.14694     C
Zr         0.5   0.0001  0.39634    Zr
Zr         0.5   0.0001  0.60366    Zr
Zr         0.5  0.10376      0.5    Zr
Zr         0.5  0.39634   0.0001    Zr
Zr         0.5      0.5  0.10376    Zr
Zr         0.5      0.5  0.89644    Zr
Zr         0.5  0.60366   0.0001    Zr
Zr         0.5  0.89644      0.5    Zr
C      0.50045  0.22144   0.1784     C
C      0.50074  0.32376  0.82767     C
O      0.50194  0.12225  0.24701     O
H      0.50201   0.2658  0.10204     H
O      0.50224  0.08116  0.64795     O
O      0.50224  0.14805  0.58106     O
O      0.50224  0.35205  0.91904     O
O      0.50224  0.41894  0.85215     O
O      0.50224  0.58106  0.14805     O
O      0.50224  0.64795  0.08116     O
O      0.50224  0.85215  0.41894     O
O      0.50224  0.91904  0.35205     O
C      0.50237  0.67722  0.17155     C
H      0.50345  0.18298  0.15535     H
C       0.5035  0.13196  0.63186     C
C       0.5035  0.36815  0.86824     C
C       0.5035  0.63186  0.13196     C
C       0.5035  0.86824  0.36815     C
H      0.50427   0.1138  0.20782     H
C      0.50612  0.82326  0.32798     C
C      0.50742  0.17595    0.673     C
C      0.51737  0.72519  0.26106     C
C      0.52262  0.67662  0.22702     C
C      0.52369  0.75975  0.74579     C
C      0.52744  0.26872  0.74523     C
C      0.53123  0.77448   0.3487     C
C      0.53512  0.80215   0.7056     C
C      0.53678  0.31481  0.78174     C
C      0.53678  0.72672  0.31632     C
O      0.54363  0.04373  0.54363     O
O      0.54363  0.45637  0.95647     O
O      0.54363  0.54363  0.04373     O
O      0.54363  0.95647  0.45637     O
O      0.54664  0.62918  0.24606     O
H       0.5471   0.7728  0.39096     H
C      0.55209   0.2129  0.66412     C
C      0.55386   0.6942  0.81718     C
H      0.55661  0.69156  0.33607     H
O      0.55824  0.05834  0.44176     O
O      0.55824  0.44176  0.05834     O
O      0.55824  0.55824  0.94186     O
O      0.55824  0.94186  0.55824     O
C      0.56197  0.25804  0.69912     C
H        0.562  0.62328  0.28271     H
C      0.56596  0.73544  0.77828     C
O      0.57951  0.35094  0.77402     O
H      0.58033  0.20709  0.62934     H
O      0.58106  0.00233  0.64795     O
O      0.58106  0.14805  0.50224     O
O      0.58106  0.35205  0.99786     O
O      0.58106  0.49777  0.85215     O
O      0.58106  0.50224  0.14805     O
O      0.58106  0.64795  0.00234     O
O      0.58106  0.85215  0.49777     O
O      0.58106  0.99787  0.35205     O
H      0.58168  0.08178  0.41832     H
H      0.58168  0.41832  0.08178     H
H      0.58168  0.58168  0.91842     H
H      0.58168  0.91842  0.58168     H
O      0.58743  0.82141  0.69646     O
H      0.58843  0.67725  0.84082     H
H      0.59726  0.28385  0.68872     H
Zr     0.60366   0.0001      0.5    Zr
Zr     0.60366      0.5   0.0001    Zr
H      0.60685  0.34959  0.74463     H
H      0.60876  0.03696  0.27243     H
H      0.60915  0.74732  0.77475     H
H      0.61177  0.77524  0.41987     H
H      0.61513  0.28958  0.47379     H
H      0.61527  0.52342  0.29174     H
H      0.61835  0.43541  0.77953     H
H      0.62089  0.80928  0.71506     H
O      0.62322  0.25112  0.48208     O
O      0.62332  0.51846   0.2527     O
H      0.62939  0.29338  0.07273     H
C      0.63186   0.0036  0.63186     C
C      0.63186  0.13196   0.5035     C
C      0.63186  0.36815   0.9966     C
C      0.63186   0.4965  0.86824     C
C      0.63186   0.5035  0.13196     C
C      0.63186  0.63186   0.0036     C
C      0.63186  0.86824   0.4965     C
C      0.63186   0.9966  0.36815     C
O      0.64553  0.75733  0.43177     O
O      0.64795  0.00233  0.58106     O
O      0.64795  0.08116  0.50224     O
O      0.64795  0.41894  0.99786     O
O      0.64795  0.49777  0.91904     O
O      0.64795  0.50224  0.08116     O
O      0.64795  0.58106  0.00234     O
O      0.64795  0.91904  0.49777     O
O      0.64795  0.99786  0.41894     O
C       0.6512  0.02158  0.27428     C
H      0.65169  0.09616  0.68432     H
H      0.65208  0.68446  0.09546     H
C      0.65698  0.45879  0.77862     C
H      0.66355  0.04617  0.19108     H
C      0.66394  0.28733  0.04428     C
C      0.67196  0.49354  0.82317     C
C      0.67219  0.99727  0.32334     C
C      0.67246  0.32379   0.9999     C
C      0.67354    0.009  0.67513     C
C      0.67389  0.67516  0.00811     C
C      0.67407  0.22921  0.49327     C
C      0.67411  0.50894  0.22989     C
C      0.67639  0.82747  0.49903     C
H      0.67726  0.42583  0.69909     H
C      0.67755  0.50274  0.17126     C
C      0.67756  0.17134  0.50453     C
C      0.67802  0.06235   0.6986     C
C       0.6784  0.69872  0.06163     C
C      0.68282  0.77593  0.46993     C
C      0.68352  0.02696  0.22646     C
H      0.68416  0.34227  0.47363     H
H      0.68428  0.51861  0.34423     H
H      0.68559  0.64742  0.89738     H
H      0.69067  0.21583  0.08896     H
C      0.69111  0.45331  0.73215     C
C      0.69943  0.24251  0.05359     C
O      0.70359  0.91463  0.67156     O
H        0.706  0.67709  0.42168     H
C      0.70867  0.96582  0.69488     C
O      0.70901  0.67619  0.91239     O
C       0.7098  0.69585  0.96536     C
H      0.71477  0.88125  0.56089     H
C       0.7162  0.07341  0.74073     C
C      0.71635   0.7409  0.07346     C
H      0.71653  0.75614  0.11574     H
H      0.71686  0.05139  0.12273     H
H      0.71767  0.11545  0.75717     H
C      0.71776  0.84256  0.53776     C
C       0.7181  0.31455  0.96306     C
C      0.72212  0.32016  0.48306     C
C       0.7222  0.51094  0.32137     C
C      0.72281  0.52347  0.82051     C
C      0.72336   0.2626  0.49395     C
C      0.72339  0.50509  0.26308     C
H      0.72479  0.88187  0.68109     H
O      0.72548  0.35034  0.91998     O
C      0.72848  0.97784  0.32303     C
C      0.72966  0.49285  0.14666     C
C      0.72972  0.14768  0.51623     C
C      0.72996  0.74176  0.48057     C
H      0.73353  0.48794  0.10193     H
H      0.73363  0.10355    0.525     H
O      0.73639  0.55678  0.86405     O
C      0.73643  0.69101    0.452     C
H      0.73666  0.94695  0.40385     H
C        0.739  0.00816  0.22514     C
C       0.7418  0.48245  0.72828     C
C      0.74506  0.23226  0.01828     C
C      0.74798  0.97701  0.73817     C
C      0.74849  0.73891  0.97766     C
C      0.75161  0.03145  0.76119     C
C      0.75212  0.76193  0.03209     C
O      0.75293  0.95377  0.36792     O
O      0.75367  0.03651  0.12881     O
H      0.75466  0.34878  0.89242     H
C      0.75468  0.26854  0.97247     C
O      0.75746  0.44151   0.6398     O
C      0.75802  0.51796  0.77282     C
C      0.76131  0.98343   0.2741     C
C      0.76386  0.80895  0.54804     C
H      0.76671    0.396  0.47517     H
H      0.76681  0.51195   0.3976     H
O      0.76865  0.15365  0.07319     O
H      0.76953  0.57923  0.86747     H
C      0.77065  0.35186  0.48394     C
C      0.77071  0.50703  0.35286     C
C       0.7711  0.75806  0.51992     C
C      0.77298  0.01325  0.17652     C
H      0.77531  0.81901  0.12723     H
H       0.7754  0.43275   0.6051     H
C      0.77562  0.49505  0.23705     C
C      0.77565  0.23753  0.50593     C
C      0.77599  0.47619  0.68038     C
C       0.7777  0.48908   0.1788     C
C      0.77777  0.18001  0.51693     C
C      0.78076  0.18621  0.02862     C
C      0.78222   0.6569  0.46174     C
H      0.78243  0.74293  0.89366     H
H      0.78357  0.89336  0.74397     H
C      0.78375  0.93564   0.7592     C
C       0.7839  0.75937  0.93569     C
H      0.78523  0.61821  0.43862     H
H      0.78842  0.12122  0.08583     H
C       0.7903  0.04374  0.80426     C
O      0.79109  0.09671  0.82391     O
C      0.79143  0.80522  0.04328     C
H      0.79317  0.82425  0.57847     H
O      0.79651  0.82854  0.09448     O
C      0.80052  0.25758  0.93766     C
C      0.80885  0.54673  0.76815     C
H      0.81064  0.28311  0.90209     H
H      0.81451  0.11173  0.85268     H
H       0.8167  0.48138  0.15737     H
C      0.81671  0.96436  0.27364     C
H      0.81682  0.15932  0.52625     H
C      0.81809  0.72287  0.52979     C
C       0.8217  0.94748  0.80138     C
C      0.82208   0.8015  0.94675     C
C      0.82298  0.32814  0.49568     C
C      0.82299  0.49712  0.32821     C
C      0.82345  0.67196  0.50034     C
H      0.82409  0.57442  0.80009     H
C      0.82526  0.49103  0.26902     C
C      0.82531  0.26971  0.50688     C
C      0.82621   0.0001  0.82494     C
C      0.82656  0.82497   0.0001     C
C      0.82707  0.17593  0.99265     C
C      0.82747  0.50586  0.67661     C
C      0.82868  0.99363  0.17735     C
H      0.83527  0.94526  0.31011     H
C       0.8356  0.21252  0.94762     C
C      0.84247  0.54073  0.72131     C
H      0.84802  0.91365  0.81564     H
H      0.84841  0.81578  0.91294     H
C      0.84962  0.96939  0.22624     C
O      0.85215  0.00233  0.91904     O
O      0.85215  0.08116  0.99787     O
O      0.85215  0.41894  0.49777     O
O      0.85215  0.49777  0.41894     O
O      0.85215  0.50224  0.58106     O
O      0.85215  0.58106  0.50224     O
O      0.85215  0.91904  0.00234     O
O      0.85215  0.99786  0.08116     O
O      0.85845  0.73653  0.56687     O
H      0.85983  0.76971  0.58947     H
C      0.86824   0.0036  0.86824     C
C      0.86824  0.13196   0.9966     C
C      0.86824  0.36815   0.4965     C
C      0.86824   0.4965  0.36815     C
C      0.86824   0.5035  0.63186     C
C      0.86824  0.63186   0.5035     C
C      0.86824  0.86824   0.0036     C
C      0.86824   0.9966  0.13196     C
H      0.87015  0.20649  0.91916     H
H      0.87324  0.77934  0.19105     H
O      0.87334  0.48138  0.24095     O
O      0.87345  0.24258  0.51867     O
H      0.88111  0.56411  0.72043     H
H      0.88774  0.72021  0.25297     H
H      0.89206  0.95402  0.22807     H
Zr     0.89644   0.0001   0.0001    Zr
Zr     0.89644      0.5      0.5    Zr
O      0.90582  0.79945   0.1789     O
H      0.91016  0.47757  0.25618     H
H      0.91028  0.25807  0.52093     H
H      0.91151  0.65513  0.32298     H
H      0.91528  0.61525   0.7216     H
H      0.91692  0.70959  0.81964     H
H      0.91842  0.08178  0.08178     H
H      0.91842  0.41832  0.58168     H
H      0.91842  0.58168  0.41832     H
H      0.91842  0.91842  0.91842     H
O      0.91904  0.00233  0.85215     O
O      0.91904  0.14805  0.99787     O
O      0.91904  0.35205  0.49777     O
O      0.91904  0.49777  0.35205     O
O      0.91904  0.50224  0.64795     O
O      0.91904  0.64795  0.50224     O
O      0.91904  0.85215  0.00234     O
O      0.91904  0.99787  0.14805     O
O      0.92783  0.64852  0.73997     O
C      0.93106  0.71864  0.26481     C
H      0.93471   0.7882  0.87911     H
O      0.94186  0.05834  0.05834     O
O      0.94186  0.44176  0.55824     O
O      0.94186  0.55824  0.44176     O
O      0.94186  0.94186  0.94186     O
C      0.94495  0.68031  0.30602     C
C      0.94909  0.73866    0.807     C
O      0.95647  0.04373  0.95647     O
O      0.95647  0.45637  0.45638     O
O      0.95647  0.54363  0.54363     O
O      0.95647  0.95647  0.04373     O
C      0.95851  0.79268  0.19811     C
C       0.9593  0.78409  0.84145     C
H       0.9627  0.40734  0.25841     H
H      0.96599  0.31377  0.15967     H
C      0.96831  0.68409  0.72298     C
O      0.96861  0.37093  0.24287     O
C      0.97179  0.75303  0.24048     C
H      0.97524  0.23113  0.10384     H
C      0.97949  0.73083  0.75752     C
C      0.97956  0.27592  0.18023     C
C      0.98488  0.22818  0.14787     C
C      0.98565  0.32429  0.26984     C
C      0.99139  0.27499  0.23761     C
H      0.99575  0.23451  0.89806     H
C      0.99658  0.17707  0.82813     C
C       0.9966  0.13196  0.86824     C
C       0.9966  0.36815  0.36815     C
C       0.9966  0.63186  0.63186     C
C       0.9966  0.86824  0.13196     C
H      0.99688  0.08829  0.75542     H
C       0.9969  0.23012  0.85312     C
C      0.99771  0.32318  0.32813     C
O      0.99786  0.41894  0.35205     O
O      0.99786  0.58106  0.64795     O
O      0.99787  0.08116  0.85215     O
O      0.99787  0.14805  0.91904     O
O      0.99787  0.35205  0.41894     O
O      0.99787  0.64795  0.58106     O
O      0.99787  0.85215  0.08116     O
O      0.99787  0.91904  0.14805     O
O        0.998  0.12532  0.74028     O
C      0.99815  0.17417  0.76868     C
C      0.99868   0.2788   0.8217     C
H      0.99878  0.31733  0.84482     H
C       0.9999  0.22399  0.73679     C
C       0.9999  0.67405  0.32528     C
C       0.9999  0.67627  0.67274     C
