data_I
_chemical_name_common  '/home/zhangsd/repos/MofS-CGCNN/ML/data/WS24/clean_cifs/MOF-806'
_cell_length_a 26.85147
_cell_length_b 26.85147
_cell_length_c 26.85147
_cell_angle_alpha 90.00000
_cell_angle_beta  90.00000
_cell_angle_gamma 90.00000
_space_group_name_H-M_alt      'P 1'


loop_
_space_group_symop_operation_xyz
  'x, y, z' 

loop_
_atom_site_label
_atom_site_fract_x
_atom_site_fract_y
_atom_site_fract_z
_atom_site_type_symbol
Zr    -0.091997      0.0      0.5    Zr
Zr    -0.091997      0.5      0.0    Zr
Zr    -0.091997      0.5      1.0    Zr
Zr    -0.091997      1.0      0.5    Zr
O     -0.07156      0.0  0.36644     O
O     -0.07156      0.0  0.63364     O
O     -0.07156      0.5  0.13364     O
O     -0.07156      0.5  0.86644     O
O     -0.07126  0.13364      0.5     O
O     -0.07126  0.36644      0.0     O
O     -0.07126  0.63364      0.0     O
O     -0.07126  0.86644      0.5     O
O     -0.05236 -0.05236  0.44764     O
O     -0.05236 -0.05236  0.55244     O
O     -0.05236  0.05244  0.44764     O
O     -0.05236  0.05244  0.55244     O
O     -0.05236  0.44764 -0.05236     O
O     -0.05236  0.44764  0.05244     O
O     -0.05236  0.55244 -0.05236     O
O     -0.05236  0.55244  0.05244     O
H     -0.030195 0.213583 0.577944     H
H     -0.030195 0.253906 0.0905247     H
H     -0.030195 0.713583 0.0779437     H
H     -0.030195 0.753906 0.590525     H
H     -2.46519e-32 0.218499 0.827505     H
H     -2.15704e-32 0.281641 0.327505     H
H     -1.84889e-32 0.327351 0.718262     H
H     -1.84889e-32  0.60434 0.781699     H
H     -1.84889e-32 0.718499 0.327505     H
H     -1.84889e-32 0.827351 0.781878     H
H     -1.38667e-32 0.781641 0.172635     H
H     -1.2326e-32 0.104341 0.718445     H
H     -9.24446e-33 0.895804 0.281714     H
H     -6.16298e-33 0.172789 0.781878     H
H     -6.16298e-33 0.281641 0.672635     H
H     -6.16298e-33 0.395804 0.781714     H
H     -6.16298e-33 0.718499 0.672635     H
H     -4.62223e-33 0.827351 0.218262     H
H     -3.08149e-33 0.172789 0.218262     H
H     -1.54074e-33 0.604341 0.218445     H
Zr         0.0 -0.091997      0.5    Zr
O          0.0 -0.07126  0.36644     O
O          0.0 -0.07126  0.63364     O
Zr         0.0      0.0 0.408003    Zr
Zr         0.0      0.0 0.592003    Zr
O          0.0  0.07134  0.36644     O
O          0.0  0.07134  0.63364     O
Zr         0.0 0.092003      0.5    Zr
H          0.0  0.10434 0.281699     H
C          0.0  0.11755  0.38225     C
C          0.0  0.11755  0.61785     C
O          0.0  0.13364  0.42844     O
O          0.0  0.13364  0.57164     O
C          0.0  0.14327  0.29307     C
C          0.0  0.14327  0.70707     C
C          0.0  0.15695  0.34315     C
C          0.0  0.15695  0.65695     C
C          0.0  0.18237  0.25767     C
C          0.0  0.18237  0.74247     C
C          0.0  0.20697  0.35657     C
C          0.0  0.20697  0.64357     C
O          0.0 0.225416 0.404316     O
O          0.0 0.225416 0.595716     O
C          0.0  0.22997  0.27027     C
C          0.0  0.22997  0.72987     C
C          0.0  0.24227  0.31777     C
C          0.0  0.24227  0.68237     C
C          0.0  0.25787  0.18237     C
C          0.0  0.25787  0.81777     C
C          0.0  0.27017  0.22987     C
C          0.0  0.27017  0.77027     C
O          0.0 0.274616 0.095716     O
O          0.0 0.274616 0.904316     O
C          0.0  0.29317  0.14357     C
C          0.0  0.29317  0.85657     C
C          0.0  0.31777  0.24247     C
C          0.0  0.31777  0.75767     C
C          0.0  0.34315  0.15695     C
C          0.0  0.34315  0.84315     C
C          0.0  0.35687  0.20707     C
C          0.0  0.35687  0.79307     C
O          0.0  0.36644 -0.07156     O
O          0.0  0.36644  0.07164     O
C          0.0  0.38255  0.11785     C
C          0.0  0.38255  0.88225     C
Zr         0.0 0.408003      0.0    Zr
Zr         0.0 0.408003      1.0    Zr
O          0.0  0.42874  0.13364     O
O          0.0  0.42874  0.86644     O
Zr         0.0      0.5 -0.091997    Zr
Zr         0.0      0.5 0.092003    Zr
Zr         0.0      0.5 0.908003    Zr
O          0.0  0.57134  0.13364     O
O          0.0  0.57134  0.86644     O
Zr         0.0 0.592003      0.0    Zr
Zr         0.0 0.592003      1.0    Zr
C          0.0  0.61755  0.11785     C
C          0.0  0.61755  0.88225     C
O          0.0  0.63364 -0.07156     O
O          0.0  0.63364  0.07164     O
C          0.0  0.64327  0.20707     C
C          0.0  0.64327  0.79307     C
C          0.0  0.65695  0.15695     C
C          0.0  0.65695  0.84315     C
H          0.0 0.672789 0.281878     H
C          0.0  0.68237  0.24247     C
C          0.0  0.68237  0.75767     C
C          0.0  0.70697  0.14357     C
C          0.0  0.70697  0.85657     C
O          0.0 0.725416 0.095716     O
O          0.0 0.725416 0.904316     O
C          0.0  0.72997  0.22987     C
C          0.0  0.72997  0.77027     C
C          0.0  0.74227  0.18237     C
C          0.0  0.74227  0.81777     C
C          0.0  0.75787  0.31777     C
C          0.0  0.75787  0.68237     C
C          0.0  0.77017  0.27027     C
C          0.0  0.77017  0.72987     C
O          0.0 0.774616 0.404316     O
O          0.0 0.774616 0.595716     O
C          0.0  0.79317  0.35657     C
C          0.0  0.79317  0.64357     C
C          0.0  0.81777  0.25767     C
C          0.0  0.81777  0.74247     C
C          0.0  0.84315  0.34315     C
C          0.0  0.84315  0.65695     C
C          0.0  0.85687  0.29307     C
C          0.0  0.85687  0.70707     C
O          0.0  0.86644  0.42844     O
O          0.0  0.86644  0.57164     O
C          0.0  0.88255  0.38225     C
C          0.0  0.88255  0.61785     C
Zr         0.0 0.908003      0.5    Zr
Zr         0.0      1.0 0.408003    Zr
Zr         0.0      1.0 0.592003    Zr
H     3.08149e-33 0.327351 0.281878     H
H     4.62223e-33 0.218499 0.172635     H
H     6.16298e-33 0.395803  0.21843     H
H     1.2326e-32 0.781641 0.827505     H
H     2.46519e-32 0.672789 0.718262     H
H     3.08149e-32 0.895803  0.71843     H
H     0.030195 0.213597 0.422097     H
H     0.030195 0.253902 0.909492     H
H     0.030195 0.713597 0.922097     H
H     0.030195 0.753902 0.409492     H
O      0.05244 -0.05236  0.44764     O
O      0.05244 -0.05236  0.55244     O
O      0.05244  0.05244  0.44764     O
O      0.05244  0.05244  0.55244     O
O      0.05244  0.44764 -0.05236     O
O      0.05244  0.44764  0.05244     O
O      0.05244  0.55244 -0.05236     O
O      0.05244  0.55244  0.05244     O
O      0.07134  0.13364      0.5     O
O      0.07134  0.36644      0.0     O
O      0.07134  0.63364      0.0     O
O      0.07134  0.86644      0.5     O
O      0.07164      0.0  0.36644     O
O      0.07164      0.0  0.63364     O
O      0.07164      0.5  0.13364     O
O      0.07164      0.5  0.86644     O
H     0.0779205 0.030195 0.286414     H
H     0.0779205 0.530195 0.786414     H
H     0.0779437 -0.030195 0.713583     H
H     0.0779437 0.469805 0.213583     H
Zr    0.092003      0.0      0.5    Zr
Zr    0.092003      0.5      0.0    Zr
Zr    0.092003      0.5      1.0    Zr
Zr    0.092003      1.0      0.5    Zr
O     0.095716      0.0 0.274616     O
O     0.095716      0.0 0.725416     O
O     0.095716      0.5 0.225416     O
O     0.095716      0.5 0.774616     O
H      0.10434 0.281699      0.0     H
H      0.10434 0.781699      0.5     H
H     0.104341 0.218445      0.5     H
H     0.104341 0.718445      0.0     H
C      0.11755  0.11785      0.5     C
C      0.11755  0.38225      0.0     C
C      0.11755  0.61785      0.0     C
C      0.11755  0.88225      0.5     C
C      0.11785      0.0  0.38255     C
C      0.11785      0.0  0.61755     C
C      0.11785      0.5  0.11755     C
C      0.11785      0.5  0.88255     C
O      0.13364 -0.07156      0.5     O
O      0.13364      0.0  0.42874     O
O      0.13364      0.0  0.57134     O
O      0.13364  0.07164      0.5     O
O      0.13364  0.42844      0.0     O
O      0.13364      0.5 -0.07126     O
O      0.13364      0.5  0.07134     O
O      0.13364  0.57164      0.0     O
C      0.14327  0.20707      0.5     C
C      0.14327  0.29307      0.0     C
C      0.14327  0.70707      0.0     C
C      0.14327  0.79307      0.5     C
C      0.14357      0.0  0.29317     C
C      0.14357      0.0  0.70697     C
C      0.14357      0.5  0.20697     C
C      0.14357      0.5  0.79317     C
C      0.15695      0.0  0.34315     C
C      0.15695      0.0  0.65695     C
C      0.15695  0.15695      0.5     C
C      0.15695  0.34315      0.0     C
C      0.15695      0.5  0.15695     C
C      0.15695      0.5  0.84315     C
C      0.15695  0.65695      0.0     C
C      0.15695  0.84315      0.5     C
H     0.172635 -6.16298e-33 0.781641     H
H     0.172635 -1.54074e-33 0.218499     H
H     0.172635      0.5 0.281641     H
H     0.172635      0.5 0.718499     H
H     0.172789 0.218262      0.0     H
H     0.172789 0.281878      0.5     H
H     0.172789 0.718262      0.5     H
H     0.172789 0.781878      0.0     H
C      0.18237      0.0  0.25787     C
C      0.18237      0.0  0.74227     C
C      0.18237  0.24247      0.5     C
C      0.18237  0.25767      0.0     C
C      0.18237      0.5  0.24227     C
C      0.18237      0.5  0.75787     C
C      0.18237  0.74247      0.0     C
C      0.18237  0.75767      0.5     C
C      0.20697  0.14357      0.5     C
C      0.20697  0.35657      0.0     C
C      0.20697  0.64357      0.0     C
C      0.20697  0.85657      0.5     C
C      0.20707      0.0  0.35687     C
C      0.20707      0.0  0.64327     C
C      0.20707      0.5  0.14327     C
C      0.20707      0.5  0.85687     C
H     0.213583 0.0779437 0.469805     H
H     0.213583 0.577944 -0.030195     H
H     0.213597 0.422097 0.030195     H
H     0.213597 0.922097 0.530195     H
H     0.218262 -3.08149e-33 0.172789     H
H     0.218262      0.0 0.827351     H
H     0.218262      0.5 0.327351     H
H     0.218262      0.5 0.672789     H
H      0.21843 3.08149e-33 0.395803     H
H      0.21843      0.5 0.895803     H
H     0.218445      0.0 0.604341     H
H     0.218445      0.5 0.104341     H
H     0.218499 0.172635      0.0     H
H     0.218499 0.327505      0.5     H
H     0.218499 0.672635      0.5     H
H     0.218499 0.827505      0.0     H
O     0.225416 0.095716      0.5     O
O     0.225416 0.404316      0.0     O
O     0.225416 0.595716      0.0     O
O     0.225416 0.904316      0.5     O
C      0.22987      0.0  0.27017     C
C      0.22987      0.0  0.72997     C
C      0.22987      0.5  0.22997     C
C      0.22987      0.5  0.77017     C
C      0.22997  0.22987      0.5     C
C      0.22997  0.27027      0.0     C
C      0.22997  0.72987      0.0     C
C      0.22997  0.77027      0.5     C
C      0.24227  0.18237      0.5     C
C      0.24227  0.31777      0.0     C
C      0.24227  0.68237      0.0     C
C      0.24227  0.81777      0.5     C
C      0.24247      0.0  0.31777     C
C      0.24247      0.0  0.68237     C
C      0.24247      0.5  0.18237     C
C      0.24247      0.5  0.81777     C
H     0.253902 0.409492 0.530195     H
H     0.253902 0.909492 0.030195     H
H     0.253906 0.0905247 -0.030195     H
H     0.253906 0.590525 0.469805     H
C      0.25767      0.0  0.18237     C
C      0.25767      0.0  0.81777     C
C      0.25767      0.5  0.31777     C
C      0.25767      0.5  0.68237     C
C      0.25787  0.18237      0.0     C
C      0.25787  0.31777      0.5     C
C      0.25787  0.68237      0.5     C
C      0.25787  0.81777      0.0     C
C      0.27017  0.22987      0.0     C
C      0.27017  0.27027      0.5     C
C      0.27017  0.72987      0.5     C
C      0.27017  0.77027      0.0     C
C      0.27027      0.0  0.22997     C
C      0.27027      0.0  0.77017     C
C      0.27027      0.5  0.27017     C
C      0.27027      0.5  0.72997     C
O     0.274616 0.095716      0.0     O
O     0.274616 0.404316      0.5     O
O     0.274616 0.595716      0.5     O
O     0.274616 0.904316      0.0     O
H     0.281641 0.172635      0.5     H
H     0.281641 0.327505      0.0     H
H     0.281641 0.672635      0.0     H
H     0.281641 0.827505      0.5     H
H     0.281699 -2.31112e-33  0.10434     H
H     0.281699      0.5  0.60434     H
H     0.281714      0.0 0.895804     H
H     0.281714      0.5 0.395804     H
H     0.281878 -1.2326e-32 0.327351     H
H     0.281878 6.16298e-33 0.672789     H
H     0.281878      0.5 0.172789     H
H     0.281878      0.5 0.827351     H
C      0.29307      0.0  0.14327     C
C      0.29307      0.0  0.85687     C
C      0.29307      0.5  0.35687     C
C      0.29307      0.5  0.64327     C
C      0.29317  0.14357      0.0     C
C      0.29317  0.35657      0.5     C
C      0.29317  0.64357      0.5     C
C      0.29317  0.85657      0.0     C
C      0.31777      0.0  0.24227     C
C      0.31777      0.0  0.75787     C
C      0.31777  0.24247      0.0     C
C      0.31777  0.25767      0.5     C
C      0.31777      0.5  0.25787     C
C      0.31777      0.5  0.74227     C
C      0.31777  0.74247      0.5     C
C      0.31777  0.75767      0.0     C
H     0.327351 0.218262      0.5     H
H     0.327351 0.281878      0.0     H
H     0.327351 0.718262      0.0     H
H     0.327351 0.781878      0.5     H
H     0.327505 -3.08149e-33 0.281641     H
H     0.327505 1.2326e-32 0.718499     H
H     0.327505      0.5 0.218499     H
H     0.327505      0.5 0.781641     H
C      0.34315      0.0  0.15695     C
C      0.34315      0.0  0.84315     C
C      0.34315  0.15695      0.0     C
C      0.34315  0.34315      0.5     C
C      0.34315      0.5  0.34315     C
C      0.34315      0.5  0.65695     C
C      0.34315  0.65695      0.5     C
C      0.34315  0.84315      0.0     C
C      0.35657      0.0  0.20697     C
C      0.35657      0.0  0.79317     C
C      0.35657      0.5  0.29317     C
C      0.35657      0.5  0.70697     C
C      0.35687  0.20707      0.0     C
C      0.35687  0.29307      0.5     C
C      0.35687  0.70707      0.5     C
C      0.35687  0.79307      0.0     C
O      0.36644 -0.07156      0.0     O
O      0.36644      0.0 -0.07126     O
O      0.36644      0.0  0.07134     O
O      0.36644  0.07164      0.0     O
O      0.36644  0.42844      0.5     O
O      0.36644      0.5  0.42874     O
O      0.36644      0.5  0.57134     O
O      0.36644  0.57164      0.5     O
C      0.38225      0.0  0.11755     C
C      0.38225      0.0  0.88255     C
C      0.38225      0.5  0.38255     C
C      0.38225      0.5  0.61755     C
C      0.38255  0.11785      0.0     C
C      0.38255  0.38225      0.5     C
C      0.38255  0.61785      0.5     C
C      0.38255  0.88225      0.0     C
H     0.395803  0.21843      0.0     H
H     0.395803  0.71843      0.5     H
H     0.395804 0.281714      0.5     H
H     0.395804 0.781714      0.0     H
O     0.404316      0.0 0.225416     O
O     0.404316      0.0 0.774616     O
O     0.404316      0.5 0.274616     O
O     0.404316      0.5 0.725416     O
Zr    0.408003      0.0      0.0    Zr
Zr    0.408003      0.0      1.0    Zr
Zr    0.408003      0.5      0.5    Zr
Zr    0.408003      1.0      0.0    Zr
H     0.409492 0.030195 0.753902     H
H     0.409492 0.530195 0.253902     H
H     0.409532 -0.030195  0.24612     H
H     0.409532 0.469805  0.74612     H
O      0.42844      0.0  0.13364     O
O      0.42844      0.0  0.86644     O
O      0.42844      0.5  0.36644     O
O      0.42844      0.5  0.63364     O
O      0.42874  0.13364      0.0     O
O      0.42874  0.36644      0.5     O
O      0.42874  0.63364      0.5     O
O      0.42874  0.86644      0.0     O
O      0.44764 -0.05236 -0.05236     O
O      0.44764 -0.05236  0.05244     O
O      0.44764  0.05244 -0.05236     O
O      0.44764  0.05244  0.05244     O
O      0.44764  0.44764  0.44764     O
O      0.44764  0.44764  0.55244     O
O      0.44764  0.55244  0.44764     O
O      0.44764  0.55244  0.55244     O
H     0.469805 0.213583 0.0779437     H
H     0.469805 0.253906 0.590525     H
H     0.469805 0.713583 0.577944     H
H     0.469805 0.753906 0.0905247     H
Zr         0.5 -0.091997      0.0    Zr
Zr         0.5 -0.091997      1.0    Zr
O          0.5 -0.07126  0.13364     O
O          0.5 -0.07126  0.86644     O
Zr         0.5      0.0 -0.091997    Zr
Zr         0.5      0.0 0.092003    Zr
Zr         0.5      0.0 0.908003    Zr
O          0.5  0.07134  0.13364     O
O          0.5  0.07134  0.86644     O
Zr         0.5 0.092003      0.0    Zr
Zr         0.5 0.092003      1.0    Zr
H          0.5  0.10434 0.781699     H
H          0.5 0.104341 0.218445     H
C          0.5  0.11755  0.11785     C
C          0.5  0.11755  0.88225     C
O          0.5  0.13364 -0.07156     O
O          0.5  0.13364  0.07164     O
C          0.5  0.14327  0.20707     C
C          0.5  0.14327  0.79307     C
C          0.5  0.15695  0.15695     C
C          0.5  0.15695  0.84315     C
H          0.5 0.172789 0.281878     H
H          0.5 0.172789 0.718262     H
C          0.5  0.18237  0.24247     C
C          0.5  0.18237  0.75767     C
C          0.5  0.20697  0.14357     C
C          0.5  0.20697  0.85657     C
H          0.5 0.218499 0.327505     H
H          0.5 0.218499 0.672635     H
O          0.5 0.225416 0.095716     O
O          0.5 0.225416 0.904316     O
C          0.5  0.22997  0.22987     C
C          0.5  0.22997  0.77027     C
C          0.5  0.24227  0.18237     C
C          0.5  0.24227  0.81777     C
C          0.5  0.25787  0.31777     C
C          0.5  0.25787  0.68237     C
C          0.5  0.27017  0.27027     C
C          0.5  0.27017  0.72987     C
O          0.5 0.274616 0.404316     O
O          0.5 0.274616 0.595716     O
H          0.5 0.281641 0.172635     H
H          0.5 0.281641 0.827505     H
C          0.5  0.29317  0.35657     C
C          0.5  0.29317  0.64357     C
C          0.5  0.31777  0.25767     C
C          0.5  0.31777  0.74247     C
H          0.5 0.327351 0.218262     H
H          0.5 0.327351 0.781878     H
C          0.5  0.34315  0.34315     C
C          0.5  0.34315  0.65695     C
C          0.5  0.35687  0.29307     C
C          0.5  0.35687  0.70707     C
O          0.5  0.36644  0.42844     O
O          0.5  0.36644  0.57164     O
C          0.5  0.38255  0.38225     C
C          0.5  0.38255  0.61785     C
H          0.5 0.395803  0.71843     H
H          0.5 0.395804 0.281714     H
Zr         0.5 0.408003      0.5    Zr
O          0.5  0.42874  0.36644     O
O          0.5  0.42874  0.63364     O
Zr         0.5      0.5 0.408003    Zr
Zr         0.5      0.5 0.592003    Zr
O          0.5  0.57134  0.36644     O
O          0.5  0.57134  0.63364     O
Zr         0.5 0.592003      0.5    Zr
H          0.5  0.60434 0.281699     H
H          0.5 0.604341 0.718445     H
C          0.5  0.61755  0.38225     C
C          0.5  0.61755  0.61785     C
O          0.5  0.63364  0.42844     O
O          0.5  0.63364  0.57164     O
C          0.5  0.64327  0.29307     C
C          0.5  0.64327  0.70707     C
C          0.5  0.65695  0.34315     C
C          0.5  0.65695  0.65695     C
H          0.5 0.672789 0.218262     H
H          0.5 0.672789 0.781878     H
C          0.5  0.68237  0.25767     C
C          0.5  0.68237  0.74247     C
C          0.5  0.70697  0.35657     C
C          0.5  0.70697  0.64357     C
H          0.5 0.718499 0.172635     H
H          0.5 0.718499 0.827505     H
O          0.5 0.725416 0.404316     O
O          0.5 0.725416 0.595716     O
C          0.5  0.72997  0.27027     C
C          0.5  0.72997  0.72987     C
C          0.5  0.74227  0.31777     C
C          0.5  0.74227  0.68237     C
C          0.5  0.75787  0.18237     C
C          0.5  0.75787  0.81777     C
C          0.5  0.77017  0.22987     C
C          0.5  0.77017  0.77027     C
O          0.5 0.774616 0.095716     O
O          0.5 0.774616 0.904316     O
H          0.5 0.781641 0.327505     H
H          0.5 0.781641 0.672635     H
C          0.5  0.79317  0.14357     C
C          0.5  0.79317  0.85657     C
C          0.5  0.81777  0.24247     C
C          0.5  0.81777  0.75767     C
H          0.5 0.827351 0.281878     H
H          0.5 0.827351 0.718262     H
C          0.5  0.84315  0.15695     C
C          0.5  0.84315  0.84315     C
C          0.5  0.85687  0.20707     C
C          0.5  0.85687  0.79307     C
O          0.5  0.86644 -0.07156     O
O          0.5  0.86644  0.07164     O
C          0.5  0.88255  0.11785     C
C          0.5  0.88255  0.88225     C
H          0.5 0.895803  0.21843     H
H          0.5 0.895804 0.781714     H
Zr         0.5 0.908003      0.0    Zr
Zr         0.5 0.908003      1.0    Zr
Zr         0.5      1.0 -0.091997    Zr
Zr         0.5      1.0 0.092003    Zr
Zr         0.5      1.0 0.908003    Zr
H     0.530195 0.213597 0.922097     H
H     0.530195 0.253902 0.409492     H
H     0.530195 0.713597 0.422097     H
H     0.530195 0.753902 0.909492     H
O      0.55244 -0.05236 -0.05236     O
O      0.55244 -0.05236  0.05244     O
O      0.55244  0.05244 -0.05236     O
O      0.55244  0.05244  0.05244     O
O      0.55244  0.44764  0.44764     O
O      0.55244  0.44764  0.55244     O
O      0.55244  0.55244  0.44764     O
O      0.55244  0.55244  0.55244     O
O      0.57134  0.13364      0.0     O
O      0.57134  0.36644      0.5     O
O      0.57134  0.63364      0.5     O
O      0.57134  0.86644      0.0     O
O      0.57164      0.0  0.13364     O
O      0.57164      0.0  0.86644     O
O      0.57164      0.5  0.36644     O
O      0.57164      0.5  0.63364     O
H     0.577921 0.030195 0.786414     H
H     0.577921 0.530195 0.286414     H
H     0.577944 -0.030195 0.213583     H
H     0.577944 0.469805 0.713583     H
Zr    0.592003      0.0      0.0    Zr
Zr    0.592003      0.0      1.0    Zr
Zr    0.592003      0.5      0.5    Zr
Zr    0.592003      1.0      0.0    Zr
O     0.595716      0.0 0.225416     O
O     0.595716      0.0 0.774616     O
O     0.595716      0.5 0.274616     O
O     0.595716      0.5 0.725416     O
H      0.60434 0.281699      0.5     H
H      0.60434 0.781699      0.0     H
H     0.604341 0.218445      0.0     H
H     0.604341 0.718445      0.5     H
C      0.61755  0.11785      0.0     C
C      0.61755  0.38225      0.5     C
C      0.61755  0.61785      0.5     C
C      0.61755  0.88225      0.0     C
C      0.61785      0.0  0.11755     C
C      0.61785      0.0  0.88255     C
C      0.61785      0.5  0.38255     C
C      0.61785      0.5  0.61755     C
O      0.63364 -0.07156      0.0     O
O      0.63364      0.0 -0.07126     O
O      0.63364      0.0  0.07134     O
O      0.63364  0.07164      0.0     O
O      0.63364  0.42844      0.5     O
O      0.63364      0.5  0.42874     O
O      0.63364      0.5  0.57134     O
O      0.63364  0.57164      0.5     O
C      0.64327  0.20707      0.0     C
C      0.64327  0.29307      0.5     C
C      0.64327  0.70707      0.5     C
C      0.64327  0.79307      0.0     C
C      0.64357      0.0  0.20697     C
C      0.64357      0.0  0.79317     C
C      0.64357      0.5  0.29317     C
C      0.64357      0.5  0.70697     C
C      0.65695      0.0  0.15695     C
C      0.65695      0.0  0.84315     C
C      0.65695  0.15695      0.0     C
C      0.65695  0.34315      0.5     C
C      0.65695      0.5  0.34315     C
C      0.65695      0.5  0.65695     C
C      0.65695  0.65695      0.5     C
C      0.65695  0.84315      0.0     C
H     0.672635 -3.08149e-33 0.281641     H
H     0.672635 1.2326e-32 0.718499     H
H     0.672635      0.5 0.218499     H
H     0.672635      0.5 0.781641     H
H     0.672789 0.218262      0.5     H
H     0.672789 0.281878      0.0     H
H     0.672789 0.718262      0.0     H
H     0.672789 0.781878      0.5     H
C      0.68237      0.0  0.24227     C
C      0.68237      0.0  0.75787     C
C      0.68237  0.24247      0.0     C
C      0.68237  0.25767      0.5     C
C      0.68237      0.5  0.25787     C
C      0.68237      0.5  0.74227     C
C      0.68237  0.74247      0.5     C
C      0.68237  0.75767      0.0     C
C      0.70697  0.14357      0.0     C
C      0.70697  0.35657      0.5     C
C      0.70697  0.64357      0.5     C
C      0.70697  0.85657      0.0     C
C      0.70707      0.0  0.14327     C
C      0.70707      0.0  0.85687     C
C      0.70707      0.5  0.35687     C
C      0.70707      0.5  0.64327     C
H     0.713583 0.0779437 -0.030195     H
H     0.713583 0.577944 0.469805     H
H     0.713597 0.422097 0.530195     H
H     0.713597 0.922097 0.030195     H
H     0.718262 -9.24446e-33 0.327351     H
H     0.718262 -6.16298e-33 0.672789     H
H     0.718262      0.5 0.172789     H
H     0.718262      0.5 0.827351     H
H      0.71843      0.0 0.895803     H
H      0.71843      0.5 0.395803     H
H     0.718445      0.0 0.104341     H
H     0.718445      0.5 0.604341     H
H     0.718499 0.172635      0.5     H
H     0.718499 0.327505      0.0     H
H     0.718499 0.672635      0.0     H
H     0.718499 0.827505      0.5     H
O     0.725416 0.095716      0.0     O
O     0.725416 0.404316      0.5     O
O     0.725416 0.595716      0.5     O
O     0.725416 0.904316      0.0     O
C      0.72987      0.0  0.22997     C
C      0.72987      0.0  0.77017     C
C      0.72987      0.5  0.27017     C
C      0.72987      0.5  0.72997     C
C      0.72997  0.22987      0.0     C
C      0.72997  0.27027      0.5     C
C      0.72997  0.72987      0.5     C
C      0.72997  0.77027      0.0     C
C      0.74227  0.18237      0.0     C
C      0.74227  0.31777      0.5     C
C      0.74227  0.68237      0.5     C
C      0.74227  0.81777      0.0     C
C      0.74247      0.0  0.18237     C
C      0.74247      0.0  0.81777     C
C      0.74247      0.5  0.31777     C
C      0.74247      0.5  0.68237     C
H     0.753902 0.409492 0.030195     H
H     0.753902 0.909492 0.530195     H
H     0.753906 0.0905247 0.469805     H
H     0.753906 0.590525 -0.030195     H
C      0.75767      0.0  0.31777     C
C      0.75767      0.0  0.68237     C
C      0.75767      0.5  0.18237     C
C      0.75767      0.5  0.81777     C
C      0.75787  0.18237      0.5     C
C      0.75787  0.31777      0.0     C
C      0.75787  0.68237      0.0     C
C      0.75787  0.81777      0.5     C
C      0.77017  0.22987      0.5     C
C      0.77017  0.27027      0.0     C
C      0.77017  0.72987      0.0     C
C      0.77017  0.77027      0.5     C
C      0.77027      0.0  0.27017     C
C      0.77027      0.0  0.72997     C
C      0.77027      0.5  0.22997     C
C      0.77027      0.5  0.77017     C
O     0.774616 0.095716      0.5     O
O     0.774616 0.404316      0.0     O
O     0.774616 0.595716      0.0     O
O     0.774616 0.904316      0.5     O
H     0.781641 0.172635      0.0     H
H     0.781641 0.327505      0.5     H
H     0.781641 0.672635      0.5     H
H     0.781641 0.827505      0.0     H
H     0.781699 -6.16298e-33  0.60434     H
H     0.781699      0.5  0.10434     H
H     0.781714 6.16298e-33 0.395804     H
H     0.781714      0.5 0.895804     H
H     0.781878 -3.08149e-33 0.172789     H
H     0.781878      0.0 0.827351     H
H     0.781878      0.5 0.327351     H
H     0.781878      0.5 0.672789     H
C      0.79307      0.0  0.35687     C
C      0.79307      0.0  0.64327     C
C      0.79307      0.5  0.14327     C
C      0.79307      0.5  0.85687     C
C      0.79317  0.14357      0.5     C
C      0.79317  0.35657      0.0     C
C      0.79317  0.64357      0.0     C
C      0.79317  0.85657      0.5     C
C      0.81777      0.0  0.25787     C
C      0.81777      0.0  0.74227     C
C      0.81777  0.24247      0.5     C
C      0.81777  0.25767      0.0     C
C      0.81777      0.5  0.24227     C
C      0.81777      0.5  0.75787     C
C      0.81777  0.74247      0.0     C
C      0.81777  0.75767      0.5     C
H     0.827351 0.218262      0.0     H
H     0.827351 0.281878      0.5     H
H     0.827351 0.718262      0.5     H
H     0.827351 0.781878      0.0     H
H     0.827505 -6.16298e-33 0.781641     H
H     0.827505 -1.54074e-33 0.218499     H
H     0.827505      0.5 0.281641     H
H     0.827505      0.5 0.718499     H
C      0.84315      0.0  0.34315     C
C      0.84315      0.0  0.65695     C
C      0.84315  0.15695      0.5     C
C      0.84315  0.34315      0.0     C
C      0.84315      0.5  0.15695     C
C      0.84315      0.5  0.84315     C
C      0.84315  0.65695      0.0     C
C      0.84315  0.84315      0.5     C
C      0.85657      0.0  0.29317     C
C      0.85657      0.0  0.70697     C
C      0.85657      0.5  0.20697     C
C      0.85657      0.5  0.79317     C
C      0.85687  0.20707      0.5     C
C      0.85687  0.29307      0.0     C
C      0.85687  0.70707      0.0     C
C      0.85687  0.79307      0.5     C
O      0.86644 -0.07156      0.5     O
O      0.86644      0.0  0.42874     O
O      0.86644      0.0  0.57134     O
O      0.86644  0.07164      0.5     O
O      0.86644  0.42844      0.0     O
O      0.86644      0.5 -0.07126     O
O      0.86644      0.5  0.07134     O
O      0.86644  0.57164      0.0     O
C      0.88225      0.0  0.38255     C
C      0.88225      0.0  0.61755     C
C      0.88225      0.5  0.11755     C
C      0.88225      0.5  0.88255     C
C      0.88255  0.11785      0.5     C
C      0.88255  0.38225      0.0     C
C      0.88255  0.61785      0.0     C
C      0.88255  0.88225      0.5     C
H     0.895803  0.21843      0.5     H
H     0.895803  0.71843      0.0     H
H     0.895804 0.281714      0.0     H
H     0.895804 0.781714      0.5     H
O     0.904316      0.0 0.274616     O
O     0.904316      0.0 0.725416     O
O     0.904316      0.5 0.225416     O
O     0.904316      0.5 0.774616     O
Zr    0.908003      0.0      0.5    Zr
Zr    0.908003      0.5      0.0    Zr
Zr    0.908003      0.5      1.0    Zr
Zr    0.908003      1.0      0.5    Zr
H     0.909492 0.030195 0.253902     H
H     0.909492 0.530195 0.753902     H
H     0.909532 -0.030195  0.74612     H
H     0.909532 0.469805  0.24612     H
Zr         1.0 -0.091997      0.5    Zr
Zr         1.0      0.0 0.408003    Zr
Zr         1.0      0.0 0.592003    Zr
Zr         1.0 0.092003      0.5    Zr
Zr         1.0 0.408003      0.0    Zr
Zr         1.0      0.5 -0.091997    Zr
Zr         1.0      0.5 0.092003    Zr
Zr         1.0      0.5 0.908003    Zr
Zr         1.0 0.592003      0.0    Zr
Zr         1.0 0.908003      0.5    Zr
