data_I
_chemical_name_common  '/home/zhangsd/repos/MofS-CGCNN/ML/data/WS24/clean_cifs/MOFF-2'
_cell_length_a 23.06550
_cell_length_b 19.49840
_cell_length_c  9.52920
_cell_angle_alpha 90.00000
_cell_angle_beta  94.91300
_cell_angle_gamma 90.00000
_space_group_name_H-M_alt      'P 1'


loop_
_space_group_symop_operation_xyz
  'x, y, z' 

loop_
_atom_site_label
_atom_site_fract_x
_atom_site_fract_y
_atom_site_fract_z
_atom_site_type_symbol
C          0.0  0.27687     0.25     C
C          0.0  0.72327     0.75     C
N      0.00044  0.27774  0.61337     N
N      0.00044  0.72234  0.11337     N
Cu    0.003005 0.277814 0.3916112    Cu
Cu    0.003005 0.722194 0.8916112    Cu
C     0.005613  0.34827  0.67149     C
C     0.005613  0.65187  0.17149     C
H     0.026188 0.381212  0.88638     H
H     0.026188 0.618788  0.38638     H
H     0.039294 0.182982 0.671345     H
H     0.039294 0.817018 0.171345     H
C      0.04881 0.237413   0.6852     C
C      0.04881 0.762613   0.1852     C
H     0.049248 0.367532 0.660051     H
H     0.049248 0.632468 0.160051     H
O      0.05504  0.35064  0.14318     O
O      0.05504  0.64944  0.64318     O
C      0.05697 0.253817   0.8442     C
C      0.05697 0.746217   0.3442     C
O      0.06012  0.21004  0.14808     O
O      0.06012  0.79004  0.64808     O
O      0.06114  0.20384  0.37868     O
O      0.06114  0.79624  0.87868     O
O      0.06652  0.34574  0.37478     O
O      0.06652  0.65434  0.87478     O
H     0.070694 0.207957 0.903029     H
H     0.070694 0.792043 0.403029     H
F      0.07265  0.06177 0.131213     F
F      0.07265  0.93837 0.631213     F
C      0.07834  0.18974 0.265513     C
C      0.07834  0.81034 0.765513     C
C      0.07844  0.36544 0.261313     C
C      0.07844  0.63464 0.761313     C
F      0.08465  0.49737 0.392813     F
F      0.08465  0.50277 0.892813     F
H     0.088873 0.249636 0.637679     H
H     0.088873 0.750364 0.137679     H
H     0.089438 0.293901 0.863789     H
H     0.089438 0.706099 0.363789     H
C      0.12414  0.07785  0.19911     C
C      0.12414  0.92225  0.69911     C
C      0.12884  0.13795 0.263311     C
C      0.12884  0.86215 0.763311     C
C      0.13004  0.47835  0.32319     C
C      0.13004  0.52175  0.82319     C
C      0.13064  0.41465  0.25751     C
C      0.13064  0.58545  0.75751     C
F      0.16517  0.02517 0.621314     F
F      0.16517  0.97497 0.121314     F
C      0.17125  0.03375  0.19411     C
C      0.17125  0.96635  0.69411     C
F      0.17607  0.41515 0.874513     F
F      0.17607  0.58495 0.374513     F
C      0.17664  0.47714  0.81388     C
C      0.17664  0.52294  0.31388     C
C      0.17784  0.39434  0.18808     C
C      0.17784  0.60574  0.68808     C
F      0.17845  0.33245 0.127313     F
F      0.17845  0.66765 0.627313     F
C      0.18375  0.15555 0.345211     C
C      0.18375  0.84455 0.845211     C
F      0.18987  0.21427 0.418015     F
F      0.18987  0.78587 0.918015     F
F      0.21775  0.37257 0.591915     F
F      0.21775  0.62757 0.091915     F
C      0.22334  0.04967 0.259111     C
C      0.22334  0.95047 0.759111     C
C      0.22374  0.49685  0.74169     C
C      0.22374  0.50325  0.24169     C
C      0.22444  0.43895  0.17868     C
C      0.22444  0.56115  0.67868     C
F      0.23024  0.08017 0.891013     F
F      0.23024  0.91997 0.391013     F
C      0.23084  0.11137 0.340111     C
C      0.23084  0.88877 0.840111     C
C      0.26924  0.38877 0.659911     C
C      0.26924  0.61137 0.159911     C
F      0.26984  0.41997 0.109013     F
F      0.26984  0.58017 0.609013     F
C      0.27494  0.00225  0.25581     C
C      0.27494  0.99785  0.75581     C
C      0.27554  0.44965 0.735413     C
C      0.27554  0.55045 0.235413     C
C      0.27564  0.06115  0.82148     C
C      0.27564  0.93895  0.32148     C
F      0.28235  0.12757 0.408115     F
F      0.28235  0.87257 0.908115     F
F      0.31027  0.28587 0.582015     F
F      0.31027  0.71427 0.082015     F
C      0.31635  0.34455 0.654811     C
C      0.31635  0.65555 0.154811     C
F      0.32165  0.16765 0.872713     F
F      0.32165  0.83245 0.372713     F
C      0.32224  0.10574  0.81208     C
C      0.32224  0.89434  0.31208     C
C      0.32344  0.02294  0.18628     C
C      0.32344  0.97714  0.68628     C
F      0.32407  0.08495 0.125513     F
F      0.32407  0.91515 0.625513     F
C      0.32885  0.46635  0.80591     C
C      0.32885  0.53375  0.30591     C
F      0.33497  0.47497 0.378714     F
F      0.33497  0.52517 0.878714     F
C      0.36934  0.08605  0.73981     C
C      0.36934  0.91405  0.23981     C
C      0.36965  0.36125 0.725313     C
C      0.36965  0.63885 0.225313     C
C      0.37004  0.02175  0.67699     C
C      0.37004  0.97835  0.17699     C
C      0.37594  0.42225  0.80091     C
C      0.37594  0.57785  0.30091     C
H     0.410562 0.206099 0.136211     H
H     0.410562 0.793901 0.636211     H
H     0.411127 0.250364 0.362321     H
H     0.411127 0.749636 0.862321     H
F      0.41545  0.00277 0.607213     F
F      0.41545  0.99737 0.107213     F
C      0.42164  0.13464 0.738713     C
C      0.42164  0.86544 0.238713     C
C      0.42174  0.31034 0.734513     C
C      0.42174  0.68974 0.234513     C
F      0.42745  0.43837 0.868813     F
F      0.42745  0.56177 0.368813     F
H     0.429306 0.292043 0.096971     H
H     0.429306 0.707957 0.596971     H
O      0.43352  0.15434  0.62538     O
O      0.43352  0.84574  0.12538     O
O      0.43894  0.29624  0.62148     O
O      0.43894  0.70384  0.12148     O
O      0.43992  0.29004  0.85208     O
O      0.43992  0.71004  0.35208     O
C      0.44317 0.246217   0.1562     C
C      0.44317 0.753817   0.6562     C
O      0.44504  0.14944  0.85698     O
O      0.44504  0.85064  0.35698     O
H     0.450752 0.132468 0.339949     H
H     0.450752 0.867532 0.839949     H
C      0.45121 0.262613   0.3152     C
C      0.45121 0.737413   0.8152     C
H     0.460706 0.317018 0.328655     H
H     0.460706 0.682982 0.828655     H
H     0.473812 0.118788  0.11362     H
H     0.473812 0.881212  0.61362     H
C     0.494413  0.15187  0.32869     C
C     0.494413  0.84827  0.82869     C
Cu    0.497005 0.222194 0.6083912    Cu
Cu    0.497005 0.777814 0.1083912    Cu
N      0.49964  0.22234  0.38677     N
N      0.49964  0.77774  0.88677     N
C          0.5  0.22327     0.75     C
C          0.5  0.77687     0.25     C
N      0.50044  0.22234  0.11337     N
N      0.50044  0.77774  0.61337     N
Cu    0.503005 0.222194 0.8916112    Cu
Cu    0.503005 0.777814 0.3916112    Cu
C     0.505613  0.15187  0.17149     C
C     0.505613  0.84827  0.67149     C
H     0.526188 0.118788  0.38638     H
H     0.526188 0.881212  0.88638     H
H     0.539294 0.317018 0.171345     H
H     0.539294 0.682982 0.671345     H
C      0.54881 0.262613   0.1852     C
C      0.54881 0.737413   0.6852     C
H     0.549248 0.132468 0.160051     H
H     0.549248 0.867532 0.660051     H
O      0.55504  0.14944  0.64318     O
O      0.55504  0.85064  0.14318     O
C      0.55697 0.246217   0.3442     C
C      0.55697 0.753817   0.8442     C
O      0.56012  0.29004  0.64808     O
O      0.56012  0.71004  0.14808     O
O      0.56114  0.29624  0.87868     O
O      0.56114  0.70384  0.37868     O
O      0.56652  0.15434  0.87478     O
O      0.56652  0.84574  0.37478     O
H     0.570694 0.292043 0.403029     H
H     0.570694 0.707957 0.903029     H
F      0.57265  0.43837 0.631213     F
F      0.57265  0.56177 0.131213     F
C      0.57834  0.31034 0.765513     C
C      0.57834  0.68974 0.265513     C
C      0.57844  0.13464 0.761313     C
C      0.57844  0.86544 0.261313     C
F      0.58465  0.00277 0.892813     F
F      0.58465  0.99737 0.392813     F
H     0.588873 0.250364 0.137679     H
H     0.588873 0.749636 0.637679     H
H     0.589438 0.206099 0.363789     H
H     0.589438 0.793901 0.863789     H
C      0.62414  0.42225  0.69911     C
C      0.62414  0.57785  0.19911     C
C      0.62884  0.36215 0.763311     C
C      0.62884  0.63795 0.263311     C
C      0.63004  0.02175  0.82319     C
C      0.63004  0.97835  0.32319     C
C      0.63064  0.08545  0.75751     C
C      0.63064  0.91465  0.25751     C
F      0.66517  0.47497 0.121314     F
F      0.66517  0.52517 0.621314     F
C      0.67125  0.46635  0.69411     C
C      0.67125  0.53375  0.19411     C
F      0.67607  0.08495 0.374513     F
F      0.67607  0.91515 0.874513     F
C      0.67664  0.02294  0.31388     C
C      0.67664  0.97714  0.81388     C
C      0.67784  0.10574  0.68808     C
C      0.67784  0.89434  0.18808     C
F      0.67845  0.16765 0.627313     F
F      0.67845  0.83245 0.127313     F
C      0.68375  0.34455 0.845211     C
C      0.68375  0.65555 0.345211     C
F      0.68987  0.28587 0.918015     F
F      0.68987  0.71427 0.418015     F
F      0.71775  0.12757 0.091915     F
F      0.71775  0.87257 0.591915     F
C      0.72334  0.45047 0.759111     C
C      0.72334  0.54967 0.259111     C
C      0.72374  0.00325  0.24169     C
C      0.72374  0.99685  0.74169     C
C      0.72444  0.06115  0.67868     C
C      0.72444  0.93895  0.17868     C
F      0.73024  0.41997 0.391013     F
F      0.73024  0.58017 0.891013     F
C      0.73084  0.38877 0.840111     C
C      0.73084  0.61137 0.340111     C
C      0.76924  0.11137 0.159911     C
C      0.76924  0.88877 0.659911     C
F      0.76984  0.08017 0.609013     F
F      0.76984  0.91997 0.109013     F
C      0.77494  0.49785  0.75581     C
C      0.77494  0.50225  0.25581     C
C      0.77554  0.05045 0.235413     C
C      0.77554  0.94965 0.735413     C
C      0.77564  0.43895  0.32148     C
C      0.77564  0.56115  0.82148     C
F      0.78235  0.37257 0.908115     F
F      0.78235  0.62757 0.408115     F
F      0.81027  0.21427 0.082015     F
F      0.81027  0.78587 0.582015     F
C      0.81635  0.15555 0.154811     C
C      0.81635  0.84455 0.654811     C
F      0.82165  0.33245 0.372713     F
F      0.82165  0.66765 0.872713     F
C      0.82224  0.39434  0.31208     C
C      0.82224  0.60574  0.81208     C
C      0.82344  0.47714  0.68628     C
C      0.82344  0.52294  0.18628     C
F      0.82407  0.41515 0.625513     F
F      0.82407  0.58495 0.125513     F
C      0.82885  0.03375  0.30591     C
C      0.82885  0.96635  0.80591     C
F      0.83497  0.02517 0.878714     F
F      0.83497  0.97497 0.378714     F
C      0.86934  0.41405  0.23981     C
C      0.86934  0.58605  0.73981     C
C      0.86965  0.13885 0.225313     C
C      0.86965  0.86125 0.725313     C
C      0.87004  0.47835  0.17699     C
C      0.87004  0.52175  0.67699     C
C      0.87594  0.07785  0.30091     C
C      0.87594  0.92225  0.80091     C
H     0.910562 0.293901 0.636211     H
H     0.910562 0.706099 0.136211     H
H     0.911127 0.249636 0.862321     H
H     0.911127 0.750364 0.362321     H
F      0.91545  0.49737 0.107213     F
F      0.91545  0.50277 0.607213     F
C      0.92164  0.36544 0.238713     C
C      0.92164  0.63464 0.738713     C
C      0.92174  0.18974 0.234513     C
C      0.92174  0.81034 0.734513     C
F      0.92745  0.06177 0.368813     F
F      0.92745  0.93837 0.868813     F
H     0.929306 0.207957 0.596971     H
H     0.929306 0.792043 0.096971     H
O      0.93352  0.34574  0.12538     O
O      0.93352  0.65434  0.62538     O
O      0.93894  0.20384  0.12148     O
O      0.93894  0.79624  0.62148     O
O      0.93992  0.21004  0.35208     O
O      0.93992  0.79004  0.85208     O
C      0.94317 0.253817   0.6562     C
C      0.94317 0.746217   0.1562     C
O      0.94504  0.35064  0.35698     O
O      0.94504  0.64944  0.85698     O
H     0.950752 0.367532 0.839949     H
H     0.950752 0.632468 0.339949     H
C      0.95121 0.237413   0.8152     C
C      0.95121 0.762613   0.3152     C
H     0.960706 0.182982 0.828655     H
H     0.960706 0.817018 0.328655     H
H     0.973812 0.381212  0.61362     H
H     0.973812 0.618788  0.11362     H
C     0.994413  0.34827  0.82869     C
C     0.994413  0.65187  0.32869     C
Cu    0.997005 0.277814 0.1083912    Cu
Cu    0.997005 0.722194 0.6083912    Cu
N      0.99964  0.27774  0.88677     N
N      0.99964  0.72234  0.38677     N
