data_I
_chemical_name_common  '/home/zhangsd/repos/MofS-CGCNN/ML/data/WS24/clean_cifs/MOFF-1'
_cell_length_a 16.71499
_cell_length_b 15.15848
_cell_length_c 15.93738
_cell_angle_alpha 90.00000
_cell_angle_beta  112.09820
_cell_angle_gamma 90.00000
_space_group_name_H-M_alt      'P 1'


loop_
_space_group_symop_operation_xyz
  'x, y, z' 

loop_
_atom_site_label
_atom_site_fract_x
_atom_site_fract_y
_atom_site_fract_z
_atom_site_type_symbol
C          0.0  0.01064     0.25     C
C          0.0  0.08844     0.75     C
C          0.0  0.27454     0.75     C
C          0.0  0.34194     0.25     C
C          0.0  0.37224     0.75     C
C          0.0  0.44164     0.25     C
C          0.0  0.55844     0.75     C
C          0.0  0.62784     0.25     C
C          0.0  0.65814     0.75     C
C          0.0  0.72554     0.25     C
C          0.0  0.91164     0.25     C
C          0.0  0.98944     0.75     C
O     0.0090316 0.1767617 0.3924516     O
O     0.0090316 0.8232417 0.8924516     O
C      0.01562  0.13562  0.82892     C
C      0.01562  0.86442  0.32892     C
C      0.01652  0.22672  0.82882     C
C      0.01652  0.77332  0.32882     C
F     0.0313116 0.0928113 0.9068513     F
F     0.0313116 0.9071913 0.4068513     F
F     0.0328014 0.2693912 0.9077913     F
F     0.0328014 0.7306112 0.4077913     F
O     0.0593716 0.3049116 0.2335817     O
O     0.0593716 0.6950916 0.7335817     O
O     0.0619816 0.0462016 0.2382316     O
O     0.0619816 0.9538016 0.7382316     O
C      0.06982  0.42062  0.80742     C
C      0.06982  0.57942  0.30742     C
C      0.06992  0.48862  0.30742     C
C      0.06992  0.51142  0.80742     C
F     0.0710613 0.3422013 0.4981813     F
F     0.0710613 0.6578013 0.9981813     F
Cu    0.072483 0.174742 0.233452    Cu
Cu    0.072483 0.825262 0.733452    Cu
C      0.08892  0.18442  0.41502     C
C      0.08892  0.81562  0.91502     C
C      0.12562  0.28122  0.55112     C
C      0.12562  0.71882  0.05112     C
H       0.1285    0.103   0.0948     H
H       0.1285    0.897   0.5948     H
O     0.1314016 0.1809816 0.3655016     O
O     0.1314016 0.8190216 0.8655016     O
C      0.13802  0.20292  0.51402     C
C      0.13802  0.79712  0.01402     C
F     0.1392313 0.4462112 0.3650513     F
F     0.1392313 0.5537912 0.8650513     F
F     0.1403912 0.3781012 0.8634613     F
F     0.1403912 0.6219012 0.3634613     F
F     0.1500213 0.3754913 0.6747913     F
F     0.1500213 0.6245113 0.1747913     F
C      0.16732  0.29942  0.64182     C
C      0.16732  0.70062  0.14182     C
C      0.18295  0.13497  0.12415     C
C      0.18295  0.86517  0.62415     C
O     0.1830216 0.1753716 0.2023117     O
O     0.1830216 0.8246316 0.7023117     O
H       0.1889   0.1798   0.0826     H
H       0.1889   0.8202   0.5826     H
C      0.19572  0.14362  0.57082     C
C      0.19572  0.85642  0.07082     C
F     0.2109914 0.0664113 0.5378413     F
F     0.2109914 0.9335913 0.0378413     F
F     0.2186314 0.1235914 0.8358113     F
F     0.2186314 0.8764114 0.3358113     F
C      0.22442  0.23932  0.69992     C
C      0.22442  0.76072  0.19992     C
H       0.2281   0.1613   0.2462     H
H       0.2281   0.8387   0.7462     H
H       0.2313   0.0934   0.1398     H
H       0.2313   0.9066   0.6398     H
C      0.23802  0.16122  0.66182     C
C      0.23802  0.83882  0.16182     C
C      0.26642  0.19702  0.86252     C
C      0.26642  0.80302  0.36252     C
C      0.26922  0.25732  0.79792     C
C      0.26922  0.74272  0.29792     C
H       0.2709   0.3174   0.3988     H
H       0.2709   0.6826   0.8988     H
H       0.2746   0.3317   0.2647     H
H       0.2746   0.6683   0.7647     H
F     0.2951413 0.1022614 0.7133313     F
F     0.2951413 0.8977414 0.2133313     F
F     0.3073716 0.1487814 0.0120413     F
F     0.3073716 0.8512214 0.5120413     F
C      0.31002  0.21152  0.95352     C
C      0.31002  0.78852  0.45352     C
C      0.31682  0.33382  0.83022     C
C      0.31682  0.66622  0.33022     C
O     0.3197817 0.3105816 0.3037316     O
O     0.3197817 0.6894216 0.8037316     O
F     0.3211513 0.3949014 0.7714312     F
F     0.3211513 0.6051014 0.2714312     F
C      0.32454  0.33454  0.39164     C
C      0.32454  0.66554  0.89164     C
H       0.3325   0.3985   0.3995     H
H       0.3325   0.6015   0.8995     H
C      0.35872  0.28712  0.98542     C
C      0.35872  0.71292  0.48542     C
C      0.36112  0.34752  0.92152     C
C      0.36112  0.65252  0.42152     C
O     0.3685816 0.2922316 0.1363816     O
O     0.3685816 0.7077716 0.6363816     O
H       0.3734   0.3042   0.4373     H
H       0.3734   0.6958   0.9373     H
F     0.3811413 0.2488212 0.6100513     F
F     0.3811413 0.7511812 0.1100513     F
F     0.3826914 0.4251113 0.6094913     F
F     0.3826914 0.5748913 0.1094913     F
F     0.4060114 0.4232813 0.9477613     F
F     0.4060114 0.5767213 0.4477613     F
C      0.40982  0.30032  0.08532     C
C      0.40982  0.69972  0.58532     C
Cu    0.428563 0.307222 0.267852    Cu
Cu    0.428563 0.692782 0.767852    Cu
O     0.4335116 0.4350916 0.2516116     O
O     0.4335116 0.5649116 0.7516116     O
C      0.44152  0.29142  0.67922     C
C      0.44152  0.70862  0.17922     C
C      0.44172  0.38242  0.67922     C
C      0.44172  0.61762  0.17922     C
O     0.4471816 0.1776516 0.2771716     O
O     0.4471816 0.8223516 0.7771716     O
O     0.4884516 0.3158716 0.1067716     O
O     0.4884516 0.6841316 0.6067716     O
F     0.4908014 0.1399413 0.8940414     F
F     0.4908014 0.8600613 0.3940414     F
C      0.49692  0.09732  0.82282     C
C      0.49692  0.90272  0.32282     C
C      0.49862  0.00672  0.82362     C
C      0.49862  0.99332  0.32362     C
F     0.4991016 0.0351813 0.3979213     F
F     0.4991016 0.9648213 0.8979213     F
C          0.5  0.04084     0.25     C
C          0.5  0.14054     0.25     C
C          0.5  0.14634     0.75     C
C          0.5  0.24354     0.75     C
C          0.5  0.42994     0.75     C
C          0.5  0.47094     0.25     C
C          0.5  0.52914     0.75     C
C          0.5  0.57014     0.25     C
C          0.5  0.75654     0.25     C
C          0.5  0.85374     0.25     C
C          0.5  0.85954     0.75     C
C          0.5  0.95924     0.75     C
F     0.5009016 0.0351813 0.1020813     F
F     0.5009016 0.9648213 0.6020813     F
C      0.50142  0.00672  0.67642     C
C      0.50142  0.99332  0.17642     C
C      0.50312  0.09732  0.67722     C
C      0.50312  0.90272  0.17722     C
F     0.5092014 0.1399413 0.6059614     F
F     0.5092014 0.8600613 0.1059614     F
O     0.5115516 0.3158716 0.3932316     O
O     0.5115516 0.6841316 0.8932316     O
O     0.5528216 0.1776516 0.2228316     O
O     0.5528216 0.8223516 0.7228316     O
C      0.55832  0.38242  0.82082     C
C      0.55832  0.61762  0.32082     C
C      0.55852  0.29142  0.82082     C
C      0.55852  0.70862  0.32082     C
O     0.5664916 0.4350916 0.2483916     O
O     0.5664916 0.5649116 0.7483916     O
Cu    0.571443 0.307222 0.232152    Cu
Cu    0.571443 0.692782 0.732152    Cu
C      0.59022  0.30032  0.41472     C
C      0.59022  0.69972  0.91472     C
F     0.5939914 0.4232813 0.5522413     F
F     0.5939914 0.5767213 0.0522413     F
F     0.6173114 0.4251113 0.8905113     F
F     0.6173114 0.5748913 0.3905113     F
F     0.6188613 0.2488212 0.8899513     F
F     0.6188613 0.7511812 0.3899513     F
H       0.6266   0.3042   0.0627     H
H       0.6266   0.6958   0.5627     H
O     0.6314216 0.2922316 0.3636216     O
O     0.6314216 0.7077716 0.8636216     O
C      0.63892  0.34752  0.57852     C
C      0.63892  0.65252  0.07852     C
C      0.64132  0.28712  0.51462     C
C      0.64132  0.71292  0.01462     C
H       0.6675   0.3985   0.1005     H
H       0.6675   0.6015   0.6005     H
C      0.67554  0.33454  0.10844     C
C      0.67554  0.66554  0.60844     C
F     0.6788513 0.3949014 0.7285712     F
F     0.6788513 0.6051014 0.2285712     F
O     0.6802217 0.3105816 0.1962716     O
O     0.6802217 0.6894216 0.6962716     O
C      0.68322  0.33382  0.66982     C
C      0.68322  0.66622  0.16982     C
C      0.69002  0.21152  0.54652     C
C      0.69002  0.78852  0.04652     C
F     0.6926316 0.1487814 0.4879613     F
F     0.6926316 0.8512214 0.9879613     F
F     0.7048613 0.1022614 0.7866713     F
F     0.7048613 0.8977414 0.2866713     F
H       0.7254   0.3317   0.2353     H
H       0.7254   0.6683   0.7353     H
H       0.7291   0.3174   0.1012     H
H       0.7291   0.6826   0.6012     H
C      0.73082  0.25732  0.70212     C
C      0.73082  0.74272  0.20212     C
C      0.73362  0.19702  0.63752     C
C      0.73362  0.80302  0.13752     C
C      0.76202  0.16122  0.83822     C
C      0.76202  0.83882  0.33822     C
H       0.7687   0.0934   0.3602     H
H       0.7687   0.9066   0.8602     H
H       0.7719   0.1613   0.2538     H
H       0.7719   0.8387   0.7538     H
C      0.77562  0.23932  0.80012     C
C      0.77562  0.76072  0.30012     C
F     0.7813714 0.1235914 0.6641913     F
F     0.7813714 0.8764114 0.1641913     F
F     0.7890114 0.0664113 0.9621613     F
F     0.7890114 0.9335913 0.4621613     F
C      0.80432  0.14362  0.92922     C
C      0.80432  0.85642  0.42922     C
H       0.8111   0.1798   0.4174     H
H       0.8111   0.8202   0.9174     H
O     0.8169816 0.1753716 0.2976917     O
O     0.8169816 0.8246316 0.7976917     O
C      0.81715  0.13497  0.37595     C
C      0.81715  0.86517  0.87595     C
C      0.83272  0.29942  0.85822     C
C      0.83272  0.70062  0.35822     C
F     0.8499813 0.3754913 0.8252113     F
F     0.8499813 0.6245113 0.3252113     F
F     0.8596112 0.3781012 0.6365413     F
F     0.8596112 0.6219012 0.1365413     F
F     0.8607713 0.4462112 0.1349513     F
F     0.8607713 0.5537912 0.6349513     F
C      0.86202  0.20292  0.98602     C
C      0.86202  0.79712  0.48602     C
O     0.8686016 0.1809816 0.1345016     O
O     0.8686016 0.8190216 0.6345016     O
H       0.8715    0.103   0.4052     H
H       0.8715    0.897   0.9052     H
C      0.87442  0.28122  0.94892     C
C      0.87442  0.71882  0.44892     C
C      0.91112  0.18442  0.08502     C
C      0.91112  0.81562  0.58502     C
Cu    0.927523 0.174742 0.266552    Cu
Cu    0.927523 0.825262 0.766552    Cu
F     0.9289413 0.3422013 0.0018213     F
F     0.9289413 0.6578013 0.5018213     F
C      0.93012  0.48862  0.19262     C
C      0.93012  0.51142  0.69262     C
C      0.93022  0.42062  0.69262     C
C      0.93022  0.57942  0.19262     C
O     0.9380216 0.0462016 0.2617716     O
O     0.9380216 0.9538016 0.7617716     O
O     0.9406316 0.3049116 0.2664217     O
O     0.9406316 0.6950916 0.7664217     O
F     0.9672014 0.2693912 0.5922113     F
F     0.9672014 0.7306112 0.0922113     F
F     0.9686916 0.0928113 0.5931513     F
F     0.9686916 0.9071913 0.0931513     F
C      0.98352  0.22672  0.67122     C
C      0.98352  0.77332  0.17122     C
C      0.98442  0.13562  0.67112     C
C      0.98442  0.86442  0.17112     C
O     0.9909716 0.1767617 0.1075516     O
O     0.9909716 0.8232417 0.6075516     O
