data_I
_chemical_name_common  '/home/zhangsd/repos/MofS-CGCNN/ML/data/WS24/clean_cifs/MOXDEJ'
_cell_length_a 11.58600
_cell_length_b 12.50189
_cell_length_c 14.54300
_cell_angle_alpha 90.00000
_cell_angle_beta  90.00000
_cell_angle_gamma 114.14034
_space_group_name_H-M_alt      'P 1'


loop_
_space_group_symop_operation_xyz
  'x, y, z' 

loop_
_atom_site_label
_atom_site_fract_x
_atom_site_fract_y
_atom_site_fract_z
_atom_site_type_symbol
Co         0.0      0.0      0.5    Co
C      0.01409  0.71169  0.90696     C
O      0.01758  0.07784  0.37468     O
H       0.0343    0.669   0.9517     H
C      0.04661  0.16301  0.22791     C
C       0.0573     0.72  0.53859     C
C        0.063   0.4627  0.33998     C
C       0.0673   0.5939   0.6613     C
O      0.06984  0.87981  0.44186     O
C       0.0732   0.3356  0.46045     C
C      0.07432  0.83982  0.77613     C
C      0.08024  0.09714  0.30218     C
O       0.0895  0.47975  0.78639     O
H       0.1041   0.5246   0.2998     H
C        0.105   0.7784  0.84429     C
C      0.10725  0.29185  0.09662     C
H       0.1206   0.3109   0.4999     H
C      0.12525  0.81935  0.47496     C
C       0.1271   0.6843  0.59949     C
C       0.1331   0.4276   0.4011     C
H       0.1348    0.883   0.7331     H
C      0.13694  0.22784  0.16348     C
C       0.1428   0.5654  0.73303     C
O      0.16557  0.39241  0.95626     O
O       0.1682   0.0657  0.28374     O
O      0.18108  0.11207  0.54673     O
H       0.1866    0.782   0.8479     H
C      0.20654  0.36394  0.02884     C
H        0.215   0.7215   0.5988     H
H       0.2174   0.2283   0.1652     H
H       0.2208   0.4664   0.4019     H
O      0.23653  0.84208  0.45183     O
O      0.24121  0.87086  0.24244     O
Co     0.24361  0.98116 0.363926    Co
Co     0.25639  0.51884 0.863926    Co
O      0.25879  0.62914  0.74244     O
O      0.26347  0.65792  0.95183     O
H       0.2792   0.0336   0.9019     H
H       0.2826   0.2717   0.6652     H
H        0.285   0.7785   0.0988     H
C      0.29346  0.13606  0.52884     C
H       0.3134    0.718   0.3479     H
O      0.31892  0.38793  0.04673     O
O       0.3318   0.4343  0.78374     O
O      0.33443  0.10759  0.45626     O
C       0.3572   0.9346  0.23303     C
C      0.36306  0.27216  0.66348     C
H       0.3652    0.617   0.2331     H
C       0.3669   0.0724   0.9011     C
C       0.3729   0.8157  0.09949     C
C      0.37475  0.68065  0.97496     C
H       0.3794   0.1891   0.9999     H
C      0.39275  0.20815  0.59662     C
C        0.395   0.7216  0.34429     C
H       0.3959   0.9754   0.7998     H
O       0.4105  0.02025  0.28639     O
C      0.41976  0.40286  0.80218     C
C      0.42568  0.66018  0.27613     C
C       0.4268   0.1644  0.96045     C
O      0.43016  0.62019  0.94186     O
C       0.4327   0.9061   0.1613     C
C        0.437   0.0373  0.83998     C
C       0.4427     0.78  0.03859     C
C      0.45339  0.33699  0.72791     C
H       0.4657    0.831   0.4517     H
O      0.48242  0.42216  0.87468     O
C      0.48591  0.78831  0.40696     C
Co         0.5      0.5      0.0    Co
C      0.51409  0.21169  0.59304     C
O      0.51758  0.57784  0.12532     O
H       0.5343    0.169   0.5483     H
C      0.54661  0.66301  0.27209     C
C       0.5573     0.22  0.96141     C
C        0.563   0.9627  0.16002     C
C       0.5673   0.0939   0.8387     C
O      0.56984  0.37981  0.05814     O
C       0.5732   0.8356  0.03955     C
C      0.57432  0.33982  0.72387     C
C      0.58024  0.59714  0.19782     C
O       0.5895  0.97975  0.71361     O
H       0.6041   0.0246   0.2002     H
C        0.605   0.2784  0.65571     C
C      0.60725  0.79185  0.40338     C
H       0.6206   0.8109   0.0001     H
C      0.62525  0.31935  0.02504     C
C       0.6271   0.1843  0.90051     C
C       0.6331   0.9276   0.0989     C
H       0.6348    0.383   0.7669     H
C      0.63694  0.72784  0.33652     C
C       0.6428   0.0654  0.76697     C
O      0.66557  0.89241  0.54374     O
O       0.6682   0.5657  0.21626     O
O      0.68108  0.61207  0.95327     O
H       0.6866    0.282   0.6521     H
C      0.70654  0.86394  0.47116     C
H        0.715   0.2215   0.9012     H
H       0.7174   0.7283   0.3348     H
H       0.7208   0.9664   0.0981     H
O      0.73653  0.34208  0.04817     O
O      0.74121  0.37086  0.25756     O
Co     0.74361  0.48116 0.136074    Co
Co     0.75639  0.01884 0.636074    Co
O      0.75879  0.12914  0.75756     O
O      0.76347  0.15792  0.54817     O
H       0.7792   0.5336   0.5981     H
H       0.7826   0.7717   0.8348     H
H        0.785   0.2785   0.4012     H
C      0.79346  0.63606  0.97116     C
H       0.8134    0.218   0.1521     H
O      0.81892  0.88793  0.45327     O
O       0.8318   0.9343  0.71626     O
O      0.83443  0.60759  0.04374     O
C       0.8572   0.4346  0.26697     C
C      0.86306  0.77216  0.83652     C
H       0.8652    0.117   0.2669     H
C       0.8669   0.5724   0.5989     C
C       0.8729   0.3157  0.40051     C
C      0.87475  0.18065  0.52504     C
H       0.8794   0.6891   0.5001     H
C      0.89275  0.70815  0.90338     C
C        0.895   0.2216  0.15571     C
H       0.8959   0.4754   0.7002     H
O       0.9105  0.52025  0.21361     O
C      0.91976  0.90286  0.69782     C
C      0.92568  0.16018  0.22387     C
C       0.9268   0.6644  0.53955     C
O      0.93016  0.12019  0.55814     O
C       0.9327   0.4061   0.3387     C
C        0.937   0.5373  0.66002     C
C       0.9427     0.28  0.46141     C
C      0.95339  0.83699  0.77209     C
H       0.9657    0.331   0.0483     H
O      0.98242  0.92216  0.62532     O
C      0.98591  0.28831  0.09304     C
