data_I
_chemical_name_common  '/home/zhangsd/repos/MofS-CGCNN/ML/data/WS24/clean_cifs/MOXDIN'
_cell_length_a 32.99700
_cell_length_b  9.71870
_cell_length_c 18.39200
_cell_angle_alpha 90.00000
_cell_angle_beta  92.25000
_cell_angle_gamma 90.00000
_space_group_name_H-M_alt      'P 1'


loop_
_space_group_symop_operation_xyz
  'x, y, z' 

loop_
_atom_site_label
_atom_site_fract_x
_atom_site_fract_y
_atom_site_fract_z
_atom_site_type_symbol
C      0.00494  0.36465  0.48624     C
C      0.00494  0.63535  0.98624     C
H       0.0076   0.2694   0.4758     H
H       0.0076   0.7306   0.9758     H
C      0.03469  0.42246  0.00747     C
C      0.03469  0.57754  0.50747     C
C      0.03771  0.44116  0.49471     C
C      0.03771  0.55884  0.99471     C
H       0.0582   0.3664   0.0121     H
H       0.0582   0.6336   0.5121     H
C      0.07952  0.37721  0.48744     C
C      0.07952  0.62279  0.98744     C
O       0.0827  0.25755  0.47085     O
O       0.0827  0.74245  0.97085     O
O      0.11003   0.4494  0.49586     O
O      0.11003   0.5506  0.99586     O
H       0.1269   0.0739   0.6902     H
H       0.1269   0.9261   0.1902     H
H       0.1298   0.0371   0.3021     H
H       0.1298   0.9629   0.8021     H
C      0.15219  0.04025   0.7092     C
C      0.15219  0.95975   0.2092     C
Co      0.1523  0.30032  0.48706    Co
Co      0.1523  0.69968  0.98706    Co
O      0.15283  0.19785  0.58182     O
O      0.15283  0.80215  0.08182     O
C      0.15369  0.02643  0.27543     C
C      0.15369  0.97357  0.77543     C
O      0.15952  0.18021   0.4029     O
O      0.15952  0.81979   0.9029     O
O      0.18286  0.49259  0.90149     O
O      0.18286  0.50741  0.40149     O
C      0.18508  0.13101  0.59773     C
C      0.18508  0.86899  0.09773     C
C      0.18656  0.05932  0.66977     C
C      0.18656  0.94068  0.16977     C
C      0.19054  0.07787  0.30278     C
C      0.19054  0.92213  0.80278     C
C      0.19304  0.15454  0.37435     C
C      0.19304  0.84546  0.87435     C
C      0.20357   0.4917  0.95893     C
C      0.20357   0.5083  0.45893     C
O      0.20394  0.40703  0.50511     O
O      0.20394  0.59297  0.00511     O
O      0.21428  0.11726  0.55666     O
O      0.21428  0.88274  0.05666     O
H       0.2171   0.2624   0.8841     H
H       0.2171   0.7376   0.3841     H
C      0.22341  0.00691  0.69633     C
C      0.22341  0.99309  0.19633     C
C      0.22541   0.0622  0.26375     C
C      0.22541   0.9378  0.76375     C
O      0.22737  0.18458   0.3999     O
O      0.22737  0.81542   0.8999     O
C      0.22837  0.36622  0.98036     C
C      0.22837  0.63378  0.48036     C
C      0.23051  0.25706  0.93065     C
C      0.23051  0.74294  0.43065     C
H       0.2452    0.433   0.0818     H
H       0.2452    0.567   0.5818     H
H       0.2471   0.0176   0.6692     H
H       0.2471   0.9824   0.1692     H
C      0.24738  0.35842  0.04875     C
C      0.24738  0.64158  0.54875     C
H       0.2495   0.4021   0.7176     H
H       0.2495   0.5979   0.2176     H
Co        0.25     0.25      0.5    Co
Co        0.25     0.75      0.0    Co
H       0.2505   0.0979   0.2824     H
H       0.2505   0.9021   0.7824     H
C      0.25262  0.14158  0.95125     C
C      0.25262  0.85842  0.45125     C
H       0.2529   0.4824   0.3308     H
H       0.2529   0.5176   0.8308     H
H       0.2548    0.067   0.9182     H
H       0.2548    0.933   0.4182     H
C      0.26949  0.24294  0.06935     C
C      0.26949  0.75706  0.56935     C
C      0.27163  0.13378  0.01964     C
C      0.27163  0.86622  0.51964     C
O      0.27263  0.31542   0.6001     O
O      0.27263  0.68458   0.1001     O
C      0.27459   0.4378  0.73625     C
C      0.27459   0.5622  0.23625     C
C      0.27659  0.49309  0.30367     C
C      0.27659  0.50691  0.80367     C
H       0.2829   0.2376   0.1159     H
H       0.2829   0.7624   0.6159     H
O      0.28572  0.38274  0.44334     O
O      0.28572  0.61726  0.94334     O
O      0.29606  0.09297  0.49489     O
O      0.29606  0.90703  0.99489     O
C      0.29643   0.0083  0.04107     C
C      0.29643   0.9917  0.54107     C
C      0.30696  0.34546  0.62565     C
C      0.30696  0.65454  0.12565     C
C      0.30946  0.42213  0.69722     C
C      0.30946  0.57787  0.19722     C
C      0.31344  0.44068  0.33023     C
C      0.31344  0.55932  0.83023     C
C      0.31492  0.36899  0.40227     C
C      0.31492  0.63101  0.90227     C
O      0.31714  0.00741  0.09851     O
O      0.31714  0.99259  0.59851     O
O      0.34048  0.31979   0.5971     O
O      0.34048  0.68021   0.0971     O
C      0.34631  0.47357  0.72457     C
C      0.34631  0.52643  0.22457     C
O      0.34717  0.30215  0.41818     O
O      0.34717  0.69785  0.91818     O
Co      0.3477  0.19968  0.51294    Co
Co      0.3477  0.80032  0.01294    Co
C      0.34781  0.45975   0.2908     C
C      0.34781  0.54025   0.7908     C
H       0.3702   0.4629   0.6979     H
H       0.3702   0.5371   0.1979     H
H       0.3731   0.4261   0.3098     H
H       0.3731   0.5739   0.8098     H
O      0.38997   0.0506  0.50414     O
O      0.38997   0.9494  0.00414     O
O       0.4173  0.24245  0.52915     O
O       0.4173  0.75755  0.02915     O
C      0.42048  0.12279  0.51256     C
C      0.42048  0.87721  0.01256     C
H       0.4418   0.1336   0.9879     H
H       0.4418   0.8664   0.4879     H
C      0.46229  0.05884  0.50529     C
C      0.46229  0.94116  0.00529     C
C      0.46531  0.07754  0.99253     C
C      0.46531  0.92246  0.49253     C
H       0.4924   0.2306   0.5242     H
H       0.4924   0.7694   0.0242     H
C      0.49506  0.13535  0.51376     C
C      0.49506  0.86465  0.01376     C
C      0.50494  0.13535  0.98624     C
C      0.50494  0.86465  0.48624     C
H       0.5076   0.2306   0.9758     H
H       0.5076   0.7694   0.4758     H
C      0.53469  0.07754  0.50747     C
C      0.53469  0.92246  0.00747     C
C      0.53771  0.05884  0.99471     C
C      0.53771  0.94116  0.49471     C
H       0.5582   0.1336   0.5121     H
H       0.5582   0.8664   0.0121     H
C      0.57952  0.12279  0.98744     C
C      0.57952  0.87721  0.48744     C
O       0.5827  0.24245  0.97085     O
O       0.5827  0.75755  0.47085     O
O      0.61003   0.0506  0.99586     O
O      0.61003   0.9494  0.49586     O
H       0.6269   0.4261   0.1902     H
H       0.6269   0.5739   0.6902     H
H       0.6298   0.4629   0.8021     H
H       0.6298   0.5371   0.3021     H
C      0.65219  0.45975   0.2092     C
C      0.65219  0.54025   0.7092     C
Co      0.6523  0.19968  0.98706    Co
Co      0.6523  0.80032  0.48706    Co
O      0.65283  0.30215  0.08182     O
O      0.65283  0.69785  0.58182     O
C      0.65369  0.47357  0.77543     C
C      0.65369  0.52643  0.27543     C
O      0.65952  0.31979   0.9029     O
O      0.65952  0.68021   0.4029     O
O      0.68286  0.00741  0.40149     O
O      0.68286  0.99259  0.90149     O
C      0.68508  0.36899  0.09773     C
C      0.68508  0.63101  0.59773     C
C      0.68656  0.44068  0.16977     C
C      0.68656  0.55932  0.66977     C
C      0.69054  0.42213  0.80278     C
C      0.69054  0.57787  0.30278     C
C      0.69304  0.34546  0.87435     C
C      0.69304  0.65454  0.37435     C
C      0.70357   0.0083  0.45893     C
C      0.70357   0.9917  0.95893     C
O      0.70394  0.09297  0.00511     O
O      0.70394  0.90703  0.50511     O
O      0.71428  0.38274  0.05666     O
O      0.71428  0.61726  0.55666     O
H       0.7171   0.2376   0.3841     H
H       0.7171   0.7624   0.8841     H
C      0.72341  0.49309  0.19633     C
C      0.72341  0.50691  0.69633     C
C      0.72541   0.4378  0.76375     C
C      0.72541   0.5622  0.26375     C
O      0.72737  0.31542   0.8999     O
O      0.72737  0.68458   0.3999     O
C      0.72837  0.13378  0.48036     C
C      0.72837  0.86622  0.98036     C
C      0.73051  0.24294  0.43065     C
C      0.73051  0.75706  0.93065     C
H       0.7452    0.067   0.5818     H
H       0.7452    0.933   0.0818     H
H       0.7471   0.4824   0.1692     H
H       0.7471   0.5176   0.6692     H
C      0.74738  0.14158  0.54875     C
C      0.74738  0.85842  0.04875     C
H       0.7495   0.0979   0.2176     H
H       0.7495   0.9021   0.7176     H
Co        0.75     0.25      0.0    Co
Co        0.75     0.75      0.5    Co
H       0.7505   0.4021   0.7824     H
H       0.7505   0.5979   0.2824     H
C      0.75262  0.35842  0.45125     C
C      0.75262  0.64158  0.95125     C
H       0.7529   0.0176   0.8308     H
H       0.7529   0.9824   0.3308     H
H       0.7548    0.433   0.4182     H
H       0.7548    0.567   0.9182     H
C      0.76949  0.25706  0.56935     C
C      0.76949  0.74294  0.06935     C
C      0.77163  0.36622  0.51964     C
C      0.77163  0.63378  0.01964     C
O      0.77263  0.18458   0.1001     O
O      0.77263  0.81542   0.6001     O
C      0.77459   0.0622  0.23625     C
C      0.77459   0.9378  0.73625     C
C      0.77659  0.00691  0.80367     C
C      0.77659  0.99309  0.30367     C
H       0.7829   0.2624   0.6159     H
H       0.7829   0.7376   0.1159     H
O      0.78572  0.11726  0.94334     O
O      0.78572  0.88274  0.44334     O
O      0.79606  0.40703  0.99489     O
O      0.79606  0.59297  0.49489     O
C      0.79643   0.4917  0.54107     C
C      0.79643   0.5083  0.04107     C
C      0.80696  0.15454  0.12565     C
C      0.80696  0.84546  0.62565     C
C      0.80946  0.07787  0.19722     C
C      0.80946  0.92213  0.69722     C
C      0.81344  0.05932  0.83023     C
C      0.81344  0.94068  0.33023     C
C      0.81492  0.13101  0.90227     C
C      0.81492  0.86899  0.40227     C
O      0.81714  0.49259  0.59851     O
O      0.81714  0.50741  0.09851     O
O      0.84048  0.18021   0.0971     O
O      0.84048  0.81979   0.5971     O
C      0.84631  0.02643  0.22457     C
C      0.84631  0.97357  0.72457     C
O      0.84717  0.19785  0.91818     O
O      0.84717  0.80215  0.41818     O
Co      0.8477  0.30032  0.01294    Co
Co      0.8477  0.69968  0.51294    Co
C      0.84781  0.04025   0.7908     C
C      0.84781  0.95975   0.2908     C
H       0.8702   0.0371   0.1979     H
H       0.8702   0.9629   0.6979     H
H       0.8731   0.0739   0.8098     H
H       0.8731   0.9261   0.3098     H
O      0.88997   0.4494  0.00414     O
O      0.88997   0.5506  0.50414     O
O       0.9173  0.25755  0.02915     O
O       0.9173  0.74245  0.52915     O
C      0.92048  0.37721  0.01256     C
C      0.92048  0.62279  0.51256     C
H       0.9418   0.3664   0.4879     H
H       0.9418   0.6336   0.9879     H
C      0.96229  0.44116  0.00529     C
C      0.96229  0.55884  0.50529     C
C      0.96531  0.42246  0.49253     C
C      0.96531  0.57754  0.99253     C
H       0.9924   0.2694   0.0242     H
H       0.9924   0.7306   0.5242     H
C      0.99506  0.36465  0.01376     C
C      0.99506  0.63535  0.51376     C
