data_I
_chemical_name_common  '/home/zhangsd/repos/MofS-CGCNN/ML/data/WS24/clean_cifs/MOYNEU'
_cell_length_a 11.67500
_cell_length_b 16.42900
_cell_length_c 20.93400
_cell_angle_alpha 90.00000
_cell_angle_beta  90.00000
_cell_angle_gamma 90.00000
_space_group_name_H-M_alt      'P 1'


loop_
_space_group_symop_operation_xyz
  'x, y, z' 

loop_
_atom_site_label
_atom_site_fract_x
_atom_site_fract_y
_atom_site_fract_z
_atom_site_type_symbol
Zn         0.0     0.25  0.82695    Zn
Zn         0.0     0.75  0.17305    Zn
H       0.0106   0.1671   0.1879     H
H       0.0106   0.6671   0.8121     H
H        0.025   0.3559   0.4933     H
H        0.025   0.8559   0.5067     H
C       0.0281   0.3579   0.7473     C
C       0.0281   0.8579   0.2527     C
C       0.0329   0.4768   0.3808     C
C       0.0329   0.9768   0.6192     C
C       0.0453   0.0343   0.6681     C
C       0.0453   0.5343   0.3319     C
C       0.0488   0.4204   0.6914     C
C       0.0488   0.9204   0.3086     C
C       0.0527   0.1347   0.4999     C
C       0.0527   0.6347   0.5001     C
H       0.0583    0.106   0.2389     H
H       0.0583    0.606   0.7611     H
H       0.0641   0.0699   0.1017     H
H       0.0641   0.5699   0.8983     H
H       0.0748   0.2016   0.5804     H
H       0.0748   0.7016   0.4196     H
C       0.0774   0.1506   0.2113     C
C       0.0774   0.6506   0.7887     C
O       0.0795   0.1508   0.7579     O
O       0.0795   0.6508   0.2421     O
C       0.0802   0.0327   0.4047     C
C       0.0802   0.5327   0.5953     C
H        0.087   0.4609   0.9743     H
H        0.087   0.9609   0.0257     H
H       0.0944   0.4468   0.3965     H
H       0.0944   0.9468   0.6035     H
H       0.0951   0.3593   0.0579     H
H       0.0951   0.8593   0.9421     H
H       0.1019   0.0122   0.1574     H
H       0.1019   0.5122   0.8426     H
H       0.1049   0.1954   0.2364     H
H       0.1049   0.6954   0.7636     H
H       0.1056   0.2932   0.0043     H
H       0.1056   0.7932   0.9957     H
O       0.1068   0.2053   0.8906     O
O       0.1068   0.7053   0.1094     O
O       0.1093   0.3234   0.7668     O
O       0.1093   0.8234   0.2332     O
C       0.1138   0.1697   0.5509     C
C       0.1138   0.6697   0.4491     C
H       0.1174   0.0429   0.6857     H
H       0.1174   0.5429   0.3143     H
H       0.1175    0.405   0.9161     H
H       0.1175    0.905   0.0839     H
C       0.1186   0.0843   0.4594     C
C       0.1186   0.5843   0.5406     C
H       0.1274   0.1059   0.9791     H
H       0.1274   0.6059   0.0209     H
C       0.1292   0.0521   0.1268     C
C       0.1292   0.5521   0.8732     C
C       0.1477   0.3284   0.0324     C
C       0.1477   0.8284   0.9676     C
C       0.1498   0.4391   0.9493     C
C       0.1498   0.9391   0.0507     C
C       0.1581    0.433   0.6674     C
C       0.1581    0.933   0.3326     C
C       0.1727   0.4887   0.6168     C
C       0.1727   0.9887   0.3832     C
C       0.1763   0.1223   0.1616     C
C       0.1763   0.6223   0.8384     C
H       0.1947   0.1661   0.1323     H
H       0.1947   0.6661   0.8677     H
H       0.1958   0.2963   0.0597     H
H       0.1958   0.7963   0.9403     H
C       0.2063   0.1107   0.9838     C
C       0.2063   0.6107   0.0162     C
C       0.2138   0.1987   0.8871     C
C       0.2138   0.6987   0.1129     C
C       0.2167   0.0114   0.0825     C
C       0.2167   0.5114   0.9175     C
H       0.2205   0.4052   0.6844     H
H       0.2205   0.9052   0.3156     H
H       0.2224   0.3572   0.5343     H
H       0.2224   0.8572   0.4657     H
C       0.2243   0.3883   0.9915     C
C       0.2243   0.8883   0.0085     C
O       0.2257    0.224   0.6584     O
O       0.2257    0.724   0.3416     O
C       0.2296    0.158   0.5582     C
C       0.2296    0.658   0.4418     C
H       0.2318   0.4232   0.4802     H
H       0.2318   0.9232   0.5198     H
C       0.2366   0.0708    0.467     C
C       0.2366   0.5708    0.533     C
H       0.2454    0.107   0.1844     H
H       0.2454    0.607   0.8156     H
Zn        0.25  0.23031     0.75    Zn
Zn        0.25  0.73031     0.25    Zn
H       0.2546    0.107   0.3156     H
H       0.2546    0.607   0.6844     H
C       0.2634   0.0708    0.033     C
C       0.2634   0.5708    0.967     C
H       0.2682   0.4232   0.0198     H
H       0.2682   0.9232   0.9802     H
C       0.2704    0.158   0.9418     C
C       0.2704    0.658   0.0582     C
O       0.2743    0.224   0.8416     O
O       0.2743    0.724   0.1584     O
C       0.2757   0.3883   0.5085     C
C       0.2757   0.8883   0.4915     C
H       0.2776   0.3572   0.9657     H
H       0.2776   0.8572   0.0343     H
H       0.2795   0.4052   0.8156     H
H       0.2795   0.9052   0.1844     H
C       0.2833   0.0114   0.4175     C
C       0.2833   0.5114   0.5825     C
C       0.2862   0.1987   0.6129     C
C       0.2862   0.6987   0.3871     C
C       0.2937   0.1107   0.5162     C
C       0.2937   0.6107   0.4838     C
H       0.3042   0.2963   0.4403     H
H       0.3042   0.7963   0.5597     H
H       0.3053   0.1661   0.3677     H
H       0.3053   0.6661   0.6323     H
C       0.3237   0.1223   0.3384     C
C       0.3237   0.6223   0.6616     C
C       0.3273   0.4887   0.8832     C
C       0.3273   0.9887   0.1168     C
C       0.3419    0.433   0.8326     C
C       0.3419    0.933   0.1674     C
C       0.3502   0.4391   0.5507     C
C       0.3502   0.9391   0.4493     C
C       0.3523   0.3284   0.4676     C
C       0.3523   0.8284   0.5324     C
C       0.3708   0.0521   0.3732     C
C       0.3708   0.5521   0.6268     C
H       0.3726   0.1059   0.5209     H
H       0.3726   0.6059   0.4791     H
C       0.3814   0.0843   0.0406     C
C       0.3814   0.5843   0.9594     C
H       0.3825    0.405   0.5839     H
H       0.3825    0.905   0.4161     H
H       0.3826   0.0429   0.8143     H
H       0.3826   0.5429   0.1857     H
C       0.3862   0.1697   0.9491     C
C       0.3862   0.6697   0.0509     C
O       0.3907   0.3234   0.7332     O
O       0.3907   0.8234   0.2668     O
O       0.3932   0.2053   0.6094     O
O       0.3932   0.7053   0.3906     O
H       0.3944   0.2932   0.4957     H
H       0.3944   0.7932   0.5043     H
H       0.3951   0.1954   0.2636     H
H       0.3951   0.6954   0.7364     H
H       0.3981   0.0122   0.3426     H
H       0.3981   0.5122   0.6574     H
H       0.4049   0.3593   0.4421     H
H       0.4049   0.8593   0.5579     H
H       0.4056   0.4468   0.1035     H
H       0.4056   0.9468   0.8965     H
H        0.413   0.4609   0.5257     H
H        0.413   0.9609   0.4743     H
C       0.4198   0.0327   0.0953     C
C       0.4198   0.5327   0.9047     C
O       0.4205   0.1508   0.7421     O
O       0.4205   0.6508   0.2579     O
C       0.4226   0.1506   0.2887     C
C       0.4226   0.6506   0.7113     C
H       0.4252   0.2016   0.9196     H
H       0.4252   0.7016   0.0804     H
H       0.4359   0.0699   0.3983     H
H       0.4359   0.5699   0.6017     H
H       0.4417    0.106   0.2611     H
H       0.4417    0.606   0.7389     H
C       0.4473   0.1347   0.0001     C
C       0.4473   0.6347   0.9999     C
C       0.4512   0.4204   0.8086     C
C       0.4512   0.9204   0.1914     C
C       0.4547   0.0343   0.8319     C
C       0.4547   0.5343   0.1681     C
C       0.4671   0.4768   0.1192     C
C       0.4671   0.9768   0.8808     C
C       0.4719   0.3579   0.7527     C
C       0.4719   0.8579   0.2473     C
H        0.475   0.3559   0.0067     H
H        0.475   0.8559   0.9933     H
H       0.4894   0.1671   0.3121     H
H       0.4894   0.6671   0.6879     H
Zn         0.5     0.25  0.67305    Zn
Zn         0.5     0.75  0.32695    Zn
H       0.5106   0.3329   0.3121     H
H       0.5106   0.8329   0.6879     H
H        0.525   0.1441   0.0067     H
H        0.525   0.6441   0.9933     H
C       0.5281   0.1421   0.7527     C
C       0.5281   0.6421   0.2473     C
C       0.5329   0.0232   0.1192     C
C       0.5329   0.5232   0.8808     C
C       0.5453   0.4657   0.8319     C
C       0.5453   0.9657   0.1681     C
C       0.5488   0.0796   0.8086     C
C       0.5488   0.5796   0.1914     C
C       0.5527   0.3653   0.0001     C
C       0.5527   0.8653   0.9999     C
H       0.5583    0.394   0.2611     H
H       0.5583    0.894   0.7389     H
H       0.5641   0.4301   0.3983     H
H       0.5641   0.9301   0.6017     H
H       0.5748   0.2984   0.9196     H
H       0.5748   0.7984   0.0804     H
C       0.5774   0.3494   0.2887     C
C       0.5774   0.8494   0.7113     C
O       0.5795   0.3492   0.7421     O
O       0.5795   0.8492   0.2579     O
C       0.5802   0.4673   0.0953     C
C       0.5802   0.9673   0.9047     C
H        0.587   0.0391   0.5257     H
H        0.587   0.5391   0.4743     H
H       0.5944   0.0532   0.1035     H
H       0.5944   0.5532   0.8965     H
H       0.5951   0.1407   0.4421     H
H       0.5951   0.6407   0.5579     H
H       0.6019   0.4878   0.3426     H
H       0.6019   0.9878   0.6574     H
H       0.6049   0.3046   0.2636     H
H       0.6049   0.8046   0.7364     H
H       0.6056   0.2068   0.4957     H
H       0.6056   0.7068   0.5043     H
O       0.6068   0.2947   0.6094     O
O       0.6068   0.7947   0.3906     O
O       0.6093   0.1766   0.7332     O
O       0.6093   0.6766   0.2668     O
C       0.6138   0.3303   0.9491     C
C       0.6138   0.8303   0.0509     C
H       0.6174   0.4571   0.8143     H
H       0.6174   0.9571   0.1857     H
H       0.6175    0.095   0.5839     H
H       0.6175    0.595   0.4161     H
C       0.6186   0.4157   0.0406     C
C       0.6186   0.9157   0.9594     C
H       0.6274   0.3941   0.5209     H
H       0.6274   0.8941   0.4791     H
C       0.6292   0.4479   0.3732     C
C       0.6292   0.9479   0.6268     C
C       0.6477   0.1716   0.4676     C
C       0.6477   0.6716   0.5324     C
C       0.6498   0.0609   0.5507     C
C       0.6498   0.5609   0.4493     C
C       0.6581    0.067   0.8326     C
C       0.6581    0.567   0.1674     C
C       0.6727   0.0113   0.8832     C
C       0.6727   0.5113   0.1168     C
C       0.6763   0.3777   0.3384     C
C       0.6763   0.8777   0.6616     C
H       0.6947   0.3339   0.3677     H
H       0.6947   0.8339   0.6323     H
H       0.6958   0.2037   0.4403     H
H       0.6958   0.7037   0.5597     H
C       0.7063   0.3893   0.5162     C
C       0.7063   0.8893   0.4838     C
C       0.7138   0.3013   0.6129     C
C       0.7138   0.8013   0.3871     C
C       0.7167   0.4886   0.4175     C
C       0.7167   0.9886   0.5825     C
H       0.7205   0.0948   0.8156     H
H       0.7205   0.5948   0.1844     H
H       0.7224   0.1428   0.9657     H
H       0.7224   0.6428   0.0343     H
C       0.7243   0.1117   0.5085     C
C       0.7243   0.6117   0.4915     C
O       0.7257    0.276   0.8416     O
O       0.7257    0.776   0.1584     O
C       0.7296    0.342   0.9418     C
C       0.7296    0.842   0.0582     C
H       0.7318   0.0768   0.0198     H
H       0.7318   0.5768   0.9802     H
C       0.7366   0.4292    0.033     C
C       0.7366   0.9292    0.967     C
H       0.7454    0.393   0.3156     H
H       0.7454    0.893   0.6844     H
Zn        0.75  0.26969     0.75    Zn
Zn        0.75  0.76969     0.25    Zn
H       0.7546    0.393   0.1844     H
H       0.7546    0.893   0.8156     H
C       0.7634   0.4292    0.467     C
C       0.7634   0.9292    0.533     C
H       0.7682   0.0768   0.4802     H
H       0.7682   0.5768   0.5198     H
C       0.7704    0.342   0.5582     C
C       0.7704    0.842   0.4418     C
O       0.7743    0.276   0.6584     O
O       0.7743    0.776   0.3416     O
C       0.7757   0.1117   0.9915     C
C       0.7757   0.6117   0.0085     C
H       0.7776   0.1428   0.5343     H
H       0.7776   0.6428   0.4657     H
H       0.7795   0.0948   0.6844     H
H       0.7795   0.5948   0.3156     H
C       0.7833   0.4886   0.0825     C
C       0.7833   0.9886   0.9175     C
C       0.7862   0.3013   0.8871     C
C       0.7862   0.8013   0.1129     C
C       0.7937   0.3893   0.9838     C
C       0.7937   0.8893   0.0162     C
H       0.8042   0.2037   0.0597     H
H       0.8042   0.7037   0.9403     H
H       0.8053   0.3339   0.1323     H
H       0.8053   0.8339   0.8677     H
C       0.8237   0.3777   0.1616     C
C       0.8237   0.8777   0.8384     C
C       0.8273   0.0113   0.6168     C
C       0.8273   0.5113   0.3832     C
C       0.8419    0.067   0.6674     C
C       0.8419    0.567   0.3326     C
C       0.8502   0.0609   0.9493     C
C       0.8502   0.5609   0.0507     C
C       0.8523   0.1716   0.0324     C
C       0.8523   0.6716   0.9676     C
C       0.8708   0.4479   0.1268     C
C       0.8708   0.9479   0.8732     C
H       0.8726   0.3941   0.9791     H
H       0.8726   0.8941   0.0209     H
C       0.8814   0.4157   0.4594     C
C       0.8814   0.9157   0.5406     C
H       0.8825    0.095   0.9161     H
H       0.8825    0.595   0.0839     H
H       0.8826   0.4571   0.6857     H
H       0.8826   0.9571   0.3143     H
C       0.8862   0.3303   0.5509     C
C       0.8862   0.8303   0.4491     C
O       0.8907   0.1766   0.7668     O
O       0.8907   0.6766   0.2332     O
O       0.8932   0.2947   0.8906     O
O       0.8932   0.7947   0.1094     O
H       0.8944   0.2068   0.0043     H
H       0.8944   0.7068   0.9957     H
H       0.8951   0.3046   0.2364     H
H       0.8951   0.8046   0.7636     H
H       0.8981   0.4878   0.1574     H
H       0.8981   0.9878   0.8426     H
H       0.9049   0.1407   0.0579     H
H       0.9049   0.6407   0.9421     H
H       0.9056   0.0532   0.3965     H
H       0.9056   0.5532   0.6035     H
H        0.913   0.0391   0.9743     H
H        0.913   0.5391   0.0257     H
C       0.9198   0.4673   0.4047     C
C       0.9198   0.9673   0.5953     C
O       0.9205   0.3492   0.7579     O
O       0.9205   0.8492   0.2421     O
C       0.9226   0.3494   0.2113     C
C       0.9226   0.8494   0.7887     C
H       0.9252   0.2984   0.5804     H
H       0.9252   0.7984   0.4196     H
H       0.9359   0.4301   0.1017     H
H       0.9359   0.9301   0.8983     H
H       0.9417    0.394   0.2389     H
H       0.9417    0.894   0.7611     H
C       0.9473   0.3653   0.4999     C
C       0.9473   0.8653   0.5001     C
C       0.9512   0.0796   0.6914     C
C       0.9512   0.5796   0.3086     C
C       0.9547   0.4657   0.6681     C
C       0.9547   0.9657   0.3319     C
C       0.9671   0.0232   0.3808     C
C       0.9671   0.5232   0.6192     C
C       0.9719   0.1421   0.7473     C
C       0.9719   0.6421   0.2527     C
H        0.975   0.1441   0.4933     H
H        0.975   0.6441   0.5067     H
H       0.9894   0.3329   0.1879     H
H       0.9894   0.8329   0.8121     H
