data_I
_chemical_name_common  '/home/zhangsd/repos/MofS-CGCNN/ML/data/WS24/clean_cifs/MOYPEW'
_cell_length_a 11.51470
_cell_length_b 13.17710
_cell_length_c 22.29950
_cell_angle_alpha 95.64200
_cell_angle_beta  90.00000
_cell_angle_gamma 90.00000
_space_group_name_H-M_alt      'P 1'


loop_
_space_group_symop_operation_xyz
  'x, y, z' 

loop_
_atom_site_label
_atom_site_fract_x
_atom_site_fract_y
_atom_site_fract_z
_atom_site_type_symbol
H       0.0019   0.1214   0.6643     H
C       0.0019   0.5802   0.2996     C
H       0.0117    0.046   0.9006     H
H       0.0123   0.6849    0.183     H
H       0.0182   0.8748   0.4558     H
C       0.0267   0.0914   0.5733     C
C       0.0275   0.6565   0.2188     C
H       0.0311   0.4541   0.6701     H
C       0.0377    0.326   0.4283     C
H       0.0386   0.4633   0.1674     H
H       0.0413   0.0219   0.5563     H
H       0.0421   0.4789   0.4293     H
C       0.0426   0.9101   0.3689     C
H       0.0434    0.063   0.2164     H
H       0.0468   0.9792   0.9521     H
C       0.0482   0.3095   0.1498     C
C       0.0484   0.7144   0.8075     C
C       0.0509   0.6921   0.6212     C
N       0.0538   0.3868   0.7486     N
H       0.0592   0.1549   0.9881     H
H       0.0596   0.9794   0.3621     H
H       0.0614   0.1764   0.4424     H
O       0.0643   0.7814  0.64587     O
O       0.0698   0.8045   0.8007     O
C       0.0723   0.4244   0.4477     C
C       0.0744   0.0271   0.9257     C
H       0.0753   0.8872   0.1744     H
C        0.077   0.4114    0.144     C
C       0.0838   0.2426   0.4555     C
H       0.0924   0.1631   0.1223     H
O       0.1024   0.6414  0.78057     O
C       0.1037   0.0207   0.2261     C
C       0.1093   0.2308   0.1173     C
O       0.1094   0.6188  0.63643     O
C       0.1136   0.6066   0.2949     C
H       0.1138   0.8733   0.3723     H
H       0.1146   0.2008   0.6122     H
C       0.1212   0.1233   0.9635     C
C        0.122   0.9236   0.2029     C
H       0.1302   0.1697    0.315     H
N       0.1302   0.6539  0.24338     N
C       0.1336   0.1427   0.5837     C
H       0.1355   0.9966   0.9008     H
H       0.1483   0.1721   0.9368     H
C       0.1512   0.4424   0.4942     C
H       0.1574   0.1975   0.7559     H
C       0.1615   0.4358   0.1039     C
C       0.1624   0.2608   0.5017     C
H       0.1714   0.5947   0.3225     H
H       0.1744   0.5086   0.5071     H
H       0.1754   0.9601   0.7893     H
C       0.1767   0.4066   0.7646     C
H       0.1789   0.0974   0.6063     H
H         0.18   0.5035   0.0999     H
H       0.1823   0.4723   0.7882     H
H       0.1864   0.3223   0.8367     H
H       0.1875   0.0491   0.0296     H
N       0.1899   0.0449  0.26633     N
H       0.1911   0.3473   0.3115     H
C       0.1952    0.361   0.5213     C
C       0.1956   0.2545   0.0774     C
Cd     0.20379  0.72882 0.713369    Cd
C       0.2055   0.1435   0.3014     C
C       0.2172    0.096   0.0024     C
C       0.2181   0.3578   0.0697     C
N       0.2208   0.8869   0.2282     N
H       0.2209   0.4106   0.7279     H
C       0.2221   0.1849   0.5405     C
H       0.2224   0.2243   0.2283     H
H       0.2246   0.0597   0.4772     H
C       0.2307   0.3262      0.8     C
C       0.2358   0.2204   0.7658     C
C       0.2418    0.963   0.7658     C
H       0.2482   0.1342   0.8368     H
H       0.2518   0.1342   0.3368     H
C       0.2582    0.963   0.2658     C
C       0.2642   0.2204   0.2658     C
C       0.2693   0.3262      0.3     C
H       0.2754   0.0597   0.9772     H
H       0.2776   0.2243   0.7283     H
C       0.2779   0.1849   0.0405     C
H       0.2791   0.4106   0.2279     H
N       0.2792   0.8869   0.7282     N
C       0.2819   0.3578   0.5697     C
C       0.2828    0.096   0.5024     C
C       0.2945   0.1435   0.8014     C
Cd     0.29621  0.72882 0.213369    Cd
C       0.3044   0.2545   0.5774     C
C       0.3048    0.361   0.0213     C
H       0.3089   0.3473   0.8115     H
N       0.3101   0.0449  0.76633     N
H       0.3125   0.0491   0.5296     H
H       0.3136   0.3223   0.3367     H
H       0.3177   0.4723   0.2882     H
H         0.32   0.5035   0.5999     H
H       0.3211   0.0974   0.1063     H
C       0.3233   0.4066   0.2646     C
H       0.3246   0.9601   0.2893     H
H       0.3256   0.5086   0.0071     H
H       0.3286   0.5947   0.8225     H
C       0.3376   0.2608   0.0017     C
C       0.3385   0.4358   0.6039     C
H       0.3426   0.1975   0.2559     H
C       0.3488   0.4424   0.9942     C
H       0.3517   0.1721   0.4368     H
H       0.3645   0.9966   0.4008     H
C       0.3664   0.1427   0.0837     C
H       0.3698   0.1697    0.815     H
N       0.3698   0.6539  0.74338     N
C        0.378   0.9236   0.7029     C
C       0.3788   0.1233   0.4635     C
H       0.3854   0.2008   0.1122     H
H       0.3862   0.8733   0.8723     H
C       0.3864   0.6066   0.7949     C
O       0.3906   0.6188  0.13643     O
C       0.3907   0.2308   0.6173     C
C       0.3963   0.0207   0.7261     C
O       0.3976   0.6414  0.28057     O
H       0.4076   0.1631   0.6223     H
C       0.4162   0.2426   0.9555     C
C        0.423   0.4114    0.644     C
H       0.4247   0.8872   0.6744     H
C       0.4256   0.0271   0.4257     C
C       0.4277   0.4244   0.9477     C
O       0.4302   0.8045   0.3007     O
O       0.4357   0.7814  0.14587     O
H       0.4386   0.1764   0.9424     H
H       0.4404   0.9794   0.8621     H
H       0.4408   0.1549   0.4881     H
N       0.4462   0.3868   0.2486     N
C       0.4491   0.6921   0.1212     C
C       0.4516   0.7144   0.3075     C
C       0.4518   0.3095   0.6498     C
H       0.4532   0.9792   0.4521     H
H       0.4566    0.063   0.7164     H
C       0.4574   0.9101   0.8689     C
H       0.4579   0.4789   0.9293     H
H       0.4587   0.0219   0.0563     H
H       0.4614   0.4633   0.6674     H
C       0.4623    0.326   0.9283     C
H       0.4689   0.4541   0.1701     H
C       0.4725   0.6565   0.7188     C
C       0.4733   0.0914   0.0733     C
H       0.4818   0.8748   0.9558     H
H       0.4877   0.6849    0.683     H
H       0.4883    0.046   0.4006     H
H       0.4981   0.1214   0.1643     H
C       0.4981   0.5802   0.7996     C
C       0.5019   0.4198   0.2004     C
H       0.5019   0.8786   0.8357     H
H       0.5117    0.954   0.5994     H
H       0.5123   0.3151    0.317     H
H       0.5182   0.1252   0.0442     H
C       0.5267   0.9086   0.9267     C
C       0.5275   0.3435   0.2812     C
H       0.5311   0.5459   0.8299     H
C       0.5377    0.674   0.0717     C
H       0.5386   0.5367   0.3326     H
H       0.5413   0.9781   0.9437     H
H       0.5421   0.5211   0.0707     H
C       0.5426   0.0899   0.1311     C
H       0.5434    0.937   0.2836     H
H       0.5468   0.0208   0.5479     H
C       0.5482   0.6905   0.3502     C
C       0.5484   0.2856   0.6925     C
C       0.5509   0.3079   0.8788     C
N       0.5538   0.6132   0.7514     N
H       0.5592   0.8451   0.5119     H
H       0.5596   0.0206   0.1379     H
H       0.5614   0.8236   0.0576     H
O       0.5643   0.2186  0.85413     O
O       0.5698   0.1955   0.6993     O
C       0.5723   0.5756   0.0523     C
C       0.5744   0.9729   0.5743     C
H       0.5753   0.1128   0.3256     H
C        0.577   0.5886    0.356     C
C       0.5838   0.7574   0.0445     C
H       0.5924   0.8369   0.3777     H
O       0.6024   0.3586  0.71943     O
C       0.6037   0.9793   0.2739     C
C       0.6093   0.7692   0.3827     C
O       0.6094   0.3812  0.86357     O
C       0.6136   0.3934   0.2051     C
H       0.6138   0.1267   0.1277     H
H       0.6146   0.7992   0.8878     H
C       0.6212   0.8767   0.5365     C
C        0.622   0.0764   0.2971     C
N       0.6302   0.3461  0.25662     N
H       0.6302   0.8303    0.185     H
C       0.6336   0.8573   0.9163     C
H       0.6355   0.0034   0.5992     H
H       0.6483   0.8279   0.5632     H
C       0.6512   0.5576   0.0058     C
H       0.6574   0.8025   0.7441     H
C       0.6615   0.5642   0.3961     C
C       0.6624   0.7392   0.9983     C
H       0.6714   0.4053   0.1775     H
H       0.6744   0.4914   0.9929     H
H       0.6754   0.0399   0.7107     H
C       0.6767   0.5934   0.7354     C
H       0.6789   0.9026   0.8937     H
H         0.68   0.4965   0.4001     H
H       0.6823   0.5277   0.7118     H
H       0.6864   0.6777   0.6633     H
H       0.6875   0.9509   0.4704     H
N       0.6899   0.9551  0.23367     N
H       0.6911   0.6527   0.1885     H
C       0.6952    0.639   0.9787     C
C       0.6956   0.7455   0.4226     C
Cd     0.70379  0.27118 0.786631    Cd
C       0.7055   0.8565   0.1986     C
C       0.7172    0.904   0.4976     C
C       0.7181   0.6422   0.4303     C
N       0.7208   0.1131   0.2718     N
H       0.7209   0.5894   0.7721     H
C       0.7221   0.8151   0.9595     C
H       0.7224   0.7757   0.2717     H
H       0.7246   0.9403   0.0228     H
C       0.7307   0.6738      0.7     C
C       0.7358   0.7796   0.7342     C
C       0.7418    0.037   0.7342     C
H       0.7482   0.8658   0.6632     H
H       0.7518   0.8658   0.1632     H
C       0.7582    0.037   0.2342     C
C       0.7642   0.7796   0.2342     C
C       0.7693   0.6738      0.2     C
H       0.7754   0.9403   0.5228     H
H       0.7776   0.7757   0.7717     H
C       0.7779   0.8151   0.4595     C
H       0.7791   0.5894   0.2721     H
N       0.7792   0.1131   0.7718     N
C       0.7819   0.6422   0.9303     C
C       0.7828    0.904   0.9976     C
C       0.7945   0.8565   0.6986     C
Cd     0.79621  0.27118 0.286631    Cd
C       0.8044   0.7455   0.9226     C
C       0.8048    0.639   0.4787     C
H       0.8089   0.6527   0.6885     H
N       0.8101   0.9551  0.73367     N
H       0.8125   0.9509   0.9704     H
H       0.8136   0.6777   0.1633     H
H       0.8177   0.5277   0.2118     H
H         0.82   0.4965   0.9001     H
H       0.8211   0.9026   0.3937     H
C       0.8233   0.5934   0.2354     C
H       0.8246   0.0399   0.2107     H
H       0.8256   0.4914   0.4929     H
H       0.8286   0.4053   0.6775     H
C       0.8376   0.7392   0.4983     C
C       0.8385   0.5642   0.8961     C
H       0.8426   0.8025   0.2441     H
C       0.8488   0.5576   0.5058     C
H       0.8517   0.8279   0.0632     H
H       0.8645   0.0034   0.0992     H
C       0.8664   0.8573   0.4163     C
N       0.8698   0.3461  0.75662     N
H       0.8698   0.8303    0.685     H
C        0.878   0.0764   0.7971     C
C       0.8788   0.8767   0.0365     C
H       0.8854   0.7992   0.3878     H
H       0.8862   0.1267   0.6277     H
C       0.8864   0.3934   0.7051     C
O       0.8906   0.3812  0.36357     O
C       0.8907   0.7692   0.8827     C
C       0.8963   0.9793   0.7739     C
O       0.8976   0.3586  0.21943     O
H       0.9076   0.8369   0.8777     H
C       0.9162   0.7574   0.5445     C
C        0.923   0.5886    0.856     C
H       0.9247   0.1128   0.8256     H
C       0.9256   0.9729   0.0743     C
C       0.9277   0.5756   0.5523     C
O       0.9302   0.1955   0.1993     O
O       0.9357   0.2186  0.35413     O
H       0.9386   0.8236   0.5576     H
H       0.9404   0.0206   0.6379     H
H       0.9408   0.8451   0.0119     H
N       0.9462   0.6132   0.2514     N
C       0.9491   0.3079   0.3788     C
C       0.9516   0.2856   0.1925     C
C       0.9518   0.6905   0.8502     C
H       0.9532   0.0208   0.0479     H
H       0.9566    0.937   0.7836     H
C       0.9574   0.0899   0.6311     C
H       0.9579   0.5211   0.5707     H
H       0.9587   0.9781   0.4437     H
H       0.9614   0.5367   0.8326     H
C       0.9623    0.674   0.5717     C
H       0.9689   0.5459   0.3299     H
C       0.9725   0.3435   0.7812     C
C       0.9733   0.9086   0.4267     C
H       0.9818   0.1252   0.5442     H
H       0.9877   0.3151    0.817     H
H       0.9883    0.954   0.0994     H
C       0.9981   0.4198   0.7004     C
H       0.9981   0.8786   0.3357     H
