data_I
_chemical_name_common  '/home/zhangsd/repos/MofS-CGCNN/ML/data/WS24/clean_cifs/MUTMIX'
_cell_length_a 10.12310
_cell_length_b 13.83400
_cell_length_c 13.92840
_cell_angle_alpha 116.73000
_cell_angle_beta  94.68900
_cell_angle_gamma 108.75400
_space_group_name_H-M_alt      'P 1'


loop_
_space_group_symop_operation_xyz
  'x, y, z' 

loop_
_atom_site_label
_atom_site_fract_x
_atom_site_fract_y
_atom_site_fract_z
_atom_site_type_symbol
N       0.0002  0.25541  0.31365     N
H       0.0159   0.5385   0.3123     H
O      0.02005  0.91484  0.82541     O
C       0.0341   0.3271    0.014     C
C       0.0353   0.7422   0.1868     C
O      0.04396  0.41257  0.11705     O
H       0.0468   0.2416   0.8057     H
C        0.051   0.1755   0.2805     C
C       0.0617   0.6937   0.0841     C
H       0.0797   0.6522    0.503     H
C       0.0954   0.5427    0.355     C
N       0.1108     0.27  0.01643     N
H       0.1111   0.7984   0.3472     H
N       0.1149   0.7831  0.77567     N
C       0.1227   0.8823   0.8544     C
C       0.1311   0.7666   0.2782     C
C       0.1347   0.6108   0.4695     C
C        0.138   0.4031   0.1842     C
C       0.1717   0.1745   0.3442     C
C       0.1764   0.4808   0.3047     C
N       0.1791   0.3205  0.12999     N
H       0.1801   0.0239   0.2269     H
C        0.183   0.6681   0.0759     C
H       0.2023   0.6325   0.0072     H
H       0.2043   0.3242   0.4871     H
H       0.2118   0.1126   0.9902     H
C       0.2231   0.0865   0.2998     C
C       0.2316   0.9622   0.9615     C
C       0.2375   0.2646   0.4541     C
N       0.2479  0.62048  0.53493     N
N       0.2515   0.7467  0.27298     N
C       0.2654   0.0817   0.0163     C
C       0.2743   0.6967    0.172     C
H       0.2878    0.838   0.9722     H
C       0.2939   0.4893   0.3712     C
C       0.3106   0.9187   0.0057     C
C       0.3246   0.5595   0.4852     C
Ag     0.32857   0.7513 0.717587    Ag
C       0.3391   0.0933   0.3655     C
H       0.3505   0.4486   0.3398     H
C       0.3524   0.2642   0.5132     C
H       0.3565   0.6803   0.1665     H
H        0.373   0.0339   0.3352     H
C       0.3804   0.1549   0.1107     C
H       0.3958   0.3249   0.5869     H
H       0.4027   0.2356   0.1476     H
H       0.4031   0.5647   0.5298     H
N       0.4052   0.1814  0.47079     N
Ag     0.41893  0.81166 0.422038    Ag
C       0.4236   0.9988   0.1006     C
N       0.4615   0.1156  0.15194     N
H       0.4762     0.97   0.1305     H
H       0.5238     0.03   0.8695     H
N       0.5385   0.8844  0.84806     N
C       0.5764   0.0012   0.8994     C
Ag     0.58107  0.18834 0.577962    Ag
N       0.5948   0.8186  0.52921     N
H       0.5969   0.4353   0.4702     H
H       0.5973   0.7644   0.8524     H
H       0.6042   0.6751   0.4131     H
C       0.6196   0.8451   0.8893     C
H        0.627   0.9661   0.6648     H
H       0.6435   0.3197   0.8335     H
C       0.6476   0.7358   0.4868     C
H       0.6495   0.5514   0.6602     H
C       0.6609   0.9067   0.6345     C
Ag     0.67143   0.2487 0.282413    Ag
C       0.6754   0.4405   0.5148     C
C       0.6894   0.0813   0.9943     C
C       0.7061   0.5107   0.6288     C
H       0.7122    0.162   0.0278     H
C       0.7257   0.3033    0.828     C
C       0.7346   0.9183   0.9837     C
N       0.7485   0.2533  0.72702     N
N       0.7521  0.37952  0.46507     N
C       0.7625   0.7354   0.5459     C
C       0.7684   0.0378   0.0385     C
C       0.7769   0.9135   0.7002     C
H       0.7882   0.8874   0.0098     H
H       0.7957   0.6758   0.5129     H
H       0.7977   0.3675   0.9928     H
C        0.817   0.3319   0.9241     C
H       0.8199   0.9761   0.7731     H
N       0.8209   0.6795  0.87001     N
C       0.8236   0.5192   0.6953     C
C       0.8283   0.8255   0.6558     C
C        0.862   0.5969   0.8158     C
C       0.8653   0.3892   0.5305     C
C       0.8689   0.2334   0.7218     C
C       0.8773   0.1177   0.1456     C
N       0.8851   0.2169  0.22433     N
H       0.8889   0.2016   0.6528     H
N       0.8892     0.73  0.98357     N
C       0.9046   0.4573    0.645     C
H       0.9203   0.3478    0.497     H
C       0.9383   0.3063   0.9159     C
C        0.949   0.8245   0.7195     C
H       0.9532   0.7584   0.1943     H
O      0.95604  0.58743  0.88295     O
C       0.9647   0.2578   0.8132     C
C       0.9659   0.6729    0.986     C
O      0.97995  0.08516  0.17459     O
H       0.9841   0.4615   0.6877     H
N       0.9998  0.74459  0.68635     N
