data_I
_chemical_name_common  '/home/zhangsd/repos/MofS-CGCNN/ML/data/WS24/clean_cifs/NABNIO'
_cell_length_a 10.60770
_cell_length_b 18.39700
_cell_length_c 20.91590
_cell_angle_alpha 90.00000
_cell_angle_beta  90.00000
_cell_angle_gamma 105.04900
_space_group_name_H-M_alt      'P 1'


loop_
_space_group_symop_operation_xyz
  'x, y, z' 

loop_
_atom_site_label
_atom_site_fract_x
_atom_site_fract_y
_atom_site_fract_z
_atom_site_type_symbol
O      0.00019  0.89075  0.27669     O
C       0.0066  0.24984    0.119     C
C       0.0079  0.74177   0.0025     C
C       0.0095   0.6273  0.77594     C
H       0.0106   0.4783   0.6594     H
H       0.0184   0.3116   0.9997     H
C       0.0208  0.78431  0.94701     C
H       0.0226   0.7471   0.0985     H
H       0.0228   0.3624   0.0999     H
C       0.0247   0.5091  0.38181     C
H       0.0258   0.5353   0.8256     H
C       0.0336  0.77746  0.06118     C
O       0.0357  0.20826  0.78733     O
H       0.0366   0.4161    0.559     H
H       0.0377   0.7163    0.715     H
H       0.0413   0.5334   0.5988     H
C       0.0433  0.17806  0.73281     C
C       0.0485  0.57735  0.42642     C
H       0.0594   0.2217   0.1428     H
C       0.0627  0.86163  0.95412     C
C       0.0638  0.56926  0.79246     C
H        0.067   0.1479   0.6098     H
C       0.0707   0.6752  0.72774     C
N       0.0729  0.85212  0.06841     N
H       0.0738   0.8932   0.9175     H
H       0.0754   0.6577   0.3564     H
H       0.0775   0.7573   0.8582     H
C       0.0777  0.33329  0.12086     C
Cd    0.082608   0.9155 0.167149    Cd
C       0.0885   0.8931  0.01407     C
H        0.097   0.5677   0.4646     H
H       0.0992   0.6719   0.5218     H
C       0.1055  0.19989  0.61734     C
C       0.1079  0.22862  0.67888     C
C       0.1097    0.363  0.18921     C
H       0.1145   0.0012   0.7681     H
N       0.1155  0.05441  0.85032     N
H       0.1189   0.9463   0.0173     H
C       0.1247  0.64907  0.39465     C
O         0.13  0.14812  0.49059     O
C       0.1328   0.7183   0.5003     C
H       0.1455   0.7826   0.5788     H
H       0.1476   0.3275   0.2133     H
C       0.1488  0.48531  0.36957     C
H       0.1519   0.4299   0.4531     H
C       0.1536   0.7192  0.43474     C
H       0.1552   0.1016   0.9353     H
C       0.1571  0.21514  0.50129     C
O      0.15862  0.04728  0.20541     O
C       0.1592  0.24682  0.56667     C
H       0.1599   0.3415   0.0962     H
C       0.1608   0.7847    0.534     C
C       0.1626  0.01531  0.80648     C
C       0.1692  0.30434  0.69004     C
H        0.173   0.3238   0.7323     H
C       0.1734   0.5606  0.76086     C
H        0.176   0.4121   0.1874     H
C       0.1798  0.66308  0.69827     C
C       0.1863  0.07371  0.90353     C
O       0.1912  0.26747  0.45738     O
H       0.1931   0.5338   0.2819     H
C       0.1982   0.4449  0.41436     C
H        0.199     0.25   0.4188     H
O       0.2013  0.02137   0.1057     O
C       0.2028   0.7895   0.4067     C
C       0.2074  0.06688  0.15129     C
N       0.2083    0.852   0.5071     N
H       0.2086   0.6413   0.3795     H
H       0.2089   0.5203    0.773     H
C       0.2167  0.32273  0.57826     C
H       0.2187   0.7935    0.362     H
H         0.22   0.6966   0.6653     H
C       0.2221  0.50562  0.31426     C
C        0.225  0.35179  0.63983     C
C       0.2283   0.8533   0.4444     C
N       0.2319  0.60661  0.71376     N
H       0.2379   0.5993   0.9243     H
H       0.2492   0.1449   0.0435     H
H       0.2508   0.3551   0.5435     H
H       0.2621   0.9007   0.4243     H
N       0.2681  0.89339  0.21376     N
C       0.2717   0.6467   0.9444     C
C        0.275  0.14821  0.13983     C
C       0.2779  0.99438  0.81426     C
H         0.28   0.8034   0.1653     H
H       0.2813   0.7065    0.862     H
C       0.2833  0.17727  0.07826     C
H       0.2911   0.9797    0.273     H
H       0.2914   0.8587   0.8795     H
N       0.2917    0.648   0.0071     N
C       0.2926  0.43312  0.65129     C
C       0.2972   0.7105   0.9067     C
O       0.2987  0.47863   0.6057     O
H        0.301     0.25   0.9188     H
C       0.3018   0.0551  0.91436     C
H       0.3069   0.9662   0.7819     H
O       0.3088  0.23253  0.95738     O
C       0.3137  0.42629  0.40353     C
C       0.3202  0.83692  0.19827     C
H        0.324   0.0879   0.6874     H
C       0.3266   0.9394  0.26086     C
H        0.327   0.1762   0.2323     H
C       0.3308  0.19566  0.19004     C
C       0.3374  0.48469  0.30648     C
C       0.3392   0.7153    0.034     C
H       0.3401   0.1585   0.5962     H
C       0.3408  0.25318  0.06667     C
O      0.34138  0.45272  0.70541     O
C       0.3429  0.28486  0.00129     C
H       0.3448   0.3984   0.4353     H
C       0.3464   0.7808  0.93474     C
H       0.3481   0.0701   0.9531     H
C       0.3512  0.01469  0.86957     C
H       0.3524   0.1725   0.7133     H
H       0.3545   0.7174   0.0788     H
C       0.3672   0.7817   0.0003     C
O         0.37  0.35188  0.99059     O
C       0.3753  0.85093  0.89465     C
H       0.3811   0.5537   0.5173     H
N       0.3845  0.44559  0.35032     N
H       0.3855   0.4988   0.2681     H
C       0.3903    0.137  0.68921     C
C       0.3921  0.27138  0.17888     C
C       0.3945  0.30011  0.11734     C
H       0.4008   0.8281   0.0218     H
H        0.403   0.9323   0.9646     H
C       0.4115   0.6069  0.51407     C
Cd    0.417392   0.5845 0.667149    Cd
C       0.4223  0.16671  0.62086     C
H       0.4225   0.7427   0.3582     H
H       0.4246   0.8423   0.8564     H
H       0.4262   0.6068   0.4175     H
N       0.4271  0.64788  0.56841     N
C       0.4293   0.8248  0.22774     C
H        0.433   0.3521   0.1098     H
C       0.4362  0.93074  0.29246     C
C       0.4373  0.63837  0.45412     C
H       0.4406   0.2783   0.6428     H
C       0.4515  0.92265  0.92642     C
C       0.4567  0.32194  0.23281     C
H       0.4587   0.9666   0.0988     H
H       0.4623   0.7837    0.215     H
H       0.4634   0.0839    0.059     H
O       0.4643  0.29174  0.28733     O
C       0.4664  0.72254  0.56118     C
H       0.4742   0.9647   0.3256     H
C       0.4753   0.9909  0.88181     C
H       0.4772   0.1376   0.5999     H
H       0.4774   0.7529   0.5985     H
C       0.4792  0.71569  0.44701     C
H       0.4816   0.1884   0.4997     H
H       0.4894   0.0217   0.1594     H
C       0.4905   0.8727  0.27594     C
C       0.4921  0.75823   0.5025     C
C       0.4934  0.25016    0.619     C
O      0.49981  0.60925  0.77669     O
O      0.50019  0.39075  0.22331     O
C       0.5066  0.74984    0.381     C
C       0.5079  0.24177   0.4975     C
C       0.5095   0.1273  0.72406     C
H       0.5106   0.9783   0.8406     H
H       0.5184   0.8116   0.5003     H
C       0.5208  0.28431  0.55299     C
H       0.5226   0.2471   0.4015     H
H       0.5228   0.8624   0.4001     H
C       0.5247   0.0091  0.11819     C
H       0.5258   0.0353   0.6744     H
C       0.5336  0.27746  0.43882     C
O       0.5357  0.70826  0.71267     O
H       0.5366   0.9161    0.941     H
H       0.5377   0.2163    0.785     H
H       0.5413   0.0334   0.9012     H
C       0.5433  0.67806  0.76719     C
C       0.5485  0.07735  0.07358     C
H       0.5594   0.7217   0.3572     H
C       0.5627  0.36163  0.54588     C
C       0.5638  0.06926  0.70754     C
H        0.567   0.6479   0.8902     H
C       0.5707   0.1752  0.77226     C
N       0.5729  0.35212  0.43159     N
H       0.5738   0.3932   0.5825     H
H       0.5754   0.1577   0.1436     H
H       0.5775   0.2573   0.6418     H
C       0.5777  0.83329  0.37914     C
Cd    0.582608   0.4155 0.332851    Cd
C       0.5885   0.3931  0.48593     C
H        0.597   0.0677   0.0354     H
H       0.5992   0.1719   0.9782     H
C       0.6055  0.69989  0.88266     C
C       0.6079  0.72862  0.82112     C
C       0.6097    0.863  0.31079     C
H       0.6145   0.5012   0.7319     H
N       0.6155  0.55441  0.64968     N
H       0.6189   0.4463   0.4827     H
C       0.6247  0.14907  0.10535     C
O         0.63  0.64812  0.00941     O
C       0.6328   0.2183   0.9997     C
H       0.6455   0.2826   0.9212     H
H       0.6476   0.8275   0.2867     H
C       0.6488  0.98531  0.13043     C
H       0.6519   0.9299   0.0469     H
C       0.6536   0.2192  0.06526     C
H       0.6552   0.6016   0.5647     H
C       0.6571  0.71514  0.99871     C
O      0.65862  0.54728  0.29459     O
C       0.6592  0.74682  0.93333     C
H       0.6599   0.8415   0.4038     H
C       0.6608   0.2847    0.966     C
C       0.6626  0.51531  0.69352     C
C       0.6692  0.80434  0.80996     C
H        0.673   0.8238   0.7677     H
C       0.6734   0.0606  0.73914     C
H        0.676   0.9121   0.3126     H
C       0.6798  0.16308  0.80173     C
C       0.6863  0.57371  0.59647     C
O       0.6912  0.76747  0.04262     O
H       0.6931   0.0338   0.2181     H
C       0.6982   0.9449  0.08564     C
H        0.699     0.75   0.0812     H
O       0.7013  0.52137   0.3943     O
C       0.7028   0.2895   0.0933     C
C       0.7074  0.56688  0.34871     C
N       0.7083    0.352   0.9929     N
H       0.7086   0.1413   0.1205     H
H       0.7089   0.0203    0.727     H
C       0.7167  0.82273  0.92174     C
H       0.7187   0.2935    0.138     H
H         0.72   0.1966   0.8347     H
C       0.7221  0.00562  0.18574     C
C        0.725  0.85179  0.86017     C
C       0.7283   0.3533   0.0556     C
N       0.7319  0.10661  0.78624     N
H       0.7379   0.0993   0.5757     H
H       0.7492   0.6449   0.4565     H
H       0.7508   0.8551   0.9565     H
H       0.7621   0.4007   0.0757     H
N       0.7681  0.39339  0.28624     N
C       0.7717   0.1467   0.5556     C
C        0.775  0.64821  0.36017     C
C       0.7779  0.49438  0.68574     C
H         0.78   0.3034   0.3347     H
H       0.7813   0.2065    0.638     H
C       0.7833  0.67727  0.42174     C
H       0.7911   0.4797    0.227     H
H       0.7914   0.3587   0.6205     H
N       0.7917    0.148   0.4929     N
C       0.7926  0.93312  0.84871     C
C       0.7972   0.2105   0.5933     C
O       0.7987  0.97863   0.8943     O
H        0.801     0.75   0.5812     H
C       0.8018   0.5551  0.58564     C
H       0.8069   0.4662   0.7181     H
O       0.8088  0.73253  0.54262     O
C       0.8137  0.92629  0.09647     C
C       0.8202  0.33692  0.30173     C
H        0.824   0.5879   0.8126     H
C       0.8266   0.4394  0.23914     C
H        0.827   0.6762   0.2677     H
C       0.8308  0.69566  0.30996     C
C       0.8374  0.98469  0.19352     C
C       0.8392   0.2153    0.466     C
H       0.8401   0.6585   0.9038     H
C       0.8408  0.75318  0.43333     C
O      0.84138  0.95272  0.79459     O
C       0.8429  0.78486  0.49871     C
H       0.8448   0.8984   0.0647     H
C       0.8464   0.2808  0.56526     C
H       0.8481   0.5701   0.5469     H
C       0.8512  0.51469  0.63043     C
H       0.8524   0.6725   0.7867     H
H       0.8545   0.2174   0.4212     H
C       0.8672   0.2817   0.4997     C
O         0.87  0.85188  0.50941     O
C       0.8753  0.35093  0.60535     C
H       0.8811   0.0537   0.9827     H
N       0.8845  0.94559  0.14968     N
H       0.8855   0.9988   0.2319     H
C       0.8903    0.637  0.81079     C
C       0.8921  0.77138  0.32112     C
C       0.8945  0.80011  0.38266     C
H       0.9008   0.3281   0.4782     H
H        0.903   0.4323   0.5354     H
C       0.9115   0.1069  0.98593     C
Cd    0.917392   0.0845 0.832851    Cd
C       0.9223  0.66671  0.87914     C
H       0.9225   0.2427   0.1418     H
H       0.9246   0.3423   0.6436     H
H       0.9262   0.1068   0.0825     H
N       0.9271  0.14788  0.93159     N
C       0.9293   0.3248  0.27226     C
H        0.933   0.8521   0.3902     H
C       0.9362  0.43074  0.20754     C
C       0.9373  0.13837  0.04588     C
H       0.9406   0.7783   0.8572     H
C       0.9515  0.42265  0.57358     C
C       0.9567  0.82194  0.26719     C
H       0.9587   0.4666   0.4012     H
H       0.9623   0.2837    0.285     H
H       0.9634   0.5839    0.441     H
O       0.9643  0.79174  0.21267     O
C       0.9664  0.22254  0.93882     C
H       0.9742   0.4647   0.1744     H
C       0.9753   0.4909  0.61819     C
H       0.9772   0.6376   0.9001     H
H       0.9774   0.2529   0.9015     H
C       0.9792  0.21569  0.05299     C
H       0.9816   0.6884   0.0003     H
H       0.9894   0.5217   0.3406     H
C       0.9905   0.3727  0.22406     C
C       0.9921  0.25823   0.9975     C
C       0.9934  0.75016    0.881     C
O      0.99981  0.10925  0.72331     O
