data_I
_chemical_name_common  '/home/zhangsd/repos/MofS-CGCNN/ML/data/WS24/clean_cifs/NACYUM'
_cell_length_a  8.77340
_cell_length_b 15.50700
_cell_length_c 17.26400
_cell_angle_alpha 90.00000
_cell_angle_beta  90.00000
_cell_angle_gamma 93.94000
_space_group_name_H-M_alt      'P 1'


loop_
_space_group_symop_operation_xyz
  'x, y, z' 

loop_
_atom_site_label
_atom_site_fract_x
_atom_site_fract_y
_atom_site_fract_z
_atom_site_type_symbol
N       0.0028  0.27273  0.22802     N
N       0.0028  0.77273  0.27198     N
O       0.0129  0.42274  0.90311     O
O       0.0129  0.92274  0.59689     O
C       0.0274   0.1889   0.2191     C
C       0.0274   0.6889   0.2809     C
O       0.0421  0.08096  0.56552     O
O       0.0421  0.58096  0.93448     O
P      0.05624   0.4898  0.10682     P
P      0.05624   0.9898  0.39318     P
V      0.05877  0.16584    0.482     V
V      0.05877  0.66584    0.018     V
H       0.0635   0.4353   0.7185     H
H       0.0635   0.9353   0.7815     H
O       0.0818   0.4669  0.19068     O
O       0.0818   0.9669  0.30932     O
C       0.0867   0.3765   0.7232     C
C       0.0867   0.8765   0.7768     C
H       0.1288   0.1739   0.2096     H
H       0.1288   0.6739   0.2904     H
C       0.1415    0.207   0.7398     C
C       0.1415    0.707   0.7602     C
O        0.149  0.23947  0.39396     O
O        0.149  0.73947  0.10604     O
H       0.1609   0.1479   0.7464     H
H       0.1609   0.6479   0.7536     H
Co     0.19178  0.36555  0.23958    Co
Co     0.19178  0.86555  0.26042    Co
O       0.2242  0.23063  0.54514     O
O       0.2242  0.73063  0.95486     O
H       0.2346    0.479   0.0052     H
H       0.2346    0.979   0.4948     H
C       0.2363    0.355   0.7342     C
C       0.2363    0.855   0.7658     C
C       0.2414   0.0055   0.4426     C
C       0.2414   0.5055   0.0574     C
H       0.2591   0.0101   0.6953     H
H       0.2591   0.5101   0.8047     H
C        0.263   0.2684   0.7427     C
C        0.263   0.7684   0.7573     C
C       0.2652   0.2211   0.3544     C
C       0.2652   0.7211   0.1456     C
N       0.2837  0.09954  0.44939     N
N       0.2837  0.59954  0.05061     N
H       0.2907   0.0299   0.1759     H
H       0.2907   0.5299   0.3241     H
H        0.313   0.0949    0.333     H
H        0.313   0.5949    0.167     H
O       0.3175  0.26557  0.29931     O
O       0.3175  0.76557  0.20069     O
H       0.3205   0.4772   0.0872     H
H       0.3205   0.9772   0.4128     H
C       0.3366   0.1376   0.3747     C
C       0.3366   0.6376   0.1253     C
C        0.351      0.0   0.7219     C
C        0.351      0.5   0.7781     C
C       0.3581   0.2043   0.5531     C
C       0.3581   0.7043   0.9469     C
C       0.3639   0.4237    0.737     C
C       0.3639   0.9237    0.763     C
H        0.364   0.2515   0.7504     H
H        0.364   0.7515   0.7496     H
C       0.3829   0.0223   0.2031     C
C       0.3829   0.5223   0.2969     C
H       0.3853   0.0725   0.5511     H
H       0.3853   0.5725   0.9489     H
C       0.3918   0.1201   0.5128     C
C       0.3918   0.6201   0.9872     C
N       0.3929  0.44975  0.25577     N
N       0.3929  0.94975  0.24423     N
H        0.449   0.1488   0.3767     H
H        0.449   0.6488   0.1233     H
O       0.4603   0.2416  0.59281     O
O       0.4603   0.7416  0.90719     O
H       0.4633   0.1131   0.6922     H
H       0.4633   0.6131   0.8078     H
C       0.4738    0.061   0.7201     C
C       0.4738    0.561   0.7799     C
H       0.4864   0.1376   0.1684     H
H       0.4864   0.6376   0.3316     H
H       0.4971   0.1253    0.492     H
H       0.4971   0.6253    0.008     H
C       0.4993   0.0869    0.198     C
C       0.4993   0.5869    0.302     C
C       0.5007   0.4131    0.698     C
C       0.5007   0.9131    0.802     C
H       0.5029   0.3747    0.992     H
H       0.5029   0.8747    0.508     H
H       0.5136   0.3624   0.6684     H
H       0.5136   0.8624   0.8316     H
C       0.5262    0.439   0.2201     C
C       0.5262    0.939   0.2799     C
H       0.5367   0.3869   0.1922     H
H       0.5367   0.8869   0.3078     H
O       0.5397   0.2584  0.09281     O
O       0.5397   0.7584  0.40719     O
H        0.551   0.3512   0.8767     H
H        0.551   0.8512   0.6233     H
N       0.6071  0.05025  0.75577     N
N       0.6071  0.55025  0.74423     N
C       0.6082   0.3799   0.0128     C
C       0.6082   0.8799   0.4872     C
H       0.6147   0.4275   0.0511     H
H       0.6147   0.9275   0.4489     H
C       0.6171   0.4777   0.7031     C
C       0.6171   0.9777   0.7969     C
H        0.636   0.2485   0.2504     H
H        0.636   0.7485   0.2496     H
C       0.6361   0.0763    0.237     C
C       0.6361   0.5763    0.263     C
C       0.6419   0.2957   0.0531     C
C       0.6419   0.7957   0.4469     C
C        0.649      0.0   0.2781     C
C        0.649      0.5   0.2219     C
C       0.6634   0.3624   0.8747     C
C       0.6634   0.8624   0.6253     C
H       0.6795   0.0228   0.5872     H
H       0.6795   0.5228   0.9128     H
O       0.6825  0.23443  0.79931     O
O       0.6825  0.73443  0.70069     O
H        0.687   0.4051    0.833     H
H        0.687   0.9051    0.667     H
H       0.7093   0.4701   0.6759     H
H       0.7093   0.9701   0.8241     H
N       0.7163  0.40046  0.94939     N
N       0.7163  0.90046  0.55061     N
C       0.7348   0.2789   0.8544     C
C       0.7348   0.7789   0.6456     C
C        0.737   0.2316   0.2427     C
C        0.737   0.7316   0.2573     C
H       0.7409   0.4899   0.1953     H
H       0.7409   0.9899   0.3047     H
C       0.7586   0.4945   0.9426     C
C       0.7586   0.9945   0.5574     C
C       0.7637    0.145   0.2342     C
C       0.7637    0.645   0.2658     C
H       0.7654    0.021   0.5052     H
H       0.7654    0.521   0.9948     H
O       0.7758  0.26937  0.04514     O
O       0.7758  0.76937  0.45486     O
Co     0.80822  0.13445  0.73958    Co
Co     0.80822  0.63445  0.76042    Co
H       0.8391   0.3521   0.2464     H
H       0.8391   0.8521   0.2536     H
O        0.851  0.26053  0.89396     O
O        0.851  0.76053  0.60604     O
C       0.8585    0.293   0.2398     C
C       0.8585    0.793   0.2602     C
H       0.8712   0.3261   0.7096     H
H       0.8712   0.8261   0.7904     H
C       0.9133   0.1235   0.2232     C
C       0.9133   0.6235   0.2768     C
O       0.9182   0.0331  0.69068     O
O       0.9182   0.5331  0.80932     O
H       0.9365   0.0647   0.2185     H
H       0.9365   0.5647   0.2815     H
V      0.94123  0.33416    0.982     V
V      0.94123  0.83416    0.518     V
P      0.94376   0.0102  0.60682     P
P      0.94376   0.5102  0.89318     P
O       0.9579  0.41904  0.06552     O
O       0.9579  0.91904  0.43448     O
C       0.9726   0.3111   0.7191     C
C       0.9726   0.8111   0.7809     C
O       0.9871  0.07726  0.40311     O
O       0.9871  0.57726  0.09689     O
N       0.9972  0.22727  0.72802     N
N       0.9972  0.72727  0.77198     N
