data_I
_chemical_name_common  '/home/zhangsd/repos/MofS-CGCNN/ML/data/WS24/clean_cifs/NACZAT'
_cell_length_a  9.99600
_cell_length_b 10.78100
_cell_length_c 14.85400
_cell_angle_alpha 90.00000
_cell_angle_beta  90.00000
_cell_angle_gamma 110.90000
_space_group_name_H-M_alt      'P 1'


loop_
_space_group_symop_operation_xyz
  'x, y, z' 

loop_
_atom_site_label
_atom_site_fract_x
_atom_site_fract_y
_atom_site_fract_z
_atom_site_type_symbol
N       0.0117   0.3628  0.83169     N
N       0.0117   0.8628  0.66831     N
V      0.01194  0.24335  0.47305     V
V      0.01194  0.74335  0.02695     V
O       0.0163   0.3324  0.56031     O
O       0.0163   0.8324  0.93969     O
H       0.0345   0.4735   0.1327     H
H       0.0345   0.9735   0.3673     H
C       0.0517   0.0071  0.64989     C
C       0.0517   0.5071  0.85011     C
H       0.0858   0.2906   0.7237     H
H       0.0858   0.7906   0.7763     H
H       0.0929   0.0587   0.7048     H
H       0.0929   0.5587   0.7952     H
H       0.1186   0.1906   0.2221     H
H       0.1186   0.6906   0.2779     H
C       0.1263   0.3362  0.78072     C
C       0.1263   0.8362  0.71928     C
C       0.1297   0.1968  0.28838     C
C       0.1297   0.6968  0.21162     C
O       0.1376  0.20368  0.90771     O
O       0.1376  0.70368  0.59229     O
O      0.14489  0.42866      0.0     O
O      0.14489  0.92866      0.5     O
O      0.16034  0.16717  0.50424     O
O      0.16034  0.66717  0.99576     O
O      0.16166   0.3733  0.39301     O
O      0.16166   0.8733  0.10699     O
P       0.1833  0.05541  0.55826     P
P       0.1833  0.55541  0.94174     P
H       0.1921   0.1476   0.3065     H
H       0.1921   0.6476   0.1935     H
C        0.193   0.2518  0.83247     C
C        0.193   0.7518  0.66753     C
C       0.1984   0.3423  0.31629     C
C       0.1984   0.8423  0.18371     C
H        0.202   0.4219   0.7652     H
H        0.202   0.9219   0.7348     H
H        0.235    0.128    0.988     H
H        0.235    0.628    0.512     H
H        0.246    0.043    0.055     H
H        0.246    0.543    0.445     H
O       0.2878  0.42244  0.26646     O
O       0.2878  0.92244  0.23354     O
O        0.289   0.1146  0.02755     O
O        0.289   0.6146  0.47245     O
O       0.2982   0.2329  0.79987     O
O       0.2982   0.7329  0.70013     O
H        0.299    0.404   0.0657     H
H        0.299    0.904   0.4343     H
O       0.3322  0.09566  0.59633     O
O       0.3322  0.59566  0.90367     O
H        0.342    0.346    0.513     H
H        0.342    0.846    0.987     H
H        0.352    0.404   0.1498     H
H        0.352    0.904   0.3502     H
O       0.3676  0.39437  0.09489     O
O       0.3676  0.89437  0.40511     O
H        0.397    0.114    0.206     H
H        0.397    0.614    0.294     H
O       0.4193    0.376  0.53978     O
O       0.4193    0.876  0.96022     O
H        0.441    0.291    0.894     H
H        0.441    0.791    0.606     H
H        0.447   0.4581    0.547     H
H        0.447   0.9581    0.953     H
O       0.4491  0.19426  0.19981     O
O       0.4491  0.69426  0.30019     O
H        0.472    0.296    0.724     H
H        0.472    0.796    0.776     H
Co     0.47674  0.26092  0.06509    Co
Co     0.47674  0.76092  0.43491    Co
H        0.477   0.0882    0.424     H
H        0.477   0.5882    0.076     H
O       0.4949   0.1705  0.43193     O
O       0.4949   0.6705  0.06807     O
O       0.5051   0.3295  0.93193     O
O       0.5051   0.8295  0.56807     O
H        0.523   0.4118    0.924     H
H        0.523   0.9118    0.576     H
Co     0.52326  0.23908  0.56509    Co
Co     0.52326  0.73908  0.93491    Co
H        0.528    0.204    0.224     H
H        0.528    0.704    0.276     H
O       0.5509  0.30574  0.69981     O
O       0.5509  0.80574  0.80019     O
H        0.553   0.0419    0.047     H
H        0.553   0.5419    0.453     H
H        0.559    0.209    0.394     H
H        0.559    0.709    0.106     H
O       0.5807    0.124  0.03978     O
O       0.5807    0.624  0.46022     O
H        0.603    0.386    0.706     H
H        0.603    0.886    0.794     H
O       0.6324  0.10563  0.59489     O
O       0.6324  0.60563  0.90511     O
H        0.648    0.096   0.6498     H
H        0.648    0.596   0.8502     H
H        0.658    0.154    0.013     H
H        0.658    0.654    0.487     H
O       0.6678  0.40434  0.09633     O
O       0.6678  0.90434  0.40367     O
H        0.701    0.096   0.5657     H
H        0.701    0.596   0.9343     H
O       0.7018   0.2671  0.29987     O
O       0.7018   0.7671  0.20013     O
O        0.711   0.3854  0.52755     O
O        0.711   0.8854  0.97245     O
O       0.7122  0.07756  0.76646     O
O       0.7122  0.57756  0.73354     O
H        0.754    0.457    0.555     H
H        0.754    0.957    0.945     H
H        0.765    0.372    0.488     H
H        0.765    0.872    0.012     H
H        0.798   0.0781   0.2652     H
H        0.798   0.5781   0.2348     H
C       0.8016   0.1577  0.81629     C
C       0.8016   0.6577  0.68371     C
C        0.807   0.2482  0.33247     C
C        0.807   0.7482  0.16753     C
H       0.8079   0.3524   0.8065     H
H       0.8079   0.8524   0.6935     H
P       0.8167  0.44459  0.05826     P
P       0.8167  0.94459  0.44174     P
O      0.83834   0.1267  0.89301     O
O      0.83834   0.6267  0.60699     O
O      0.83966  0.33283  0.00424     O
O      0.83966  0.83283  0.49576     O
O      0.85511  0.07134      0.5     O
O      0.85511  0.57134      0.0     O
O       0.8624  0.29632  0.40771     O
O       0.8624  0.79632  0.09229     O
C       0.8703   0.3032  0.78838     C
C       0.8703   0.8032  0.71162     C
C       0.8737   0.1638  0.28072     C
C       0.8737   0.6638  0.21928     C
H       0.8814   0.3094   0.7221     H
H       0.8814   0.8094   0.7779     H
H       0.9071   0.4413   0.2048     H
H       0.9071   0.9413   0.2952     H
H       0.9142   0.2094   0.2237     H
H       0.9142   0.7094   0.2763     H
C       0.9483   0.4929  0.14989     C
C       0.9483   0.9929  0.35011     C
H       0.9655   0.0265   0.6327     H
H       0.9655   0.5265   0.8673     H
O       0.9837   0.1676  0.06031     O
O       0.9837   0.6676  0.43969     O
V      0.98806  0.25665  0.97305     V
V      0.98806  0.75665  0.52695     V
N       0.9883   0.1372  0.33169     N
N       0.9883   0.6372  0.16831     N
