data_I
_chemical_name_common  '/home/zhangsd/repos/MofS-CGCNN/ML/data/WS24/clean_cifs/NAPFOA'
_cell_length_a 19.52110
_cell_length_b 19.52110
_cell_length_c 19.52110
_cell_angle_alpha 109.47100
_cell_angle_beta  109.47100
_cell_angle_gamma 109.47100
_space_group_name_H-M_alt      'P 1'


loop_
_space_group_symop_operation_xyz
  'x, y, z' 

loop_
_atom_site_label
_atom_site_fract_x
_atom_site_fract_y
_atom_site_fract_z
_atom_site_type_symbol
O          0.0      0.0      0.5     O
O          0.0   0.3606   0.0526     O
O          0.0      0.5      0.0     O
Zn         0.0      0.5   0.0977    Zn
N          0.0      0.5      0.7     N
Zn         0.0      0.5   0.9023    Zn
C       0.0061   0.4262   0.6759     C
H       0.0102    0.738   0.8904     H
C       0.0137   0.2774   0.6251     C
C       0.0171   0.1987   0.5976     C
O       0.0174   0.8514   0.3818     O
Zn     0.02486  0.96085  0.40937    Zn
O       0.0304   0.3644   0.8818     O
O       0.0314   0.6132    0.918     O
H       0.0366   0.6371   0.6871     H
Zn     0.03915  0.09063  0.47514    Zn
C       0.0432   0.7136   0.3494     C
C       0.0471   0.6418   0.3255     C
H         0.05   0.8629   0.8995     H
Zn     0.05148  0.61549  0.09063    Zn
H       0.0521   0.4134   0.2233     H
O       0.0526   0.0526    0.692     O
O       0.0526    0.192   0.5526     O
O       0.0529   0.8679   0.4408     O
O       0.0592   0.9471   0.6321     O
C       0.0639   0.7816   0.9327     C
Zn     0.06401  0.44852  0.03915    Zn
C       0.0644   0.4193   0.6519     C
C       0.0673   0.3489   0.6312     C
O       0.0729   0.3879   0.9408     O
C       0.0738   0.5799   0.7497     C
H       0.0796   0.7583   0.3487     H
C       0.0799   0.5061   0.3302     C
C       0.0805   0.6816   0.9829     C
C       0.0807   0.6451   0.7326     C
O       0.0818   0.4686   0.8866     O
O        0.082   0.1952   0.6134     O
H       0.0866   0.6387   0.3099     H
C       0.0875   0.8549   0.9356     C
H       0.0904   0.2691   0.8487     H
Zn     0.09063  0.97514  0.53915    Zn
C       0.0947   0.4529   0.2784     C
C       0.0976   0.0171   0.6987     C
Zn      0.0977   0.0977   0.5977    Zn
H       0.1005   0.4634   0.6505     H
C       0.1011   0.4195   0.9024     C
H       0.1096   0.3476   0.6198     H
C       0.1114   0.7637   0.9863     C
O       0.1121    0.685   0.0529     O
O       0.1132   0.5818   0.1952     O
O       0.1134    0.082   0.6952     O
Zn     0.11549  0.56401  0.02486    Zn
O       0.1182   0.9826   0.6486     O
H       0.1198   0.1096   0.8476     H
C       0.1251   0.0137   0.7774     C
C       0.1312   0.0673   0.8489     C
O       0.1321   0.0592   0.4471     O
O       0.1356    0.666   0.0174     O
C       0.1358   0.3062   0.8494     C
H       0.1371   0.6005     0.45     H
H       0.1387   0.5521   0.8288     H
O       0.1394      0.5   0.9474     O
O       0.1394   0.6394    0.192     O
C       0.1418   0.5947   0.8163     C
C       0.1451   0.5644   0.4125     C
O       0.1486   0.1182   0.4826     O
H       0.1505   0.1005   0.9634     H
C       0.1506   0.9568   0.7864     C
C       0.1511   0.7184   0.7823     C
H       0.1513   0.9204   0.7417     H
C       0.1519   0.0644   0.9193     C
C       0.1523   0.3886   0.8749     C
H       0.1524    0.762   0.7722     H
O        0.166   0.5304   0.1486     O
C       0.1698   0.9201   0.9939     C
C       0.1704   0.4568   0.3062     C
H       0.1712   0.2233   0.8099     H
C       0.1745   0.9529   0.8582     C
C       0.1759   0.0061   0.9262     C
H       0.1787   0.4204   0.2691     H
C       0.1816   0.6011   0.1987     C
C       0.1837   0.2784   0.8255     C
O        0.185   0.5729   0.1321     O
H       0.1871   0.0366   0.1371     H
H       0.1901   0.9134   0.8613     H
O        0.192   0.0526   0.5526     O
C       0.1938   0.8296   0.0432     C
O       0.1952   0.1134    0.582     O
C       0.1987   0.0976   0.5171     C
N          0.2      1.0      0.0     N
C       0.2136   0.6704   0.8642     C
C       0.2177   0.4361   0.8688     C
C       0.2184   0.5673   0.4361     C
C       0.2216   0.9053   0.0471     C
C       0.2226   0.7363   0.8477     C
H       0.2233   0.3099   0.6712     H
H       0.2278   0.4898   0.8802     H
H       0.2309   0.8213   0.0796     H
C       0.2326   0.0807   0.1451     C
C       0.2363   0.5137   0.3886     C
H        0.238   0.7278   0.3476     H
H       0.2417   0.1513   0.4204     H
C       0.2497   0.0738   0.0799     C
C       0.2503   0.3302   0.8241     C
H       0.2583   0.6787   0.9096     H
H        0.262   0.6096   0.4898     H
C       0.2637   0.6523   0.2774     C
C       0.2674   0.4125   0.8481     C
H       0.2691   0.3487   0.5904     H
H       0.2722   0.1524    0.262     H
H       0.2767   0.9479   0.0866     H
C       0.2774   0.1251   0.5137     C
C       0.2784   0.3255   0.6837     C
C       0.2816   0.7177   0.3489     C
C       0.2823   0.1511   0.2184     C
C       0.2864   0.1506   0.4568     C
N          0.3      0.3      0.8     N
C       0.3013   0.8184   0.8989     C
O       0.3048   0.8868   0.9182     O
C       0.3062   0.3494   0.6358     C
O        0.308   0.8606   0.8606     O
H       0.3099   0.1712   0.7233     H
H       0.3129     0.45   0.8495     H
O        0.315   0.4471   0.3879     O
C       0.3163   0.1418   0.0947     C
C       0.3184   0.5171   0.4195     C
H       0.3213   0.5904   0.2417     H
C       0.3241   0.2503   0.8302     C
C       0.3255   0.1837   0.7784     C
H       0.3288   0.1387   0.0521     H
C       0.3296   0.6358   0.2864     C
C       0.3302   0.3241   0.7503     C
O        0.334   0.4826   0.3644     O
H       0.3476   0.1198   0.6096     H
C       0.3477   0.2226   0.2363     C
C       0.3481   0.2674   0.9125     C
H       0.3487   0.0904   0.7691     H
C       0.3489   0.1312   0.5673     C
C       0.3494   0.1358   0.8062     C
H       0.3495   0.3129     0.95     H
O       0.3514    0.834   0.9696     O
C       0.3549   0.7674   0.4193     C
C       0.3582   0.1745   0.4529     C
O       0.3606    0.308   0.3606     O
O       0.3606   0.5526      0.5     O
H       0.3613   0.1901   0.4134     H
H       0.3629   0.8129   0.4634     H
C       0.3642   0.2136   0.1704     C
O       0.3644   0.3818   0.5304     O
O       0.3679    0.815   0.9271     O
C       0.3688   0.2177   0.9361     C
C       0.3749   0.1523   0.8886     C
H       0.3802   0.2278   0.9898     H
O       0.3818   0.0304   0.8644     O
Zn     0.38451  0.40937  0.44852    Zn
O       0.3866   0.0818   0.9686     O
O       0.3868    0.582   0.4686     O
O       0.3879   0.4408   0.5729     O
C       0.3886   0.3749   0.6523     C
H       0.3904   0.0102    0.238     H
C       0.3989   0.3013   0.3184     C
H       0.3995     0.05   0.3629     H
Zn      0.4023     -0.0      0.0    Zn
C       0.4024   0.1011   0.9195     C
C       0.4053   0.6837   0.3582     C
Zn     0.40937  0.94852  0.88451    Zn
H       0.4096   0.2583   0.1787     H
C       0.4125   0.3481   0.7674     C
H       0.4134   0.7233   0.5521     H
O        0.418   0.0314   0.1132     O
O       0.4182   0.3048   0.3868     O
C       0.4193   0.1519   0.5644     C
C       0.4195   0.4024   0.6011     C
C       0.4201   0.7503   0.4262     C
H       0.4204   0.7691   0.6787     H
C       0.4262   0.1759   0.5061     C
O       0.4271   0.3679    0.315     O
C       0.4327   0.0639   0.2816     C
C       0.4356   0.0875   0.3549     C
Zn     0.43599  0.47514  0.38451    Zn
C       0.4361   0.3688   0.7177     C
O       0.4408   0.0729   0.8879     O
O       0.4471   0.8879    0.815     O
O       0.4474     -0.0   0.1394     O
O       0.4474   0.1394      0.0     O
H       0.4479   0.6712   0.3613     H
Zn     0.44852  0.53915  0.56401    Zn
H         0.45   0.3495   0.8129     H
C       0.4529   0.7784   0.5947     C
C       0.4568   0.8062   0.6704     C
Zn     0.46085  0.93599  0.05148    Zn
H       0.4634   0.1505   0.6005     H
O       0.4686   0.3866   0.5818     O
O       0.4696   0.3514    0.334     O
Zn     0.47514  0.88451  0.93599    Zn
O       0.4826   0.8644    0.834     O
C       0.4829   0.0805   0.1816     C
C       0.4863   0.1114   0.2637     C
H       0.4898   0.3802   0.7278     H
C       0.4939   0.1698   0.4201     C
O          0.5     -0.0      0.0     O
N          0.5      0.2      0.5     N
Zn         0.5   0.4023      0.5    Zn
O          0.5   0.4474   0.6394     O
O          0.5      0.5      0.5     O
O          0.5   0.5526   0.3606     O
Zn         0.5   0.5977      0.5    Zn
N          0.5      0.8      0.5     N
C       0.5061   0.8302   0.5799     C
H       0.5102   0.6198   0.2722     H
C       0.5137   0.8886   0.7363     C
C       0.5171   0.9195   0.8184     C
O       0.5174   0.1356    0.166     O
Zn     0.52486  0.11549  0.06401    Zn
O       0.5304   0.6486    0.666     O
O       0.5314   0.6134   0.4182     O
H       0.5366   0.8495   0.3995     H
Zn     0.53915  0.06401  0.94852    Zn
C       0.5432   0.1938   0.3296     C
C       0.5471   0.2216   0.4053     C
H         0.55   0.6505   0.1871     H
Zn     0.55148  0.46085  0.43599    Zn
H       0.5521   0.3288   0.6387     H
O       0.5526   0.8606      0.0     O
O       0.5526      1.0   0.8606     O
O       0.5529   0.1121    0.185     O
O       0.5592   0.9271   0.1121     O
C       0.5639   0.6312   0.2823     C
Zn     0.56401  0.52486  0.61549    Zn
C       0.5644   0.9125   0.6451     C
C       0.5673   0.9361   0.7184     C
O       0.5729   0.6321    0.685     O
C       0.5738   0.8241   0.4939     C
H       0.5796   0.2309   0.3213     H
C       0.5799   0.2497   0.5738     C
C       0.5805   0.5976   0.3989     C
C       0.5807   0.8481   0.4356     C
O       0.5818   0.6952   0.6132     O
O        0.582   0.9686   0.8868     O
H       0.5866   0.2767   0.4479     H
C       0.5875   0.6519   0.2326     C
H       0.5904   0.7417   0.8213     H
Zn     0.59063  0.05148  0.11549    Zn
C       0.5947   0.3163   0.6418     C
C       0.5976   0.8989   0.0805     C
Zn      0.5977     -0.0     -0.0    Zn
H       0.6005     0.95   0.6371     H
C       0.6011   0.6987   0.6816     C
H       0.6096   0.9898    0.762     H
C       0.6114   0.6251   0.3477     C
O       0.6121   0.5592   0.4271     O
O       0.6132    0.418   0.5314     O
O       0.6134   0.9182   0.0314     O
Zn     0.61549  0.59063  0.55148    Zn
O       0.6182   0.9696   0.1356     O
H       0.6198   0.7722   0.0102     H
C       0.6251   0.8477   0.1114     C
C       0.6312   0.7823   0.0639     C
O       0.6321    0.185   0.0729     O
O       0.6356   0.6182   0.4696     O
C       0.6358   0.7864   0.8296     C
H       0.6371   0.1871   0.5366     H
H       0.6387   0.8099   0.5866     H
O       0.6394   0.4474      0.5     O
O       0.6394    0.692   0.6394     O
C       0.6418   0.8255   0.5471     C
C       0.6451   0.2326   0.5807     C
O       0.6486    0.166   0.0304     O
H       0.6505   0.6871     0.05     H
C       0.6506   0.8642   0.1938     C
C       0.6511   0.8688   0.4327     C
H       0.6513   0.9096   0.2309     H
C       0.6519   0.7326   0.0875     C
C       0.6523   0.7774   0.7637     C
H       0.6524   0.8802   0.3904     H
O        0.666   0.5174   0.6356     O
C       0.6698   0.6759   0.2497     C
C       0.6704   0.3642   0.7136     C
H       0.6712   0.8613   0.9479     H
C       0.6745   0.8163   0.2216     C
C       0.6759   0.7497   0.1698     C
H       0.6787   0.4096   0.7583     H
C       0.6816   0.4829   0.5805     C
C       0.6837   0.8582   0.9053     C
O        0.685   0.5529   0.6121     O
H       0.6871     0.55   0.1505     H
H       0.6901   0.8288   0.2767     H
O        0.692   0.1394   0.1394     O
C       0.6938   0.6506   0.3642     C
O       0.6952   0.1132   0.0818     O
C       0.6987   0.1816   0.1011     C
N          0.7      0.7      0.2     N
C       0.7136   0.8494   0.5432     C
C       0.7177   0.8489   0.7816     C
C       0.7184   0.2823   0.6511     C
C       0.7216   0.6745   0.3163     C
C       0.7226   0.8749   0.4863     C
H       0.7233   0.0521   0.9134     H
H       0.7278   0.8476    0.738     H
H       0.7309   0.6513   0.4096     H
C       0.7326   0.5875   0.1519     C
C       0.7363   0.3477   0.7226     C
H        0.738   0.3904   0.5102     H
H       0.7417   0.3213   0.0904     H
C       0.7497   0.6698   0.1759     C
C       0.7503   0.9262   0.9201     C
H       0.7583   0.8487   0.5796     H
H        0.762   0.2722   0.6524     H
C       0.7637   0.4863   0.6114     C
C       0.7674   0.9193   0.8549     C
H       0.7691   0.1787   0.9204     H
H       0.7722   0.5102   0.1198     H
H       0.7767   0.6901   0.3288     H
C       0.7774   0.2637   0.1523     C
C       0.7784   0.0947   0.9529     C
C       0.7816   0.4327   0.5639     C
C       0.7823   0.5639   0.1312     C
C       0.7864   0.3296   0.1358     C
N          0.8      0.0      0.0     N
C       0.8013   0.9024   0.4829     C
O       0.8048   0.8866    0.418     O
C       0.8062   0.1704   0.9568     C
O        0.808   0.9474   0.4474     O
H       0.8099   0.0866   0.1387     H
H       0.8129   0.9634   0.8629     H
O        0.815   0.4271   0.8679     O
C       0.8163   0.7216   0.1745     C
C       0.8184   0.3989   0.8013     C
H       0.8213   0.5796   0.7309     H
C       0.8241   0.9939   0.0738     C
C       0.8255   0.0471   0.1418     C
H       0.8288   0.7767   0.1901     H
C       0.8296   0.5432   0.6938     C
C       0.8302   0.0799   0.0061     C
O        0.834   0.4696   0.8514     O
H       0.8476    0.238   0.2278     H
C       0.8477   0.6114   0.1251     C
C       0.8481   0.9356   0.0807     C
H       0.8487   0.0796   0.2583     H
C       0.8489   0.2816   0.2177     C
C       0.8494   0.0432   0.2136     C
H       0.8495   0.8995   0.0366     H
O       0.8514   0.8818   0.5174     O
C       0.8549   0.4356   0.5875     C
C       0.8582   0.4053   0.1837     C
O       0.8606   0.3606    0.808     O
O       0.8606      0.5   0.0526     O
H       0.8613   0.4479   0.1712     H
H       0.8629   0.3995     0.55     H
C       0.8642   0.6938   0.1506     C
O       0.8644    0.334   0.9826     O
O       0.8679   0.9408   0.5529     O
C       0.8688   0.9327   0.1511     C
C       0.8749   0.9863   0.2226     C
H       0.8802   0.8904   0.1524     H
O       0.8818   0.0174   0.3514     O
Zn     0.88451  0.43599  0.97514    Zn
O       0.8866    0.918   0.3048     O
O       0.8868   0.4182   0.8048     O
O       0.8879    0.315   0.9471     O
C       0.8886   0.2363   0.0137     C
H       0.8904   0.6524   0.3802     H
C       0.8989   0.5805   0.0976     C
H       0.8995   0.5366   0.3495     H
Zn      0.9023   0.9023   0.4023    Zn
C       0.9024   0.9829   0.3013     C
C       0.9053   0.5471   0.7216     C
Zn     0.90937  0.02486  0.46085    Zn
H       0.9096   0.7309   0.1513     H
C       0.9125   0.1451   0.0644     C
H       0.9134   0.3613   0.6901     H
O        0.918   0.8048   0.3866     O
O       0.9182   0.5314   0.1134     O
C       0.9193   0.3549   0.2674     C
C       0.9195   0.3184   0.0171     C
C       0.9201   0.4939   0.6698     C
H       0.9204   0.2417   0.6513     H
C       0.9262   0.4201   0.2503     C
O       0.9271   0.6121   0.0592     O
C       0.9327   0.6511   0.3688     C
C       0.9356   0.5807   0.3481     C
Zn     0.93599  0.55148  0.96085    Zn
C       0.9361   0.2184   0.0673     C
O       0.9408   0.0529   0.3679     O
O       0.9471   0.1321   0.5592     O
O       0.9474    0.808   0.4474     O
O       0.9474   0.9474    0.308     O
H       0.9479   0.5866   0.7767     H
Zn     0.94852  0.38451  0.90937    Zn
H         0.95   0.1371   0.1005     H
C       0.9529   0.3582   0.6745     C
C       0.9568   0.2864   0.6506     C
Zn     0.96085  0.90937  0.52486    Zn
H       0.9634   0.3629   0.3129     H
O       0.9686   0.3868    0.082     O
O       0.9696   0.6356   0.1182     O
Zn     0.97514  0.03915  0.59063    Zn
O       0.9826   0.1486   0.6182     O
C       0.9829   0.8013   0.4024     C
C       0.9863   0.7226   0.3749     C
H       0.9898    0.262   0.1096     H
C       0.9939   0.5738   0.3241     C
N          1.0      0.5      0.3     N
O          1.0   0.6394   0.9474     O
