data_I
_chemical_name_common  '/home/zhangsd/repos/MofS-CGCNN/ML/data/WS24/clean_cifs/NEYYOG'
_cell_length_a 15.48800
_cell_length_b 25.24500
_cell_length_c 25.24500
_cell_angle_alpha 120.00000
_cell_angle_beta  90.00000
_cell_angle_gamma 90.00000
_space_group_name_H-M_alt      'P 1'


loop_
_space_group_symop_operation_xyz
  'x, y, z' 

loop_
_atom_site_label
_atom_site_fract_x
_atom_site_fract_y
_atom_site_fract_z
_atom_site_type_symbol
N          0.0   0.0223   0.6782     N
C          0.0   0.0317   0.7382     C
I          0.0  0.06053  0.48896     I
Cu         0.0  0.06917  0.38646    Cu
C          0.0    0.103    0.788     C
N          0.0   0.1396   0.7559     N
Cu         0.0    0.183  0.41641    Cu
C          0.0    0.212    0.315     C
Cu         0.0  0.23341    0.817    Cu
N          0.0   0.2441   0.3837     N
I          0.0  0.25732  0.54132     I
C          0.0   0.2618   0.2935     C
I          0.0    0.284  0.74268     I
C          0.0   0.2935   0.0317     C
C          0.0    0.315    0.103     C
Cu         0.0  0.31729  0.93083    Cu
N          0.0   0.3218   0.3441     N
N          0.0   0.3441   0.0223     N
N          0.0   0.3837   0.1396     N
Cu         0.0  0.38646  0.31729    Cu
Cu         0.0  0.41641  0.23341    Cu
I          0.0  0.42843  0.93947     I
I          0.0  0.45868    0.716     I
I          0.0  0.48896  0.42843     I
I          0.0  0.51104  0.57157     I
I          0.0  0.54132    0.284     I
I          0.0  0.57157  0.06053     I
Cu         0.0  0.58359  0.76659    Cu
Cu         0.0  0.61354  0.68271    Cu
N          0.0   0.6163   0.8604     N
N          0.0   0.6559   0.9777     N
N          0.0   0.6782   0.6559     N
Cu         0.0  0.68271  0.06917    Cu
C          0.0    0.685    0.897     C
C          0.0   0.7065   0.9683     C
I          0.0    0.716  0.25732     I
C          0.0   0.7382   0.7065     C
I          0.0  0.74268  0.45868     I
N          0.0   0.7559   0.6163     N
Cu         0.0  0.76659    0.183    Cu
C          0.0    0.788    0.685     C
Cu         0.0    0.817  0.58359    Cu
N          0.0   0.8604   0.2441     N
C          0.0    0.897    0.212     C
Cu         0.0  0.93083  0.61354    Cu
I          0.0  0.93947  0.51104     I
C          0.0   0.9683   0.2618     C
N          0.0   0.9777   0.3218     N
H       0.0507   0.0125    0.744     H
H       0.0507   0.1128   0.8137     H
H       0.0507   0.1863   0.2991     H
H       0.0507    0.256   0.2685     H
H       0.0507   0.2685   0.0125     H
H       0.0507   0.2991   0.1128     H
H       0.0507   0.7009   0.8872     H
H       0.0507   0.7315   0.9875     H
H       0.0507    0.744   0.7315     H
H       0.0507   0.8137   0.7009     H
H       0.0507   0.8872   0.1863     H
H       0.0507   0.9875    0.256     H
H        0.075   0.0467    0.629     H
H        0.075    0.371   0.4177     H
H        0.075   0.4177   0.0467     H
H        0.075   0.5823   0.9533     H
H        0.075    0.629   0.5823     H
H        0.075   0.9533    0.371     H
C       0.0753    0.053   0.6702     C
C       0.0753   0.3298   0.3828     C
C       0.0753   0.3828    0.053     C
C       0.0753   0.6172    0.947     C
C       0.0753   0.6702   0.6172     C
C       0.0753    0.947   0.3298     C
C       0.0754   0.1217   0.7163     C
C       0.0754   0.2837   0.4054     C
C       0.0754   0.4054   0.1217     C
C       0.0754   0.5946   0.8783     C
C       0.0754   0.7163   0.5946     C
C       0.0754   0.8783   0.2837     C
H       0.0762   0.1442   0.6945     H
H       0.0762   0.3055   0.4497     H
H       0.0762   0.4497   0.1442     H
H       0.0762   0.5503   0.8558     H
H       0.0762   0.6945   0.5503     H
H       0.0762   0.8558   0.3055     H
Cu      0.0866  0.15195  0.48672    Cu
Cu      0.0866  0.33477  0.84805    Cu
Cu      0.0866  0.48672  0.33477    Cu
Cu      0.0866  0.51328  0.66523    Cu
Cu      0.0866  0.66523  0.15195    Cu
Cu      0.0866  0.84805  0.51328    Cu
H       0.1186   0.1546   0.6096     H
H       0.1186   0.3904    0.545     H
H       0.1186    0.455   0.8454     H
H       0.1186    0.545   0.1546     H
H       0.1186   0.6096    0.455     H
H       0.1186   0.8454   0.3904     H
H       0.1273   0.1322   0.7411     H
H       0.1273   0.2589   0.3911     H
H       0.1273   0.3911   0.1322     H
H       0.1273   0.6089   0.8678     H
H       0.1273   0.7411   0.6089     H
H       0.1273   0.8678   0.2589     H
H       0.1277   0.0348   0.6751     H
H       0.1277   0.3249   0.3597     H
H       0.1277   0.3597   0.0348     H
H       0.1277   0.6403   0.9652     H
H       0.1277   0.6751   0.6403     H
H       0.1277   0.9652   0.3249     H
H        0.136   0.2202   0.6198     H
H        0.136   0.3802   0.6004     H
H        0.136   0.3996   0.7798     H
H        0.136   0.6004   0.2202     H
H        0.136   0.6198   0.3996     H
H        0.136   0.7798   0.3802     H
I      0.14844  0.11743  0.37516     I
I      0.14844  0.25773  0.88257     I
I      0.14844  0.37516  0.25773     I
I      0.14844  0.62484  0.74227     I
I      0.14844  0.74227  0.11743     I
I      0.14844  0.88257  0.62484     I
C        0.162   0.1805   0.6063     C
C        0.162   0.3937   0.5742     C
C        0.162   0.4258   0.8195     C
C        0.162   0.5742   0.1805     C
C        0.162   0.6063   0.4258     C
C        0.162   0.8195   0.3937     C
H       0.1678    0.065   0.5156     H
H       0.1678   0.4506    0.935     H
H       0.1678   0.4844   0.5494     H
H       0.1678   0.5156   0.4506     H
H       0.1678   0.5494    0.065     H
H       0.1678    0.935   0.4844     H
N       0.1875    0.154   0.5427     N
N       0.1875   0.3887    0.846     N
N       0.1875   0.4573   0.6113     N
N       0.1875   0.5427   0.3887     N
N       0.1875   0.6113    0.154     N
N       0.1875    0.846   0.4573     N
C       0.2169    0.091   0.5208     C
C       0.2169   0.4298    0.909     C
C       0.2169   0.4792   0.5702     C
C       0.2169   0.5208   0.4298     C
C       0.2169   0.5702    0.091     C
C       0.2169    0.909   0.4792     C
H       0.2199   0.1728    0.675     H
H       0.2199    0.325   0.4978     H
H       0.2199   0.4978   0.1728     H
H       0.2199   0.5022   0.8272     H
H       0.2199    0.675   0.5022     H
H       0.2199   0.8272    0.325     H
C       0.2362   0.1881    0.648     C
C       0.2362    0.352   0.5401     C
C       0.2362   0.4599   0.8119     C
C       0.2362   0.5401   0.1881     C
C       0.2362    0.648   0.4599     C
C       0.2362   0.8119    0.352     C
H       0.2454   0.0752   0.4815     H
H       0.2454   0.4063   0.9248     H
H       0.2454   0.4815   0.4063     H
H       0.2454   0.5185   0.5937     H
H       0.2454   0.5937   0.0752     H
H       0.2454   0.9248   0.5185     H
H       0.2496   0.2311   0.5582     H
H       0.2496   0.3271   0.7689     H
H       0.2496   0.4418   0.6729     H
H       0.2496   0.5582   0.3271     H
H       0.2496   0.6729   0.2311     H
H       0.2496   0.7689   0.4418     H
H       0.2504   0.2311   0.6729     H
H       0.2504   0.3271   0.5582     H
H       0.2504   0.4418   0.7689     H
H       0.2504   0.5582   0.2311     H
H       0.2504   0.6729   0.4418     H
H       0.2504   0.7689   0.3271     H
H       0.2546   0.0752   0.5937     H
H       0.2546   0.4063   0.4815     H
H       0.2546   0.4815   0.0752     H
H       0.2546   0.5185   0.9248     H
H       0.2546   0.5937   0.5185     H
H       0.2546   0.9248   0.4063     H
C       0.2638   0.1881   0.5401     C
C       0.2638    0.352   0.8119     C
C       0.2638   0.4599    0.648     C
C       0.2638   0.5401    0.352     C
C       0.2638    0.648   0.1881     C
C       0.2638   0.8119   0.4599     C
H       0.2801   0.1728   0.4978     H
H       0.2801    0.325   0.8272     H
H       0.2801   0.4978    0.325     H
H       0.2801   0.5022    0.675     H
H       0.2801    0.675   0.1728     H
H       0.2801   0.8272   0.5022     H
C       0.2831    0.091   0.5702     C
C       0.2831   0.4298   0.5208     C
C       0.2831   0.4792    0.909     C
C       0.2831   0.5208    0.091     C
C       0.2831   0.5702   0.4792     C
C       0.2831    0.909   0.4298     C
N       0.3125    0.154   0.6113     N
N       0.3125   0.3887   0.5427     N
N       0.3125   0.4573    0.846     N
N       0.3125   0.5427    0.154     N
N       0.3125   0.6113   0.4573     N
N       0.3125    0.846   0.3887     N
H       0.3322    0.065   0.5494     H
H       0.3322   0.4506   0.5156     H
H       0.3322   0.4844    0.935     H
H       0.3322   0.5156    0.065     H
H       0.3322   0.5494   0.4844     H
H       0.3322    0.935   0.4506     H
C        0.338   0.1805   0.5742     C
C        0.338   0.3937   0.8195     C
C        0.338   0.4258   0.6063     C
C        0.338   0.5742   0.3937     C
C        0.338   0.6063   0.1805     C
C        0.338   0.8195   0.4258     C
I      0.35156  0.11743  0.74227     I
I      0.35156  0.25773  0.37516     I
I      0.35156  0.37516  0.11743     I
I      0.35156  0.62484  0.88257     I
I      0.35156  0.74227  0.62484     I
I      0.35156  0.88257  0.25773     I
H        0.364   0.2202   0.6004     H
H        0.364   0.3802   0.7798     H
H        0.364   0.3996   0.6198     H
H        0.364   0.6004   0.3802     H
H        0.364   0.6198   0.2202     H
H        0.364   0.7798   0.3996     H
H       0.3723   0.0348   0.3597     H
H       0.3723   0.3249   0.9652     H
H       0.3723   0.3597   0.3249     H
H       0.3723   0.6403   0.6751     H
H       0.3723   0.6751   0.0348     H
H       0.3723   0.9652   0.6403     H
H       0.3727   0.1322   0.3911     H
H       0.3727   0.2589   0.8678     H
H       0.3727   0.3911   0.2589     H
H       0.3727   0.6089   0.7411     H
H       0.3727   0.7411   0.1322     H
H       0.3727   0.8678   0.6089     H
H       0.3814   0.1546    0.545     H
H       0.3814   0.3904   0.8454     H
H       0.3814    0.455   0.6096     H
H       0.3814    0.545   0.3904     H
H       0.3814   0.6096   0.1546     H
H       0.3814   0.8454    0.455     H
Cu      0.4134  0.15195  0.66523    Cu
Cu      0.4134  0.33477  0.48672    Cu
Cu      0.4134  0.48672  0.15195    Cu
Cu      0.4134  0.51328  0.84805    Cu
Cu      0.4134  0.66523  0.51328    Cu
Cu      0.4134  0.84805  0.33477    Cu
H       0.4238   0.1442   0.4497     H
H       0.4238   0.3055   0.8558     H
H       0.4238   0.4497   0.3055     H
H       0.4238   0.5503   0.6945     H
H       0.4238   0.6945   0.1442     H
H       0.4238   0.8558   0.5503     H
C       0.4246   0.1217   0.4054     C
C       0.4246   0.2837   0.8783     C
C       0.4246   0.4054   0.2837     C
C       0.4246   0.5946   0.7163     C
C       0.4246   0.7163   0.1217     C
C       0.4246   0.8783   0.5946     C
C       0.4247    0.053   0.3828     C
C       0.4247   0.3298    0.947     C
C       0.4247   0.3828   0.3298     C
C       0.4247   0.6172   0.6702     C
C       0.4247   0.6702    0.053     C
C       0.4247    0.947   0.6172     C
H        0.425   0.0467   0.4177     H
H        0.425    0.371   0.9533     H
H        0.425   0.4177    0.371     H
H        0.425   0.5823    0.629     H
H        0.425    0.629   0.0467     H
H        0.425   0.9533   0.5823     H
H       0.4493   0.0125   0.2685     H
H       0.4493   0.1128   0.2991     H
H       0.4493   0.1863   0.8872     H
H       0.4493    0.256   0.9875     H
H       0.4493   0.2685    0.256     H
H       0.4493   0.2991   0.1863     H
H       0.4493   0.7009   0.8137     H
H       0.4493   0.7315    0.744     H
H       0.4493    0.744   0.0125     H
H       0.4493   0.8137   0.1128     H
H       0.4493   0.8872   0.7009     H
H       0.4493   0.9875   0.7315     H
N          0.5   0.0223   0.3441     N
C          0.5   0.0317   0.2935     C
I          0.5  0.06053  0.57157     I
Cu         0.5  0.06917  0.68271    Cu
C          0.5    0.103    0.315     C
N          0.5   0.1396   0.3837     N
Cu         0.5    0.183  0.76659    Cu
C          0.5    0.212    0.897     C
Cu         0.5  0.23341  0.41641    Cu
N          0.5   0.2441   0.8604     N
I          0.5  0.25732    0.716     I
C          0.5   0.2618   0.9683     C
I          0.5    0.284  0.54132     I
C          0.5   0.2935   0.2618     C
C          0.5    0.315    0.212     C
Cu         0.5  0.31729  0.38646    Cu
N          0.5   0.3218   0.9777     N
N          0.5   0.3441   0.3218     N
N          0.5   0.3837   0.2441     N
Cu         0.5  0.38646  0.06917    Cu
Cu         0.5  0.41641    0.183    Cu
I          0.5  0.42843  0.48896     I
I          0.5  0.45868  0.74268     I
I          0.5  0.48896  0.06053     I
I          0.5  0.51104  0.93947     I
I          0.5  0.54132  0.25732     I
I          0.5  0.57157  0.51104     I
Cu         0.5  0.58359    0.817    Cu
Cu         0.5  0.61354  0.93083    Cu
N          0.5   0.6163   0.7559     N
N          0.5   0.6559   0.6782     N
N          0.5   0.6782   0.0223     N
Cu         0.5  0.68271  0.61354    Cu
C          0.5    0.685    0.788     C
C          0.5   0.7065   0.7382     C
I          0.5    0.716  0.45868     I
C          0.5   0.7382   0.0317     C
I          0.5  0.74268    0.284     I
N          0.5   0.7559   0.1396     N
Cu         0.5  0.76659  0.58359    Cu
C          0.5    0.788    0.103     C
Cu         0.5    0.817  0.23341    Cu
N          0.5   0.8604   0.6163     N
C          0.5    0.897    0.685     C
Cu         0.5  0.93083  0.31729    Cu
I          0.5  0.93947  0.42843     I
C          0.5   0.9683   0.7065     C
N          0.5   0.9777   0.6559     N
H       0.5507   0.0125   0.2685     H
H       0.5507   0.1128   0.2991     H
H       0.5507   0.1863   0.8872     H
H       0.5507    0.256   0.9875     H
H       0.5507   0.2685    0.256     H
H       0.5507   0.2991   0.1863     H
H       0.5507   0.7009   0.8137     H
H       0.5507   0.7315    0.744     H
H       0.5507    0.744   0.0125     H
H       0.5507   0.8137   0.1128     H
H       0.5507   0.8872   0.7009     H
H       0.5507   0.9875   0.7315     H
H        0.575   0.0467   0.4177     H
H        0.575    0.371   0.9533     H
H        0.575   0.4177    0.371     H
H        0.575   0.5823    0.629     H
H        0.575    0.629   0.0467     H
H        0.575   0.9533   0.5823     H
C       0.5753    0.053   0.3828     C
C       0.5753   0.3298    0.947     C
C       0.5753   0.3828   0.3298     C
C       0.5753   0.6172   0.6702     C
C       0.5753   0.6702    0.053     C
C       0.5753    0.947   0.6172     C
C       0.5754   0.1217   0.4054     C
C       0.5754   0.2837   0.8783     C
C       0.5754   0.4054   0.2837     C
C       0.5754   0.5946   0.7163     C
C       0.5754   0.7163   0.1217     C
C       0.5754   0.8783   0.5946     C
H       0.5762   0.1442   0.4497     H
H       0.5762   0.3055   0.8558     H
H       0.5762   0.4497   0.3055     H
H       0.5762   0.5503   0.6945     H
H       0.5762   0.6945   0.1442     H
H       0.5762   0.8558   0.5503     H
Cu      0.5866  0.15195  0.66523    Cu
Cu      0.5866  0.33477  0.48672    Cu
Cu      0.5866  0.48672  0.15195    Cu
Cu      0.5866  0.51328  0.84805    Cu
Cu      0.5866  0.66523  0.51328    Cu
Cu      0.5866  0.84805  0.33477    Cu
H       0.6186   0.1546    0.545     H
H       0.6186   0.3904   0.8454     H
H       0.6186    0.455   0.6096     H
H       0.6186    0.545   0.3904     H
H       0.6186   0.6096   0.1546     H
H       0.6186   0.8454    0.455     H
H       0.6273   0.1322   0.3911     H
H       0.6273   0.2589   0.8678     H
H       0.6273   0.3911   0.2589     H
H       0.6273   0.6089   0.7411     H
H       0.6273   0.7411   0.1322     H
H       0.6273   0.8678   0.6089     H
H       0.6277   0.0348   0.3597     H
H       0.6277   0.3249   0.9652     H
H       0.6277   0.3597   0.3249     H
H       0.6277   0.6403   0.6751     H
H       0.6277   0.6751   0.0348     H
H       0.6277   0.9652   0.6403     H
H        0.636   0.2202   0.6004     H
H        0.636   0.3802   0.7798     H
H        0.636   0.3996   0.6198     H
H        0.636   0.6004   0.3802     H
H        0.636   0.6198   0.2202     H
H        0.636   0.7798   0.3996     H
I      0.64844  0.11743  0.74227     I
I      0.64844  0.25773  0.37516     I
I      0.64844  0.37516  0.11743     I
I      0.64844  0.62484  0.88257     I
I      0.64844  0.74227  0.62484     I
I      0.64844  0.88257  0.25773     I
C        0.662   0.1805   0.5742     C
C        0.662   0.3937   0.8195     C
C        0.662   0.4258   0.6063     C
C        0.662   0.5742   0.3937     C
C        0.662   0.6063   0.1805     C
C        0.662   0.8195   0.4258     C
H       0.6678    0.065   0.5494     H
H       0.6678   0.4506   0.5156     H
H       0.6678   0.4844    0.935     H
H       0.6678   0.5156    0.065     H
H       0.6678   0.5494   0.4844     H
H       0.6678    0.935   0.4506     H
N       0.6875    0.154   0.6113     N
N       0.6875   0.3887   0.5427     N
N       0.6875   0.4573    0.846     N
N       0.6875   0.5427    0.154     N
N       0.6875   0.6113   0.4573     N
N       0.6875    0.846   0.3887     N
C       0.7169    0.091   0.5702     C
C       0.7169   0.4298   0.5208     C
C       0.7169   0.4792    0.909     C
C       0.7169   0.5208    0.091     C
C       0.7169   0.5702   0.4792     C
C       0.7169    0.909   0.4298     C
H       0.7199   0.1728   0.4978     H
H       0.7199    0.325   0.8272     H
H       0.7199   0.4978    0.325     H
H       0.7199   0.5022    0.675     H
H       0.7199    0.675   0.1728     H
H       0.7199   0.8272   0.5022     H
C       0.7362   0.1881   0.5401     C
C       0.7362    0.352   0.8119     C
C       0.7362   0.4599    0.648     C
C       0.7362   0.5401    0.352     C
C       0.7362    0.648   0.1881     C
C       0.7362   0.8119   0.4599     C
H       0.7454   0.0752   0.5937     H
H       0.7454   0.4063   0.4815     H
H       0.7454   0.4815   0.0752     H
H       0.7454   0.5185   0.9248     H
H       0.7454   0.5937   0.5185     H
H       0.7454   0.9248   0.4063     H
H       0.7496   0.2311   0.6729     H
H       0.7496   0.3271   0.5582     H
H       0.7496   0.4418   0.7689     H
H       0.7496   0.5582   0.2311     H
H       0.7496   0.6729   0.4418     H
H       0.7496   0.7689   0.3271     H
H       0.7504   0.2311   0.5582     H
H       0.7504   0.3271   0.7689     H
H       0.7504   0.4418   0.6729     H
H       0.7504   0.5582   0.3271     H
H       0.7504   0.6729   0.2311     H
H       0.7504   0.7689   0.4418     H
H       0.7546   0.0752   0.4815     H
H       0.7546   0.4063   0.9248     H
H       0.7546   0.4815   0.4063     H
H       0.7546   0.5185   0.5937     H
H       0.7546   0.5937   0.0752     H
H       0.7546   0.9248   0.5185     H
C       0.7638   0.1881    0.648     C
C       0.7638    0.352   0.5401     C
C       0.7638   0.4599   0.8119     C
C       0.7638   0.5401   0.1881     C
C       0.7638    0.648   0.4599     C
C       0.7638   0.8119    0.352     C
H       0.7801   0.1728    0.675     H
H       0.7801    0.325   0.4978     H
H       0.7801   0.4978   0.1728     H
H       0.7801   0.5022   0.8272     H
H       0.7801    0.675   0.5022     H
H       0.7801   0.8272    0.325     H
C       0.7831    0.091   0.5208     C
C       0.7831   0.4298    0.909     C
C       0.7831   0.4792   0.5702     C
C       0.7831   0.5208   0.4298     C
C       0.7831   0.5702    0.091     C
C       0.7831    0.909   0.4792     C
N       0.8125    0.154   0.5427     N
N       0.8125   0.3887    0.846     N
N       0.8125   0.4573   0.6113     N
N       0.8125   0.5427   0.3887     N
N       0.8125   0.6113    0.154     N
N       0.8125    0.846   0.4573     N
H       0.8322    0.065   0.5156     H
H       0.8322   0.4506    0.935     H
H       0.8322   0.4844   0.5494     H
H       0.8322   0.5156   0.4506     H
H       0.8322   0.5494    0.065     H
H       0.8322    0.935   0.4844     H
C        0.838   0.1805   0.6063     C
C        0.838   0.3937   0.5742     C
C        0.838   0.4258   0.8195     C
C        0.838   0.5742   0.1805     C
C        0.838   0.6063   0.4258     C
C        0.838   0.8195   0.3937     C
I      0.85156  0.11743  0.37516     I
I      0.85156  0.25773  0.88257     I
I      0.85156  0.37516  0.25773     I
I      0.85156  0.62484  0.74227     I
I      0.85156  0.74227  0.11743     I
I      0.85156  0.88257  0.62484     I
H        0.864   0.2202   0.6198     H
H        0.864   0.3802   0.6004     H
H        0.864   0.3996   0.7798     H
H        0.864   0.6004   0.2202     H
H        0.864   0.6198   0.3996     H
H        0.864   0.7798   0.3802     H
H       0.8723   0.0348   0.6751     H
H       0.8723   0.3249   0.3597     H
H       0.8723   0.3597   0.0348     H
H       0.8723   0.6403   0.9652     H
H       0.8723   0.6751   0.6403     H
H       0.8723   0.9652   0.3249     H
H       0.8727   0.1322   0.7411     H
H       0.8727   0.2589   0.3911     H
H       0.8727   0.3911   0.1322     H
H       0.8727   0.6089   0.8678     H
H       0.8727   0.7411   0.6089     H
H       0.8727   0.8678   0.2589     H
H       0.8814   0.1546   0.6096     H
H       0.8814   0.3904    0.545     H
H       0.8814    0.455   0.8454     H
H       0.8814    0.545   0.1546     H
H       0.8814   0.6096    0.455     H
H       0.8814   0.8454   0.3904     H
Cu      0.9134  0.15195  0.48672    Cu
Cu      0.9134  0.33477  0.84805    Cu
Cu      0.9134  0.48672  0.33477    Cu
Cu      0.9134  0.51328  0.66523    Cu
Cu      0.9134  0.66523  0.15195    Cu
Cu      0.9134  0.84805  0.51328    Cu
H       0.9238   0.1442   0.6945     H
H       0.9238   0.3055   0.4497     H
H       0.9238   0.4497   0.1442     H
H       0.9238   0.5503   0.8558     H
H       0.9238   0.6945   0.5503     H
H       0.9238   0.8558   0.3055     H
C       0.9246   0.1217   0.7163     C
C       0.9246   0.2837   0.4054     C
C       0.9246   0.4054   0.1217     C
C       0.9246   0.5946   0.8783     C
C       0.9246   0.7163   0.5946     C
C       0.9246   0.8783   0.2837     C
C       0.9247    0.053   0.6702     C
C       0.9247   0.3298   0.3828     C
C       0.9247   0.3828    0.053     C
C       0.9247   0.6172    0.947     C
C       0.9247   0.6702   0.6172     C
C       0.9247    0.947   0.3298     C
H        0.925   0.0467    0.629     H
H        0.925    0.371   0.4177     H
H        0.925   0.4177   0.0467     H
H        0.925   0.5823   0.9533     H
H        0.925    0.629   0.5823     H
H        0.925   0.9533    0.371     H
H       0.9493   0.0125    0.744     H
H       0.9493   0.1128   0.8137     H
H       0.9493   0.1863   0.2991     H
H       0.9493    0.256   0.2685     H
H       0.9493   0.2685   0.0125     H
H       0.9493   0.2991   0.1128     H
H       0.9493   0.7009   0.8872     H
H       0.9493   0.7315   0.9875     H
H       0.9493    0.744   0.7315     H
H       0.9493   0.8137   0.7009     H
H       0.9493   0.8872   0.1863     H
H       0.9493   0.9875    0.256     H
