data_I
_chemical_name_common  '/home/zhangsd/repos/MofS-CGCNN/ML/data/WS24/clean_cifs/Ni-NIC'
_cell_length_a 14.01560
_cell_length_b 20.08900
_cell_length_c 20.08900
_cell_angle_alpha 90.00000
_cell_angle_beta  90.00000
_cell_angle_gamma 90.00000
_space_group_name_H-M_alt      'P 1'


loop_
_space_group_symop_operation_xyz
  'x, y, z' 

loop_
_atom_site_label
_atom_site_fract_x
_atom_site_fract_y
_atom_site_fract_z
_atom_site_type_symbol
C       0.0106  0.04311  0.07915     C
C       0.0106  0.07915  0.45689     C
C       0.0106  0.42085  0.04311     C
C       0.0106  0.45689  0.42085     C
C       0.0124   0.6512    0.846     C
C       0.0124    0.654   0.6512     C
C       0.0124    0.846   0.8488     C
C       0.0124   0.8488    0.654     C
H       0.0188   0.0039   0.0534     H
H       0.0188   0.0534   0.4961     H
H       0.0188   0.4466   0.0039     H
H       0.0188   0.4961   0.4466     H
H       0.0192    0.074   0.7775     H
H       0.0192    0.426   0.7225     H
H       0.0192   0.7225    0.074     H
H       0.0192   0.7775    0.426     H
H       0.0218   0.6778   0.8074     H
H       0.0218   0.6926   0.6778     H
H       0.0218   0.8074   0.8222     H
H       0.0218   0.8222   0.6926     H
C       0.0351   0.1543   0.9038     C
C       0.0351   0.3457   0.5962     C
C       0.0351   0.5962   0.1543     C
C       0.0351   0.9038   0.3457     C
O      0.03994  0.09473   0.8926     O
O      0.03994  0.40527   0.6074     O
O      0.03994   0.6074  0.09473     O
O      0.03994   0.8926  0.40527     O
C       0.0577   0.0679   0.6817     C
C       0.0577   0.4321   0.8183     C
C       0.0577   0.6817   0.4321     C
C       0.0577   0.8183   0.0679     C
N       0.0665  0.54734  0.61753     N
N       0.0665  0.61753  0.95266     N
N       0.0665  0.88247  0.54734     N
N       0.0665  0.95266  0.88247     N
C       0.0686   0.1122   0.3514     C
C       0.0686   0.1486   0.1122     C
C       0.0686   0.3514   0.3878     C
C       0.0686   0.3878   0.1486     C
C       0.0702   0.0613   0.7491     C
C       0.0702   0.4387   0.7509     C
C       0.0702   0.7491   0.4387     C
C       0.0702   0.7509   0.0613     C
C       0.0792   0.6041   0.6518     C
C       0.0792   0.6518   0.8959     C
C       0.0792   0.8482   0.6041     C
C       0.0792   0.8959   0.8482     C
C       0.0793  0.07441    0.408     C
C       0.0793    0.092  0.07441     C
C       0.0793    0.408  0.42559     C
C       0.0793  0.42559    0.092     C
O       0.1034   0.1952   0.8949     O
O       0.1034   0.3048   0.6051     O
O       0.1034   0.6051   0.1952     O
O       0.1034   0.8949   0.3048     O
H       0.1153   0.1116   0.3171     H
H       0.1153   0.1829   0.1116     H
H       0.1153   0.3171   0.3884     H
H       0.1153   0.3884   0.1829     H
H        0.123   0.0481   0.5933     H
H        0.123   0.4519   0.9067     H
H        0.123   0.5933   0.4519     H
H        0.123   0.9067   0.0481     H
C         0.13   0.0463   0.6403     C
C         0.13   0.4537   0.8597     C
C         0.13   0.6403   0.4537     C
C         0.13   0.8597   0.0463     C
H       0.1359   0.6098   0.6771     H
H       0.1359   0.6771   0.8902     H
H       0.1359   0.8229   0.6098     H
H       0.1359   0.8902   0.8229     H
N       0.1501  0.03795   0.7773     N
N       0.1501  0.46205   0.7227     N
N       0.1501   0.7227  0.03795     N
N       0.1501   0.7773  0.46205     N
O      0.15108  0.03415   0.9854     O
O      0.15108  0.46585   0.5146     O
O      0.15108   0.5146  0.03415     O
O      0.15108   0.9854  0.46585     O
Ni     0.15862  0.03349  0.88171    Ni
Ni     0.15862  0.46651  0.61829    Ni
Ni     0.15862  0.61829  0.03349    Ni
Ni     0.15862  0.88171  0.46651    Ni
C       0.1595  0.02519  0.41794     C
C       0.1595  0.08206  0.02519     C
C       0.1595  0.41794  0.47481     C
C       0.1595  0.47481  0.08206     C
C       0.2112   0.0224    0.668     C
C       0.2112   0.4776    0.832     C
C       0.2112    0.668   0.4776     C
C       0.2112    0.832   0.0224     C
C       0.2193   0.0185   0.7368     C
C       0.2193   0.4815   0.7632     C
C       0.2193   0.7368   0.4815     C
C       0.2193   0.7632   0.0185     C
H       0.2235   0.2446   0.9986     H
H       0.2235   0.2554   0.5014     H
H       0.2235   0.5014   0.2446     H
H       0.2235   0.9986   0.2554     H
O      0.22676  0.02708  0.37601     O
O      0.22676  0.12399  0.02708     O
O      0.22676  0.37601  0.47292     O
O      0.22676  0.47292  0.12399     O
H       0.2376   0.1405   0.5083     H
H       0.2376   0.3595   0.9917     H
H       0.2376   0.5083   0.3595     H
H       0.2376   0.9917   0.1405     H
O         0.25   0.1174   0.8826     O
O         0.25   0.3826   0.6174     O
O         0.25   0.6174   0.1174     O
O         0.25   0.8826   0.3826     O
H       0.2624   0.0083   0.6405     H
H       0.2624   0.4917   0.8595     H
H       0.2624   0.6405   0.4917     H
H       0.2624   0.8595   0.0083     H
O      0.27324  0.52708  0.62399     O
O      0.27324  0.62399  0.97292     O
O      0.27324  0.87601  0.52708     O
O      0.27324  0.97292  0.87601     O
H       0.2765   0.0014   0.7554     H
H       0.2765   0.4986   0.7446     H
H       0.2765   0.7446   0.0014     H
H       0.2765   0.7554   0.4986     H
C       0.2807   0.2368   0.5185     C
C       0.2807   0.2632   0.9815     C
C       0.2807   0.5185   0.2632     C
C       0.2807   0.9815   0.2368     C
C       0.2888    0.168   0.5224     C
C       0.2888    0.332   0.9776     C
C       0.2888   0.5224    0.332     C
C       0.2888   0.9776    0.168     C
C       0.3405  0.52519  0.58206     C
C       0.3405  0.58206  0.97481     C
C       0.3405  0.91794  0.52519     C
C       0.3405  0.97481  0.91794     C
Ni     0.34138  0.11829  0.96651    Ni
Ni     0.34138  0.38171  0.53349    Ni
Ni     0.34138  0.53349  0.11829    Ni
Ni     0.34138  0.96651  0.38171    Ni
O      0.34892   0.0146  0.96585     O
O      0.34892   0.4854  0.53415     O
O      0.34892  0.53415   0.0146     O
O      0.34892  0.96585   0.4854     O
N       0.3499   0.2227  0.96205     N
N       0.3499   0.2773  0.53795     N
N       0.3499  0.53795   0.2227     N
N       0.3499  0.96205   0.2773     N
H       0.3641   0.1098   0.3229     H
H       0.3641   0.1771   0.1098     H
H       0.3641   0.3229   0.3902     H
H       0.3641   0.3902   0.1771     H
C         0.37   0.1403   0.5463     C
C         0.37   0.3597   0.9537     C
C         0.37   0.5463   0.3597     C
C         0.37   0.9537   0.1403     C
H        0.377   0.0933   0.5481     H
H        0.377   0.4067   0.9519     H
H        0.377   0.5481   0.4067     H
H        0.377   0.9519   0.0933     H
H       0.3847   0.6116   0.6829     H
H       0.3847   0.6829   0.8884     H
H       0.3847   0.8171   0.6116     H
H       0.3847   0.8884   0.8171     H
O       0.3966   0.1051   0.8048     O
O       0.3966   0.3949   0.6952     O
O       0.3966   0.6952   0.1051     O
O       0.3966   0.8048   0.3949     O
C       0.4207  0.57441    0.592     C
C       0.4207    0.592  0.92559     C
C       0.4207    0.908  0.57441     C
C       0.4207  0.92559    0.908     C
C       0.4208   0.1041   0.3482     C
C       0.4208   0.1518   0.1041     C
C       0.4208   0.3482   0.3959     C
C       0.4208   0.3959   0.1518     C
C       0.4298   0.2491   0.5613     C
C       0.4298   0.2509   0.9387     C
C       0.4298   0.5613   0.2509     C
C       0.4298   0.9387   0.2491     C
C       0.4314   0.6122   0.6486     C
C       0.4314   0.6486   0.8878     C
C       0.4314   0.8514   0.6122     C
C       0.4314   0.8878   0.8514     C
N       0.4335  0.04734  0.38247     N
N       0.4335  0.11753  0.04734     N
N       0.4335  0.38247  0.45266     N
N       0.4335  0.45266  0.11753     N
C       0.4423   0.1817   0.5679     C
C       0.4423   0.3183   0.9321     C
C       0.4423   0.5679   0.3183     C
C       0.4423   0.9321   0.1817     C
O      0.46006   0.1074  0.90527     O
O      0.46006   0.3926  0.59473     O
O      0.46006  0.59473   0.1074     O
O      0.46006  0.90527   0.3926     O
C       0.4649   0.0962   0.8457     C
C       0.4649   0.4038   0.6543     C
C       0.4649   0.6543   0.0962     C
C       0.4649   0.8457   0.4038     C
H       0.4782   0.1778   0.1926     H
H       0.4782   0.1926   0.3222     H
H       0.4782   0.3074   0.1778     H
H       0.4782   0.3222   0.3074     H
H       0.4808   0.2225    0.926     H
H       0.4808   0.2775    0.574     H
H       0.4808    0.574   0.2225     H
H       0.4808    0.926   0.2775     H
H       0.4812   0.5039   0.9466     H
H       0.4812   0.5534   0.5039     H
H       0.4812   0.9466   0.9961     H
H       0.4812   0.9961   0.5534     H
C       0.4876   0.1512    0.154     C
C       0.4876    0.154   0.3488     C
C       0.4876    0.346   0.1512     C
C       0.4876   0.3488    0.346     C
C       0.4894  0.54311  0.92085     C
C       0.4894  0.57915  0.54311     C
C       0.4894  0.92085  0.95689     C
C       0.4894  0.95689  0.57915     C
C       0.5106  0.04311  0.42085     C
C       0.5106  0.07915  0.04311     C
C       0.5106  0.42085  0.45689     C
C       0.5106  0.45689  0.07915     C
C       0.5124   0.6512    0.654     C
C       0.5124    0.654   0.8488     C
C       0.5124    0.846   0.6512     C
C       0.5124   0.8488    0.846     C
H       0.5188   0.0039   0.4466     H
H       0.5188   0.0534   0.0039     H
H       0.5188   0.4466   0.4961     H
H       0.5188   0.4961   0.0534     H
H       0.5192    0.074   0.7225     H
H       0.5192    0.426   0.7775     H
H       0.5192   0.7225    0.426     H
H       0.5192   0.7775    0.074     H
H       0.5218   0.6778   0.6926     H
H       0.5218   0.6926   0.8222     H
H       0.5218   0.8074   0.6778     H
H       0.5218   0.8222   0.8074     H
C       0.5351   0.1543   0.5962     C
C       0.5351   0.3457   0.9038     C
C       0.5351   0.5962   0.3457     C
C       0.5351   0.9038   0.1543     C
O      0.53994  0.09473   0.6074     O
O      0.53994  0.40527   0.8926     O
O      0.53994   0.6074  0.40527     O
O      0.53994   0.8926  0.09473     O
C       0.5577   0.0679   0.8183     C
C       0.5577   0.4321   0.6817     C
C       0.5577   0.6817   0.0679     C
C       0.5577   0.8183   0.4321     C
N       0.5665  0.54734  0.88247     N
N       0.5665  0.61753  0.54734     N
N       0.5665  0.88247  0.95266     N
N       0.5665  0.95266  0.61753     N
C       0.5686   0.1122   0.1486     C
C       0.5686   0.1486   0.3878     C
C       0.5686   0.3514   0.1122     C
C       0.5686   0.3878   0.3514     C
C       0.5702   0.0613   0.7509     C
C       0.5702   0.4387   0.7491     C
C       0.5702   0.7491   0.0613     C
C       0.5702   0.7509   0.4387     C
C       0.5792   0.6041   0.8482     C
C       0.5792   0.6518   0.6041     C
C       0.5792   0.8482   0.8959     C
C       0.5792   0.8959   0.6518     C
C       0.5793  0.07441    0.092     C
C       0.5793    0.092  0.42559     C
C       0.5793    0.408  0.07441     C
C       0.5793  0.42559    0.408     C
O       0.6034   0.1952   0.6051     O
O       0.6034   0.3048   0.8949     O
O       0.6034   0.6051   0.3048     O
O       0.6034   0.8949   0.1952     O
H       0.6153   0.1116   0.1829     H
H       0.6153   0.1829   0.3884     H
H       0.6153   0.3171   0.1116     H
H       0.6153   0.3884   0.3171     H
H        0.623   0.0481   0.9067     H
H        0.623   0.4519   0.5933     H
H        0.623   0.5933   0.0481     H
H        0.623   0.9067   0.4519     H
C         0.63   0.0463   0.8597     C
C         0.63   0.4537   0.6403     C
C         0.63   0.6403   0.0463     C
C         0.63   0.8597   0.4537     C
H       0.6359   0.6098   0.8229     H
H       0.6359   0.6771   0.6098     H
H       0.6359   0.8229   0.8902     H
H       0.6359   0.8902   0.6771     H
N       0.6501  0.03795   0.7227     N
N       0.6501  0.46205   0.7773     N
N       0.6501   0.7227  0.46205     N
N       0.6501   0.7773  0.03795     N
O      0.65108  0.03415   0.5146     O
O      0.65108  0.46585   0.9854     O
O      0.65108   0.5146  0.46585     O
O      0.65108   0.9854  0.03415     O
Ni     0.65862  0.03349  0.61829    Ni
Ni     0.65862  0.46651  0.88171    Ni
Ni     0.65862  0.61829  0.46651    Ni
Ni     0.65862  0.88171  0.03349    Ni
C       0.6595  0.02519  0.08206     C
C       0.6595  0.08206  0.47481     C
C       0.6595  0.41794  0.02519     C
C       0.6595  0.47481  0.41794     C
C       0.7112   0.0224    0.832     C
C       0.7112   0.4776    0.668     C
C       0.7112    0.668   0.0224     C
C       0.7112    0.832   0.4776     C
C       0.7193   0.0185   0.7632     C
C       0.7193   0.4815   0.7368     C
C       0.7193   0.7368   0.0185     C
C       0.7193   0.7632   0.4815     C
H       0.7235   0.2446   0.5014     H
H       0.7235   0.2554   0.9986     H
H       0.7235   0.5014   0.2554     H
H       0.7235   0.9986   0.2446     H
O      0.72676  0.02708  0.12399     O
O      0.72676  0.12399  0.47292     O
O      0.72676  0.37601  0.02708     O
O      0.72676  0.47292  0.37601     O
H       0.7376   0.1405   0.9917     H
H       0.7376   0.3595   0.5083     H
H       0.7376   0.5083   0.1405     H
H       0.7376   0.9917   0.3595     H
O         0.75   0.1174   0.6174     O
O         0.75   0.3826   0.8826     O
O         0.75   0.6174   0.3826     O
O         0.75   0.8826   0.1174     O
H       0.7624   0.0083   0.8595     H
H       0.7624   0.4917   0.6405     H
H       0.7624   0.6405   0.0083     H
H       0.7624   0.8595   0.4917     H
O      0.77324  0.52708  0.87601     O
O      0.77324  0.62399  0.52708     O
O      0.77324  0.87601  0.97292     O
O      0.77324  0.97292  0.62399     O
H       0.7765   0.0014   0.7446     H
H       0.7765   0.4986   0.7554     H
H       0.7765   0.7446   0.4986     H
H       0.7765   0.7554   0.0014     H
C       0.7807   0.2368   0.9815     C
C       0.7807   0.2632   0.5185     C
C       0.7807   0.5185   0.2368     C
C       0.7807   0.9815   0.2632     C
C       0.7888    0.168   0.9776     C
C       0.7888    0.332   0.5224     C
C       0.7888   0.5224    0.168     C
C       0.7888   0.9776    0.332     C
C       0.8405  0.52519  0.91794     C
C       0.8405  0.58206  0.52519     C
C       0.8405  0.91794  0.97481     C
C       0.8405  0.97481  0.58206     C
Ni     0.84138  0.11829  0.53349    Ni
Ni     0.84138  0.38171  0.96651    Ni
Ni     0.84138  0.53349  0.38171    Ni
Ni     0.84138  0.96651  0.11829    Ni
O      0.84892   0.0146  0.53415     O
O      0.84892   0.4854  0.96585     O
O      0.84892  0.53415   0.4854     O
O      0.84892  0.96585   0.0146     O
N       0.8499   0.2227  0.53795     N
N       0.8499   0.2773  0.96205     N
N       0.8499  0.53795   0.2773     N
N       0.8499  0.96205   0.2227     N
H       0.8641   0.1098   0.1771     H
H       0.8641   0.1771   0.3902     H
H       0.8641   0.3229   0.1098     H
H       0.8641   0.3902   0.3229     H
C         0.87   0.1403   0.9537     C
C         0.87   0.3597   0.5463     C
C         0.87   0.5463   0.1403     C
C         0.87   0.9537   0.3597     C
H        0.877   0.0933   0.9519     H
H        0.877   0.4067   0.5481     H
H        0.877   0.5481   0.0933     H
H        0.877   0.9519   0.4067     H
H       0.8847   0.6116   0.8171     H
H       0.8847   0.6829   0.6116     H
H       0.8847   0.8171   0.8884     H
H       0.8847   0.8884   0.6829     H
O       0.8966   0.1051   0.6952     O
O       0.8966   0.3949   0.8048     O
O       0.8966   0.6952   0.3949     O
O       0.8966   0.8048   0.1051     O
C       0.9207  0.57441    0.908     C
C       0.9207    0.592  0.57441     C
C       0.9207    0.908  0.92559     C
C       0.9207  0.92559    0.592     C
C       0.9208   0.1041   0.1518     C
C       0.9208   0.1518   0.3959     C
C       0.9208   0.3482   0.1041     C
C       0.9208   0.3959   0.3482     C
C       0.9298   0.2491   0.9387     C
C       0.9298   0.2509   0.5613     C
C       0.9298   0.5613   0.2491     C
C       0.9298   0.9387   0.2509     C
C       0.9314   0.6122   0.8514     C
C       0.9314   0.6486   0.6122     C
C       0.9314   0.8514   0.8878     C
C       0.9314   0.8878   0.6486     C
N       0.9335  0.04734  0.11753     N
N       0.9335  0.11753  0.45266     N
N       0.9335  0.38247  0.04734     N
N       0.9335  0.45266  0.38247     N
C       0.9423   0.1817   0.9321     C
C       0.9423   0.3183   0.5679     C
C       0.9423   0.5679   0.1817     C
C       0.9423   0.9321   0.3183     C
O      0.96006   0.1074  0.59473     O
O      0.96006   0.3926  0.90527     O
O      0.96006  0.59473   0.3926     O
O      0.96006  0.90527   0.1074     O
C       0.9649   0.0962   0.6543     C
C       0.9649   0.4038   0.8457     C
C       0.9649   0.6543   0.4038     C
C       0.9649   0.8457   0.0962     C
H       0.9782   0.1778   0.3074     H
H       0.9782   0.1926   0.1778     H
H       0.9782   0.3074   0.3222     H
H       0.9782   0.3222   0.1926     H
H       0.9808   0.2225    0.574     H
H       0.9808   0.2775    0.926     H
H       0.9808    0.574   0.2775     H
H       0.9808    0.926   0.2225     H
H       0.9812   0.5039   0.5534     H
H       0.9812   0.5534   0.9961     H
H       0.9812   0.9466   0.5039     H
H       0.9812   0.9961   0.9466     H
C       0.9876   0.1512    0.346     C
C       0.9876    0.154   0.1512     C
C       0.9876    0.346   0.3488     C
C       0.9876   0.3488    0.154     C
C       0.9894  0.54311  0.57915     C
C       0.9894  0.57915  0.95689     C
C       0.9894  0.92085  0.54311     C
C       0.9894  0.95689  0.92085     C
