data_I
_chemical_name_common  '/home/zhangsd/repos/MofS-CGCNN/ML/data/WS24/clean_cifs/Ni8_OH_4_H2O_2_L8_6'
_cell_length_a 25.38022
_cell_length_b 25.38022
_cell_length_c 25.38022
_cell_angle_alpha 90.00000
_cell_angle_beta  90.00000
_cell_angle_gamma 90.00000
_space_group_name_H-M_alt      'P 1'


loop_
_space_group_symop_operation_xyz
  'x, y, z' 

loop_
_atom_site_label
_atom_site_fract_x
_atom_site_fract_y
_atom_site_fract_z
_atom_site_type_symbol
O          0.0      0.0 0.086926     O
H          0.0      0.0 0.124357     H
H          0.0      0.0 0.875643     H
O          0.0      0.0 0.913074     O
O          0.0 0.086926      0.0     O
H          0.0 0.124357      0.0     H
C          0.0 0.170876 0.170876     C
C          0.0 0.170876 0.829124     C
C          0.0 0.211274 0.211274     C
C          0.0 0.211274 0.788726     C
C          0.0 0.288726 0.288726     C
C          0.0 0.288726 0.711274     C
C          0.0 0.329124 0.329124     C
C          0.0 0.329124 0.670876     C
H          0.0 0.375643      0.5     H
O          0.0 0.413074      0.5     O
H          0.0      0.5 0.375643     H
O          0.0      0.5 0.413074     O
O          0.0      0.5 0.586926     O
H          0.0      0.5 0.624357     H
O          0.0 0.586926      0.5     O
H          0.0 0.624357      0.5     H
C          0.0 0.670876 0.329124     C
C          0.0 0.670876 0.670876     C
C          0.0 0.711274 0.288726     C
C          0.0 0.711274 0.711274     C
C          0.0 0.788726 0.211274     C
C          0.0 0.788726 0.788726     C
C          0.0 0.829124 0.170876     C
C          0.0 0.829124 0.829124     C
H          0.0 0.875643      0.0     H
O          0.0 0.913074      0.0     O
N     0.026793 0.112569 0.112569     N
N     0.026793 0.112569 0.887431     N
N     0.026793 0.387431 0.387431     N
N     0.026793 0.387431 0.612569     N
N     0.026793 0.612569 0.387431     N
N     0.026793 0.612569 0.612569     N
N     0.026793 0.887431 0.112569     N
N     0.026793 0.887431 0.887431     N
C     0.043351 0.148605 0.148605     C
C     0.043351 0.148605 0.851396     C
C     0.043351 0.351396 0.351396     C
C     0.043351 0.351396 0.648604     C
C     0.043351 0.648604 0.351396     C
C     0.043351 0.648604 0.648604     C
C     0.043351 0.851396 0.148605     C
C     0.043351 0.851396 0.851396     C
C      0.04743 0.230637 0.230637     C
C      0.04743 0.230637 0.769363     C
C      0.04743 0.269363 0.269363     C
C      0.04743 0.269363 0.730637     C
C      0.04743 0.730637 0.269363     C
C      0.04743 0.730637 0.730637     C
C      0.04743 0.769363 0.230637     C
C      0.04743 0.769363 0.769363     C
Ni    0.057091 0.057091 0.057091    Ni
Ni    0.057091 0.057091 0.942911    Ni
Ni    0.057091 0.442911 0.442911    Ni
Ni    0.057091 0.442911 0.557091    Ni
Ni    0.057091 0.557091 0.442911    Ni
Ni    0.057091 0.557091 0.557091    Ni
Ni    0.057091 0.942911 0.057091    Ni
Ni    0.057091 0.942911 0.942911    Ni
H      0.07895 0.156783 0.156783     H
H      0.07895 0.156783 0.843217     H
H      0.07895 0.343217 0.343217     H
H      0.07895 0.343217 0.656783     H
H      0.07895 0.656783 0.343217     H
H      0.07895 0.656783 0.656783     H
H      0.07895 0.843217 0.156783     H
H      0.07895 0.843217 0.843217     H
H     0.079846 0.217403 0.217403     H
H     0.079846 0.217403 0.782597     H
H     0.079846 0.282597 0.282597     H
H     0.079846 0.282597 0.717403     H
H     0.079846 0.717403 0.282597     H
H     0.079846 0.717403 0.717403     H
H     0.079846 0.782597 0.217403     H
H     0.079846 0.782597 0.782597     H
O     0.086926      0.0      0.0     O
O     0.086926      0.5      0.5     O
N     0.112569 0.026793 0.112569     N
N     0.112569 0.026793 0.887431     N
N     0.112569 0.112569 0.026793     N
N     0.112569 0.112569 0.973207     N
N     0.112569 0.387431 0.473207     N
N     0.112569 0.387431 0.526793     N
N     0.112569 0.473207 0.387431     N
N     0.112569 0.473207 0.612569     N
N     0.112569 0.526793 0.387431     N
N     0.112569 0.526793 0.612569     N
N     0.112569 0.612569 0.473207     N
N     0.112569 0.612569 0.526793     N
N     0.112569 0.887431 0.026793     N
N     0.112569 0.887431 0.973207     N
N     0.112569 0.973207 0.112569     N
N     0.112569 0.973207 0.887431     N
H     0.124357      0.0      0.0     H
H     0.124357      0.5      0.5     H
C     0.148605 0.043351 0.148605     C
C     0.148605 0.043351 0.851396     C
C     0.148605 0.148605 0.043351     C
C     0.148605 0.148605 0.956649     C
C     0.148605 0.351396 0.456649     C
C     0.148605 0.351396 0.543351     C
C     0.148605 0.456649 0.351396     C
C     0.148605 0.456649 0.648604     C
C     0.148605 0.543351 0.351396     C
C     0.148605 0.543351 0.648604     C
C     0.148605 0.648604 0.456649     C
C     0.148605 0.648604 0.543351     C
C     0.148605 0.851396 0.043351     C
C     0.148605 0.851396 0.956649     C
C     0.148605 0.956649 0.148605     C
C     0.148605 0.956649 0.851396     C
H     0.156783  0.07895 0.156783     H
H     0.156783  0.07895 0.843217     H
H     0.156783 0.156783  0.07895     H
H     0.156783 0.156783  0.92105     H
H     0.156783 0.343217  0.42105     H
H     0.156783 0.343217  0.57895     H
H     0.156783  0.42105 0.343217     H
H     0.156783  0.42105 0.656783     H
H     0.156783  0.57895 0.343217     H
H     0.156783  0.57895 0.656783     H
H     0.156783 0.656783  0.42105     H
H     0.156783 0.656783  0.57895     H
H     0.156783 0.843217  0.07895     H
H     0.156783 0.843217  0.92105     H
H     0.156783  0.92105 0.156783     H
H     0.156783  0.92105 0.843217     H
C     0.170876      0.0 0.170876     C
C     0.170876      0.0 0.829124     C
C     0.170876 0.170876      0.0     C
C     0.170876 0.329124      0.5     C
C     0.170876      0.5 0.329124     C
C     0.170876      0.5 0.670876     C
C     0.170876 0.670876      0.5     C
C     0.170876 0.829124      0.0     C
C     0.211274      0.0 0.211274     C
C     0.211274      0.0 0.788726     C
C     0.211274 0.211274      0.0     C
C     0.211274 0.288726      0.5     C
C     0.211274      0.5 0.288726     C
C     0.211274      0.5 0.711274     C
C     0.211274 0.711274      0.5     C
C     0.211274 0.788726      0.0     C
H     0.217403 0.079846 0.217403     H
H     0.217403 0.079846 0.782597     H
H     0.217403 0.217403 0.079846     H
H     0.217403 0.217403 0.920154     H
H     0.217403 0.282597 0.420154     H
H     0.217403 0.282597 0.579846     H
H     0.217403 0.420154 0.282597     H
H     0.217403 0.420154 0.717403     H
H     0.217403 0.579846 0.282597     H
H     0.217403 0.579846 0.717403     H
H     0.217403 0.717403 0.420154     H
H     0.217403 0.717403 0.579846     H
H     0.217403 0.782597 0.079846     H
H     0.217403 0.782597 0.920154     H
H     0.217403 0.920154 0.217403     H
H     0.217403 0.920154 0.782597     H
C     0.230637  0.04743 0.230637     C
C     0.230637  0.04743 0.769363     C
C     0.230637 0.230637  0.04743     C
C     0.230637 0.230637  0.95257     C
C     0.230637 0.269363  0.45257     C
C     0.230637 0.269363  0.54743     C
C     0.230637  0.45257 0.269363     C
C     0.230637  0.45257 0.730637     C
C     0.230637  0.54743 0.269363     C
C     0.230637  0.54743 0.730637     C
C     0.230637 0.730637  0.45257     C
C     0.230637 0.730637  0.54743     C
C     0.230637 0.769363  0.04743     C
C     0.230637 0.769363  0.95257     C
C     0.230637  0.95257 0.230637     C
C     0.230637  0.95257 0.769363     C
C     0.269363  0.04743 0.269363     C
C     0.269363  0.04743 0.730637     C
C     0.269363 0.230637  0.45257     C
C     0.269363 0.230637  0.54743     C
C     0.269363 0.269363  0.04743     C
C     0.269363 0.269363  0.95257     C
C     0.269363  0.45257 0.230637     C
C     0.269363  0.45257 0.769363     C
C     0.269363  0.54743 0.230637     C
C     0.269363  0.54743 0.769363     C
C     0.269363 0.730637  0.04743     C
C     0.269363 0.730637  0.95257     C
C     0.269363 0.769363  0.45257     C
C     0.269363 0.769363  0.54743     C
C     0.269363  0.95257 0.269363     C
C     0.269363  0.95257 0.730637     C
H     0.282597 0.079846 0.282597     H
H     0.282597 0.079846 0.717403     H
H     0.282597 0.217403 0.420154     H
H     0.282597 0.217403 0.579846     H
H     0.282597 0.282597 0.079846     H
H     0.282597 0.282597 0.920154     H
H     0.282597 0.420154 0.217403     H
H     0.282597 0.420154 0.782597     H
H     0.282597 0.579846 0.217403     H
H     0.282597 0.579846 0.782597     H
H     0.282597 0.717403 0.079846     H
H     0.282597 0.717403 0.920154     H
H     0.282597 0.782597 0.420154     H
H     0.282597 0.782597 0.579846     H
H     0.282597 0.920154 0.282597     H
H     0.282597 0.920154 0.717403     H
C     0.288726      0.0 0.288726     C
C     0.288726      0.0 0.711274     C
C     0.288726 0.211274      0.5     C
C     0.288726 0.288726      0.0     C
C     0.288726      0.5 0.211274     C
C     0.288726      0.5 0.788726     C
C     0.288726 0.711274      0.0     C
C     0.288726 0.788726      0.5     C
C     0.329124      0.0 0.329124     C
C     0.329124      0.0 0.670876     C
C     0.329124 0.170876      0.5     C
C     0.329124 0.329124      0.0     C
C     0.329124      0.5 0.170876     C
C     0.329124      0.5 0.829124     C
C     0.329124 0.670876      0.0     C
C     0.329124 0.829124      0.5     C
H     0.343217  0.07895 0.343217     H
H     0.343217  0.07895 0.656783     H
H     0.343217 0.156783  0.42105     H
H     0.343217 0.156783  0.57895     H
H     0.343217 0.343217  0.07895     H
H     0.343217 0.343217  0.92105     H
H     0.343217  0.42105 0.156783     H
H     0.343217  0.42105 0.843217     H
H     0.343217  0.57895 0.156783     H
H     0.343217  0.57895 0.843217     H
H     0.343217 0.656783  0.07895     H
H     0.343217 0.656783  0.92105     H
H     0.343217 0.843217  0.42105     H
H     0.343217 0.843217  0.57895     H
H     0.343217  0.92105 0.343217     H
H     0.343217  0.92105 0.656783     H
C     0.351396 0.043351 0.351396     C
C     0.351396 0.043351 0.648604     C
C     0.351396 0.148605 0.456649     C
C     0.351396 0.148605 0.543351     C
C     0.351396 0.351396 0.043351     C
C     0.351396 0.351396 0.956649     C
C     0.351396 0.456649 0.148605     C
C     0.351396 0.456649 0.851396     C
C     0.351396 0.543351 0.148605     C
C     0.351396 0.543351 0.851396     C
C     0.351396 0.648604 0.043351     C
C     0.351396 0.648604 0.956649     C
C     0.351396 0.851396 0.456649     C
C     0.351396 0.851396 0.543351     C
C     0.351396 0.956649 0.351396     C
C     0.351396 0.956649 0.648604     C
H     0.375643      0.0      0.5     H
H     0.375643      0.5      0.0     H
N     0.387431 0.026793 0.387431     N
N     0.387431 0.026793 0.612569     N
N     0.387431 0.112569 0.473207     N
N     0.387431 0.112569 0.526793     N
N     0.387431 0.387431 0.026793     N
N     0.387431 0.387431 0.973207     N
N     0.387431 0.473207 0.112569     N
N     0.387431 0.473207 0.887431     N
N     0.387431 0.526793 0.112569     N
N     0.387431 0.526793 0.887431     N
N     0.387431 0.612569 0.026793     N
N     0.387431 0.612569 0.973207     N
N     0.387431 0.887431 0.473207     N
N     0.387431 0.887431 0.526793     N
N     0.387431 0.973207 0.387431     N
N     0.387431 0.973207 0.612569     N
O     0.413074      0.0      0.5     O
O     0.413074      0.5      0.0     O
H     0.420154 0.217403 0.282597     H
H     0.420154 0.217403 0.717403     H
H     0.420154 0.282597 0.217403     H
H     0.420154 0.282597 0.782597     H
H     0.420154 0.717403 0.217403     H
H     0.420154 0.717403 0.782597     H
H     0.420154 0.782597 0.282597     H
H     0.420154 0.782597 0.717403     H
H      0.42105 0.156783 0.343217     H
H      0.42105 0.156783 0.656783     H
H      0.42105 0.343217 0.156783     H
H      0.42105 0.343217 0.843217     H
H      0.42105 0.656783 0.156783     H
H      0.42105 0.656783 0.843217     H
H      0.42105 0.843217 0.343217     H
H      0.42105 0.843217 0.656783     H
Ni    0.442911 0.057091 0.442911    Ni
Ni    0.442911 0.057091 0.557091    Ni
Ni    0.442911 0.442911 0.057091    Ni
Ni    0.442911 0.442911 0.942911    Ni
Ni    0.442911 0.557091 0.057091    Ni
Ni    0.442911 0.557091 0.942911    Ni
Ni    0.442911 0.942911 0.442911    Ni
Ni    0.442911 0.942911 0.557091    Ni
C      0.45257 0.230637 0.269363     C
C      0.45257 0.230637 0.730637     C
C      0.45257 0.269363 0.230637     C
C      0.45257 0.269363 0.769363     C
C      0.45257 0.730637 0.230637     C
C      0.45257 0.730637 0.769363     C
C      0.45257 0.769363 0.269363     C
C      0.45257 0.769363 0.730637     C
C     0.456649 0.148605 0.351396     C
C     0.456649 0.148605 0.648604     C
C     0.456649 0.351396 0.148605     C
C     0.456649 0.351396 0.851396     C
C     0.456649 0.648604 0.148605     C
C     0.456649 0.648604 0.851396     C
C     0.456649 0.851396 0.351396     C
C     0.456649 0.851396 0.648604     C
N     0.473207 0.112569 0.387431     N
N     0.473207 0.112569 0.612569     N
N     0.473207 0.387431 0.112569     N
N     0.473207 0.387431 0.887431     N
N     0.473207 0.612569 0.112569     N
N     0.473207 0.612569 0.887431     N
N     0.473207 0.887431 0.387431     N
N     0.473207 0.887431 0.612569     N
H          0.5      0.0 0.375643     H
O          0.5      0.0 0.413074     O
O          0.5      0.0 0.586926     O
H          0.5      0.0 0.624357     H
O          0.5 0.086926      0.5     O
H          0.5 0.124357      0.5     H
C          0.5 0.170876 0.329124     C
C          0.5 0.170876 0.670876     C
C          0.5 0.211274 0.288726     C
C          0.5 0.211274 0.711274     C
C          0.5 0.288726 0.211274     C
C          0.5 0.288726 0.788726     C
C          0.5 0.329124 0.170876     C
C          0.5 0.329124 0.829124     C
H          0.5 0.375643      0.0     H
O          0.5 0.413074      0.0     O
O          0.5      0.5 0.086926     O
H          0.5      0.5 0.124357     H
H          0.5      0.5 0.875643     H
O          0.5      0.5 0.913074     O
O          0.5 0.586926      0.0     O
H          0.5 0.624357      0.0     H
C          0.5 0.670876 0.170876     C
C          0.5 0.670876 0.829124     C
C          0.5 0.711274 0.211274     C
C          0.5 0.711274 0.788726     C
C          0.5 0.788726 0.288726     C
C          0.5 0.788726 0.711274     C
C          0.5 0.829124 0.329124     C
C          0.5 0.829124 0.670876     C
H          0.5 0.875643      0.5     H
O          0.5 0.913074      0.5     O
N     0.526793 0.112569 0.387431     N
N     0.526793 0.112569 0.612569     N
N     0.526793 0.387431 0.112569     N
N     0.526793 0.387431 0.887431     N
N     0.526793 0.612569 0.112569     N
N     0.526793 0.612569 0.887431     N
N     0.526793 0.887431 0.387431     N
N     0.526793 0.887431 0.612569     N
C     0.543351 0.148605 0.351396     C
C     0.543351 0.148605 0.648604     C
C     0.543351 0.351396 0.148605     C
C     0.543351 0.351396 0.851396     C
C     0.543351 0.648604 0.148605     C
C     0.543351 0.648604 0.851396     C
C     0.543351 0.851396 0.351396     C
C     0.543351 0.851396 0.648604     C
C      0.54743 0.230637 0.269363     C
C      0.54743 0.230637 0.730637     C
C      0.54743 0.269363 0.230637     C
C      0.54743 0.269363 0.769363     C
C      0.54743 0.730637 0.230637     C
C      0.54743 0.730637 0.769363     C
C      0.54743 0.769363 0.269363     C
C      0.54743 0.769363 0.730637     C
Ni    0.557091 0.057091 0.442911    Ni
Ni    0.557091 0.057091 0.557091    Ni
Ni    0.557091 0.442911 0.057091    Ni
Ni    0.557091 0.442911 0.942911    Ni
Ni    0.557091 0.557091 0.057091    Ni
Ni    0.557091 0.557091 0.942911    Ni
Ni    0.557091 0.942911 0.442911    Ni
Ni    0.557091 0.942911 0.557091    Ni
H      0.57895 0.156783 0.343217     H
H      0.57895 0.156783 0.656783     H
H      0.57895 0.343217 0.156783     H
H      0.57895 0.343217 0.843217     H
H      0.57895 0.656783 0.156783     H
H      0.57895 0.656783 0.843217     H
H      0.57895 0.843217 0.343217     H
H      0.57895 0.843217 0.656783     H
H     0.579846 0.217403 0.282597     H
H     0.579846 0.217403 0.717403     H
H     0.579846 0.282597 0.217403     H
H     0.579846 0.282597 0.782597     H
H     0.579846 0.717403 0.217403     H
H     0.579846 0.717403 0.782597     H
H     0.579846 0.782597 0.282597     H
H     0.579846 0.782597 0.717403     H
O     0.586926      0.0      0.5     O
O     0.586926      0.5      0.0     O
N     0.612569 0.026793 0.387431     N
N     0.612569 0.026793 0.612569     N
N     0.612569 0.112569 0.473207     N
N     0.612569 0.112569 0.526793     N
N     0.612569 0.387431 0.026793     N
N     0.612569 0.387431 0.973207     N
N     0.612569 0.473207 0.112569     N
N     0.612569 0.473207 0.887431     N
N     0.612569 0.526793 0.112569     N
N     0.612569 0.526793 0.887431     N
N     0.612569 0.612569 0.026793     N
N     0.612569 0.612569 0.973207     N
N     0.612569 0.887431 0.473207     N
N     0.612569 0.887431 0.526793     N
N     0.612569 0.973207 0.387431     N
N     0.612569 0.973207 0.612569     N
H     0.624357      0.0      0.5     H
H     0.624357      0.5      0.0     H
C     0.648604 0.043351 0.351396     C
C     0.648604 0.043351 0.648604     C
C     0.648604 0.148605 0.456649     C
C     0.648604 0.148605 0.543351     C
C     0.648604 0.351396 0.043351     C
C     0.648604 0.351396 0.956649     C
C     0.648604 0.456649 0.148605     C
C     0.648604 0.456649 0.851396     C
C     0.648604 0.543351 0.148605     C
C     0.648604 0.543351 0.851396     C
C     0.648604 0.648604 0.043351     C
C     0.648604 0.648604 0.956649     C
C     0.648604 0.851396 0.456649     C
C     0.648604 0.851396 0.543351     C
C     0.648604 0.956649 0.351396     C
C     0.648604 0.956649 0.648604     C
H     0.656783  0.07895 0.343217     H
H     0.656783  0.07895 0.656783     H
H     0.656783 0.156783  0.42105     H
H     0.656783 0.156783  0.57895     H
H     0.656783 0.343217  0.07895     H
H     0.656783 0.343217  0.92105     H
H     0.656783  0.42105 0.156783     H
H     0.656783  0.42105 0.843217     H
H     0.656783  0.57895 0.156783     H
H     0.656783  0.57895 0.843217     H
H     0.656783 0.656783  0.07895     H
H     0.656783 0.656783  0.92105     H
H     0.656783 0.843217  0.42105     H
H     0.656783 0.843217  0.57895     H
H     0.656783  0.92105 0.343217     H
H     0.656783  0.92105 0.656783     H
C     0.670876      0.0 0.329124     C
C     0.670876      0.0 0.670876     C
C     0.670876 0.170876      0.5     C
C     0.670876 0.329124      0.0     C
C     0.670876      0.5 0.170876     C
C     0.670876      0.5 0.829124     C
C     0.670876 0.670876      0.0     C
C     0.670876 0.829124      0.5     C
C     0.711274      0.0 0.288726     C
C     0.711274      0.0 0.711274     C
C     0.711274 0.211274      0.5     C
C     0.711274 0.288726      0.0     C
C     0.711274      0.5 0.211274     C
C     0.711274      0.5 0.788726     C
C     0.711274 0.711274      0.0     C
C     0.711274 0.788726      0.5     C
H     0.717403 0.079846 0.282597     H
H     0.717403 0.079846 0.717403     H
H     0.717403 0.217403 0.420154     H
H     0.717403 0.217403 0.579846     H
H     0.717403 0.282597 0.079846     H
H     0.717403 0.282597 0.920154     H
H     0.717403 0.420154 0.217403     H
H     0.717403 0.420154 0.782597     H
H     0.717403 0.579846 0.217403     H
H     0.717403 0.579846 0.782597     H
H     0.717403 0.717403 0.079846     H
H     0.717403 0.717403 0.920154     H
H     0.717403 0.782597 0.420154     H
H     0.717403 0.782597 0.579846     H
H     0.717403 0.920154 0.282597     H
H     0.717403 0.920154 0.717403     H
C     0.730637  0.04743 0.269363     C
C     0.730637  0.04743 0.730637     C
C     0.730637 0.230637  0.45257     C
C     0.730637 0.230637  0.54743     C
C     0.730637 0.269363  0.04743     C
C     0.730637 0.269363  0.95257     C
C     0.730637  0.45257 0.230637     C
C     0.730637  0.45257 0.769363     C
C     0.730637  0.54743 0.230637     C
C     0.730637  0.54743 0.769363     C
C     0.730637 0.730637  0.04743     C
C     0.730637 0.730637  0.95257     C
C     0.730637 0.769363  0.45257     C
C     0.730637 0.769363  0.54743     C
C     0.730637  0.95257 0.269363     C
C     0.730637  0.95257 0.730637     C
C     0.769363  0.04743 0.230637     C
C     0.769363  0.04743 0.769363     C
C     0.769363 0.230637  0.04743     C
C     0.769363 0.230637  0.95257     C
C     0.769363 0.269363  0.45257     C
C     0.769363 0.269363  0.54743     C
C     0.769363  0.45257 0.269363     C
C     0.769363  0.45257 0.730637     C
C     0.769363  0.54743 0.269363     C
C     0.769363  0.54743 0.730637     C
C     0.769363 0.730637  0.45257     C
C     0.769363 0.730637  0.54743     C
C     0.769363 0.769363  0.04743     C
C     0.769363 0.769363  0.95257     C
C     0.769363  0.95257 0.230637     C
C     0.769363  0.95257 0.769363     C
H     0.782597 0.079846 0.217403     H
H     0.782597 0.079846 0.782597     H
H     0.782597 0.217403 0.079846     H
H     0.782597 0.217403 0.920154     H
H     0.782597 0.282597 0.420154     H
H     0.782597 0.282597 0.579846     H
H     0.782597 0.420154 0.282597     H
H     0.782597 0.420154 0.717403     H
H     0.782597 0.579846 0.282597     H
H     0.782597 0.579846 0.717403     H
H     0.782597 0.717403 0.420154     H
H     0.782597 0.717403 0.579846     H
H     0.782597 0.782597 0.079846     H
H     0.782597 0.782597 0.920154     H
H     0.782597 0.920154 0.217403     H
H     0.782597 0.920154 0.782597     H
C     0.788726      0.0 0.211274     C
C     0.788726      0.0 0.788726     C
C     0.788726 0.211274      0.0     C
C     0.788726 0.288726      0.5     C
C     0.788726      0.5 0.288726     C
C     0.788726      0.5 0.711274     C
C     0.788726 0.711274      0.5     C
C     0.788726 0.788726      0.0     C
C     0.829124      0.0 0.170876     C
C     0.829124      0.0 0.829124     C
C     0.829124 0.170876      0.0     C
C     0.829124 0.329124      0.5     C
C     0.829124      0.5 0.329124     C
C     0.829124      0.5 0.670876     C
C     0.829124 0.670876      0.5     C
C     0.829124 0.829124      0.0     C
H     0.843217  0.07895 0.156783     H
H     0.843217  0.07895 0.843217     H
H     0.843217 0.156783  0.07895     H
H     0.843217 0.156783  0.92105     H
H     0.843217 0.343217  0.42105     H
H     0.843217 0.343217  0.57895     H
H     0.843217  0.42105 0.343217     H
H     0.843217  0.42105 0.656783     H
H     0.843217  0.57895 0.343217     H
H     0.843217  0.57895 0.656783     H
H     0.843217 0.656783  0.42105     H
H     0.843217 0.656783  0.57895     H
H     0.843217 0.843217  0.07895     H
H     0.843217 0.843217  0.92105     H
H     0.843217  0.92105 0.156783     H
H     0.843217  0.92105 0.843217     H
C     0.851396 0.043351 0.148605     C
C     0.851396 0.043351 0.851396     C
C     0.851396 0.148605 0.043351     C
C     0.851396 0.148605 0.956649     C
C     0.851396 0.351396 0.456649     C
C     0.851396 0.351396 0.543351     C
C     0.851396 0.456649 0.351396     C
C     0.851396 0.456649 0.648604     C
C     0.851396 0.543351 0.351396     C
C     0.851396 0.543351 0.648604     C
C     0.851396 0.648604 0.456649     C
C     0.851396 0.648604 0.543351     C
C     0.851396 0.851396 0.043351     C
C     0.851396 0.851396 0.956649     C
C     0.851396 0.956649 0.148605     C
C     0.851396 0.956649 0.851396     C
H     0.875643      0.0      0.0     H
H     0.875643      0.5      0.5     H
N     0.887431 0.026793 0.112569     N
N     0.887431 0.026793 0.887431     N
N     0.887431 0.112569 0.026793     N
N     0.887431 0.112569 0.973207     N
N     0.887431 0.387431 0.473207     N
N     0.887431 0.387431 0.526793     N
N     0.887431 0.473207 0.387431     N
N     0.887431 0.473207 0.612569     N
N     0.887431 0.526793 0.387431     N
N     0.887431 0.526793 0.612569     N
N     0.887431 0.612569 0.473207     N
N     0.887431 0.612569 0.526793     N
N     0.887431 0.887431 0.026793     N
N     0.887431 0.887431 0.973207     N
N     0.887431 0.973207 0.112569     N
N     0.887431 0.973207 0.887431     N
O     0.913074      0.0      0.0     O
O     0.913074      0.5      0.5     O
H     0.920154 0.217403 0.217403     H
H     0.920154 0.217403 0.782597     H
H     0.920154 0.282597 0.282597     H
H     0.920154 0.282597 0.717403     H
H     0.920154 0.717403 0.282597     H
H     0.920154 0.717403 0.717403     H
H     0.920154 0.782597 0.217403     H
H     0.920154 0.782597 0.782597     H
H      0.92105 0.156783 0.156783     H
H      0.92105 0.156783 0.843217     H
H      0.92105 0.343217 0.343217     H
H      0.92105 0.343217 0.656783     H
H      0.92105 0.656783 0.343217     H
H      0.92105 0.656783 0.656783     H
H      0.92105 0.843217 0.156783     H
H      0.92105 0.843217 0.843217     H
Ni    0.942911 0.057091 0.057091    Ni
Ni    0.942911 0.057091 0.942911    Ni
Ni    0.942911 0.442911 0.442911    Ni
Ni    0.942911 0.442911 0.557091    Ni
Ni    0.942911 0.557091 0.442911    Ni
Ni    0.942911 0.557091 0.557091    Ni
Ni    0.942911 0.942911 0.057091    Ni
Ni    0.942911 0.942911 0.942911    Ni
C      0.95257 0.230637 0.230637     C
C      0.95257 0.230637 0.769363     C
C      0.95257 0.269363 0.269363     C
C      0.95257 0.269363 0.730637     C
C      0.95257 0.730637 0.269363     C
C      0.95257 0.730637 0.730637     C
C      0.95257 0.769363 0.230637     C
C      0.95257 0.769363 0.769363     C
C     0.956649 0.148605 0.148605     C
C     0.956649 0.148605 0.851396     C
C     0.956649 0.351396 0.351396     C
C     0.956649 0.351396 0.648604     C
C     0.956649 0.648604 0.351396     C
C     0.956649 0.648604 0.648604     C
C     0.956649 0.851396 0.148605     C
C     0.956649 0.851396 0.851396     C
N     0.973207 0.112569 0.112569     N
N     0.973207 0.112569 0.887431     N
N     0.973207 0.387431 0.387431     N
N     0.973207 0.387431 0.612569     N
N     0.973207 0.612569 0.387431     N
N     0.973207 0.612569 0.612569     N
N     0.973207 0.887431 0.112569     N
N     0.973207 0.887431 0.887431     N
