data_I
_chemical_name_common  '/home/zhangsd/repos/MofS-CGCNN/ML/data/WS24/clean_cifs/Ni8_OH_4_H2O_2_L10_6'
_cell_length_a 32.46220
_cell_length_b 32.46220
_cell_length_c 32.46220
_cell_angle_alpha 90.00000
_cell_angle_beta  90.00000
_cell_angle_gamma 90.00000
_space_group_name_H-M_alt      'P 1'


loop_
_space_group_symop_operation_xyz
  'x, y, z' 

loop_
_atom_site_label
_atom_site_fract_x
_atom_site_fract_y
_atom_site_fract_z
_atom_site_type_symbol
O          0.0      0.0 0.064159     O
H          0.0      0.0 0.093425     H
H          0.0      0.0 0.906575     H
O          0.0      0.0 0.935841     O
O          0.0 0.064159      0.0     O
H          0.0 0.093425      0.0     H
C          0.0 0.127363 0.127363     C
C          0.0 0.127363 0.872637     C
C          0.0 0.160037 0.160037     C
C          0.0 0.160037 0.839963     C
C          0.0 0.187048 0.187048     C
C          0.0 0.187048 0.812952     C
C          0.0 0.219722 0.219722     C
C          0.0 0.219722 0.780278     C
C          0.0 0.280278 0.280278     C
C          0.0 0.280278 0.719722     C
C          0.0 0.312952 0.312952     C
C          0.0 0.312952 0.687048     C
C          0.0 0.339963 0.339963     C
C          0.0 0.339963 0.660037     C
C          0.0 0.372637 0.372637     C
C          0.0 0.372637 0.627363     C
H          0.0 0.406575      0.5     H
O          0.0 0.435841      0.5     O
H          0.0      0.5 0.406575     H
O          0.0      0.5 0.435841     O
O          0.0      0.5 0.564159     O
H          0.0      0.5 0.593425     H
O          0.0 0.564159      0.5     O
H          0.0 0.593425      0.5     H
C          0.0 0.627363 0.372637     C
C          0.0 0.627363 0.627363     C
C          0.0 0.660037 0.339963     C
C          0.0 0.660037 0.660037     C
C          0.0 0.687048 0.312952     C
C          0.0 0.687048 0.687048     C
C          0.0 0.719722 0.280278     C
C          0.0 0.719722 0.719722     C
C          0.0 0.780278 0.219722     C
C          0.0 0.780278 0.780278     C
C          0.0 0.812952 0.187048     C
C          0.0 0.812952 0.812952     C
C          0.0 0.839963 0.160037     C
C          0.0 0.839963 0.839963     C
C          0.0 0.872637 0.127363     C
C          0.0 0.872637 0.872637     C
H          0.0 0.906575      0.0     H
O          0.0 0.935841      0.0     O
N     0.020948 0.081775 0.081775     N
N     0.020948 0.081775 0.918225     N
N     0.020948 0.418225 0.418225     N
N     0.020948 0.418225 0.581775     N
N     0.020948 0.581775 0.418225     N
N     0.020948 0.581775 0.581775     N
N     0.020948 0.918225 0.081775     N
N     0.020948 0.918225 0.918225     N
C     0.033894  0.10995  0.10995     C
C     0.033894  0.10995  0.89005     C
C     0.033894  0.39005  0.39005     C
C     0.033894  0.39005  0.60995     C
C     0.033894  0.60995  0.39005     C
C     0.033894  0.60995  0.60995     C
C     0.033894  0.89005  0.10995     C
C     0.033894  0.89005  0.89005     C
C     0.037083 0.234861 0.234861     C
C     0.037083 0.234861 0.765139     C
C     0.037083 0.265139 0.265139     C
C     0.037083 0.265139 0.734861     C
C     0.037083 0.734861 0.265139     C
C     0.037083 0.734861 0.734861     C
C     0.037083 0.765139 0.234861     C
C     0.037083 0.765139 0.765139     C
Ni     0.04242  0.04242  0.04242    Ni
Ni     0.04242  0.04242  0.95762    Ni
Ni     0.04242  0.45762  0.45762    Ni
Ni     0.04242  0.45762  0.54242    Ni
Ni     0.04242  0.54242  0.45762    Ni
Ni     0.04242  0.54242  0.54242    Ni
Ni     0.04242  0.95762  0.04242    Ni
Ni     0.04242  0.95762  0.95762    Ni
H     0.061727 0.116344 0.116344     H
H     0.061727 0.116344 0.883656     H
H     0.061727 0.383656 0.383656     H
H     0.061727 0.383656 0.616344     H
H     0.061727 0.616344 0.383656     H
H     0.061727 0.616344 0.616344     H
H     0.061727 0.883656 0.116344     H
H     0.061727 0.883656 0.883656     H
H     0.062428 0.224514 0.224514     H
H     0.062428 0.224514 0.775486     H
H     0.062428 0.275486 0.275486     H
H     0.062428 0.275486 0.724514     H
H     0.062428 0.724514 0.275486     H
H     0.062428 0.724514 0.724514     H
H     0.062428 0.775486 0.224514     H
H     0.062428 0.775486 0.775486     H
O     0.064159      0.0      0.0     O
O     0.064159      0.5      0.5     O
N     0.081775 0.020948 0.081775     N
N     0.081775 0.020948 0.918225     N
N     0.081775 0.081775 0.020948     N
N     0.081775 0.081775 0.979052     N
N     0.081775 0.418225 0.479052     N
N     0.081775 0.418225 0.520948     N
N     0.081775 0.479052 0.418225     N
N     0.081775 0.479052 0.581775     N
N     0.081775 0.520948 0.418225     N
N     0.081775 0.520948 0.581775     N
N     0.081775 0.581775 0.479052     N
N     0.081775 0.581775 0.520948     N
N     0.081775 0.918225 0.020948     N
N     0.081775 0.918225 0.979052     N
N     0.081775 0.979052 0.081775     N
N     0.081775 0.979052 0.918225     N
H     0.093425      0.0      0.0     H
H     0.093425      0.5      0.5     H
C      0.10995 0.033894  0.10995     C
C      0.10995 0.033894  0.89005     C
C      0.10995  0.10995 0.033894     C
C      0.10995  0.10995 0.966106     C
C      0.10995  0.39005 0.466106     C
C      0.10995  0.39005 0.533894     C
C      0.10995 0.466106  0.39005     C
C      0.10995 0.466106  0.60995     C
C      0.10995 0.533894  0.39005     C
C      0.10995 0.533894  0.60995     C
C      0.10995  0.60995 0.466106     C
C      0.10995  0.60995 0.533894     C
C      0.10995  0.89005 0.033894     C
C      0.10995  0.89005 0.966106     C
C      0.10995 0.966106  0.10995     C
C      0.10995 0.966106  0.89005     C
H     0.116344 0.061727 0.116344     H
H     0.116344 0.061727 0.883656     H
H     0.116344 0.116344 0.061727     H
H     0.116344 0.116344 0.938273     H
H     0.116344 0.383656 0.438273     H
H     0.116344 0.383656 0.561727     H
H     0.116344 0.438273 0.383656     H
H     0.116344 0.438273 0.616344     H
H     0.116344 0.561727 0.383656     H
H     0.116344 0.561727 0.616344     H
H     0.116344 0.616344 0.438273     H
H     0.116344 0.616344 0.561727     H
H     0.116344 0.883656 0.061727     H
H     0.116344 0.883656 0.938273     H
H     0.116344 0.938273 0.116344     H
H     0.116344 0.938273 0.883656     H
C     0.127363      0.0 0.127363     C
C     0.127363      0.0 0.872637     C
C     0.127363 0.127363      0.0     C
C     0.127363 0.372637      0.5     C
C     0.127363      0.5 0.372637     C
C     0.127363      0.5 0.627363     C
C     0.127363 0.627363      0.5     C
C     0.127363 0.872637      0.0     C
C     0.160037      0.0 0.160037     C
C     0.160037      0.0 0.839963     C
C     0.160037 0.160037      0.0     C
C     0.160037 0.339963      0.5     C
C     0.160037      0.5 0.339963     C
C     0.160037      0.5 0.660037     C
C     0.160037 0.660037      0.5     C
C     0.160037 0.839963      0.0     C
C     0.187048      0.0 0.187048     C
C     0.187048      0.0 0.812952     C
C     0.187048 0.187048      0.0     C
C     0.187048 0.312952      0.5     C
C     0.187048      0.5 0.312952     C
C     0.187048      0.5 0.687048     C
C     0.187048 0.687048      0.5     C
C     0.187048 0.812952      0.0     C
C     0.219722      0.0 0.219722     C
C     0.219722      0.0 0.780278     C
C     0.219722 0.219722      0.0     C
C     0.219722 0.280278      0.5     C
C     0.219722      0.5 0.280278     C
C     0.219722      0.5 0.719722     C
C     0.219722 0.719722      0.5     C
C     0.219722 0.780278      0.0     C
H     0.224514 0.062428 0.224514     H
H     0.224514 0.062428 0.775486     H
H     0.224514 0.224514 0.062428     H
H     0.224514 0.224514 0.937572     H
H     0.224514 0.275486 0.437573     H
H     0.224514 0.275486 0.562428     H
H     0.224514 0.437573 0.275486     H
H     0.224514 0.437573 0.724514     H
H     0.224514 0.562428 0.275486     H
H     0.224514 0.562428 0.724514     H
H     0.224514 0.724514 0.437573     H
H     0.224514 0.724514 0.562428     H
H     0.224514 0.775486 0.062428     H
H     0.224514 0.775486 0.937572     H
H     0.224514 0.937572 0.224514     H
H     0.224514 0.937572 0.775486     H
C     0.234861 0.037083 0.234861     C
C     0.234861 0.037083 0.765139     C
C     0.234861 0.234861 0.037083     C
C     0.234861 0.234861 0.962917     C
C     0.234861 0.265139 0.462917     C
C     0.234861 0.265139 0.537083     C
C     0.234861 0.462917 0.265139     C
C     0.234861 0.462917 0.734861     C
C     0.234861 0.537083 0.265139     C
C     0.234861 0.537083 0.734861     C
C     0.234861 0.734861 0.462917     C
C     0.234861 0.734861 0.537083     C
C     0.234861 0.765139 0.037083     C
C     0.234861 0.765139 0.962917     C
C     0.234861 0.962917 0.234861     C
C     0.234861 0.962917 0.765139     C
C     0.265139 0.037083 0.265139     C
C     0.265139 0.037083 0.734861     C
C     0.265139 0.234861 0.462917     C
C     0.265139 0.234861 0.537083     C
C     0.265139 0.265139 0.037083     C
C     0.265139 0.265139 0.962917     C
C     0.265139 0.462917 0.234861     C
C     0.265139 0.462917 0.765139     C
C     0.265139 0.537083 0.234861     C
C     0.265139 0.537083 0.765139     C
C     0.265139 0.734861 0.037083     C
C     0.265139 0.734861 0.962917     C
C     0.265139 0.765139 0.462917     C
C     0.265139 0.765139 0.537083     C
C     0.265139 0.962917 0.265139     C
C     0.265139 0.962917 0.734861     C
H     0.275486 0.062428 0.275486     H
H     0.275486 0.062428 0.724514     H
H     0.275486 0.224514 0.437573     H
H     0.275486 0.224514 0.562428     H
H     0.275486 0.275486 0.062428     H
H     0.275486 0.275486 0.937572     H
H     0.275486 0.437573 0.224514     H
H     0.275486 0.437573 0.775486     H
H     0.275486 0.562428 0.224514     H
H     0.275486 0.562428 0.775486     H
H     0.275486 0.724514 0.062428     H
H     0.275486 0.724514 0.937572     H
H     0.275486 0.775486 0.437573     H
H     0.275486 0.775486 0.562428     H
H     0.275486 0.937572 0.275486     H
H     0.275486 0.937572 0.724514     H
C     0.280278      0.0 0.280278     C
C     0.280278      0.0 0.719722     C
C     0.280278 0.219722      0.5     C
C     0.280278 0.280278      0.0     C
C     0.280278      0.5 0.219722     C
C     0.280278      0.5 0.780278     C
C     0.280278 0.719722      0.0     C
C     0.280278 0.780278      0.5     C
C     0.312952      0.0 0.312952     C
C     0.312952      0.0 0.687048     C
C     0.312952 0.187048      0.5     C
C     0.312952 0.312952      0.0     C
C     0.312952      0.5 0.187048     C
C     0.312952      0.5 0.812952     C
C     0.312952 0.687048      0.0     C
C     0.312952 0.812952      0.5     C
C     0.339963      0.0 0.339963     C
C     0.339963      0.0 0.660037     C
C     0.339963 0.160037      0.5     C
C     0.339963 0.339963      0.0     C
C     0.339963      0.5 0.160037     C
C     0.339963      0.5 0.839963     C
C     0.339963 0.660037      0.0     C
C     0.339963 0.839963      0.5     C
C     0.372637      0.0 0.372637     C
C     0.372637      0.0 0.627363     C
C     0.372637 0.127363      0.5     C
C     0.372637 0.372637      0.0     C
C     0.372637      0.5 0.127363     C
C     0.372637      0.5 0.872637     C
C     0.372637 0.627363      0.0     C
C     0.372637 0.872637      0.5     C
H     0.383656 0.061727 0.383656     H
H     0.383656 0.061727 0.616344     H
H     0.383656 0.116344 0.438273     H
H     0.383656 0.116344 0.561727     H
H     0.383656 0.383656 0.061727     H
H     0.383656 0.383656 0.938273     H
H     0.383656 0.438273 0.116344     H
H     0.383656 0.438273 0.883656     H
H     0.383656 0.561727 0.116344     H
H     0.383656 0.561727 0.883656     H
H     0.383656 0.616344 0.061727     H
H     0.383656 0.616344 0.938273     H
H     0.383656 0.883656 0.438273     H
H     0.383656 0.883656 0.561727     H
H     0.383656 0.938273 0.383656     H
H     0.383656 0.938273 0.616344     H
C      0.39005 0.033894  0.39005     C
C      0.39005 0.033894  0.60995     C
C      0.39005  0.10995 0.466106     C
C      0.39005  0.10995 0.533894     C
C      0.39005  0.39005 0.033894     C
C      0.39005  0.39005 0.966106     C
C      0.39005 0.466106  0.10995     C
C      0.39005 0.466106  0.89005     C
C      0.39005 0.533894  0.10995     C
C      0.39005 0.533894  0.89005     C
C      0.39005  0.60995 0.033894     C
C      0.39005  0.60995 0.966106     C
C      0.39005  0.89005 0.466106     C
C      0.39005  0.89005 0.533894     C
C      0.39005 0.966106  0.39005     C
C      0.39005 0.966106  0.60995     C
H     0.406575      0.0      0.5     H
H     0.406575      0.5      0.0     H
N     0.418225 0.020948 0.418225     N
N     0.418225 0.020948 0.581775     N
N     0.418225 0.081775 0.479052     N
N     0.418225 0.081775 0.520948     N
N     0.418225 0.418225 0.020948     N
N     0.418225 0.418225 0.979052     N
N     0.418225 0.479052 0.081775     N
N     0.418225 0.479052 0.918225     N
N     0.418225 0.520948 0.081775     N
N     0.418225 0.520948 0.918225     N
N     0.418225 0.581775 0.020948     N
N     0.418225 0.581775 0.979052     N
N     0.418225 0.918225 0.479052     N
N     0.418225 0.918225 0.520948     N
N     0.418225 0.979052 0.418225     N
N     0.418225 0.979052 0.581775     N
O     0.435841      0.0      0.5     O
O     0.435841      0.5      0.0     O
H     0.437573 0.224514 0.275486     H
H     0.437573 0.224514 0.724514     H
H     0.437573 0.275486 0.224514     H
H     0.437573 0.275486 0.775486     H
H     0.437573 0.724514 0.224514     H
H     0.437573 0.724514 0.775486     H
H     0.437573 0.775486 0.275486     H
H     0.437573 0.775486 0.724514     H
H     0.438273 0.116344 0.383656     H
H     0.438273 0.116344 0.616344     H
H     0.438273 0.383656 0.116344     H
H     0.438273 0.383656 0.883656     H
H     0.438273 0.616344 0.116344     H
H     0.438273 0.616344 0.883656     H
H     0.438273 0.883656 0.383656     H
H     0.438273 0.883656 0.616344     H
Ni     0.45762  0.04242  0.45762    Ni
Ni     0.45762  0.04242  0.54242    Ni
Ni     0.45762  0.45762  0.04242    Ni
Ni     0.45762  0.45762  0.95762    Ni
Ni     0.45762  0.54242  0.04242    Ni
Ni     0.45762  0.54242  0.95762    Ni
Ni     0.45762  0.95762  0.45762    Ni
Ni     0.45762  0.95762  0.54242    Ni
C     0.462917 0.234861 0.265139     C
C     0.462917 0.234861 0.734861     C
C     0.462917 0.265139 0.234861     C
C     0.462917 0.265139 0.765139     C
C     0.462917 0.734861 0.234861     C
C     0.462917 0.734861 0.765139     C
C     0.462917 0.765139 0.265139     C
C     0.462917 0.765139 0.734861     C
C     0.466106  0.10995  0.39005     C
C     0.466106  0.10995  0.60995     C
C     0.466106  0.39005  0.10995     C
C     0.466106  0.39005  0.89005     C
C     0.466106  0.60995  0.10995     C
C     0.466106  0.60995  0.89005     C
C     0.466106  0.89005  0.39005     C
C     0.466106  0.89005  0.60995     C
N     0.479052 0.081775 0.418225     N
N     0.479052 0.081775 0.581775     N
N     0.479052 0.418225 0.081775     N
N     0.479052 0.418225 0.918225     N
N     0.479052 0.581775 0.081775     N
N     0.479052 0.581775 0.918225     N
N     0.479052 0.918225 0.418225     N
N     0.479052 0.918225 0.581775     N
H          0.5      0.0 0.406575     H
O          0.5      0.0 0.435841     O
O          0.5      0.0 0.564159     O
H          0.5      0.0 0.593425     H
O          0.5 0.064159      0.5     O
H          0.5 0.093425      0.5     H
C          0.5 0.127363 0.372637     C
C          0.5 0.127363 0.627363     C
C          0.5 0.160037 0.339963     C
C          0.5 0.160037 0.660037     C
C          0.5 0.187048 0.312952     C
C          0.5 0.187048 0.687048     C
C          0.5 0.219722 0.280278     C
C          0.5 0.219722 0.719722     C
C          0.5 0.280278 0.219722     C
C          0.5 0.280278 0.780278     C
C          0.5 0.312952 0.187048     C
C          0.5 0.312952 0.812952     C
C          0.5 0.339963 0.160037     C
C          0.5 0.339963 0.839963     C
C          0.5 0.372637 0.127363     C
C          0.5 0.372637 0.872637     C
H          0.5 0.406575      0.0     H
O          0.5 0.435841      0.0     O
O          0.5      0.5 0.064159     O
H          0.5      0.5 0.093425     H
H          0.5      0.5 0.906575     H
O          0.5      0.5 0.935841     O
O          0.5 0.564159      0.0     O
H          0.5 0.593425      0.0     H
C          0.5 0.627363 0.127363     C
C          0.5 0.627363 0.872637     C
C          0.5 0.660037 0.160037     C
C          0.5 0.660037 0.839963     C
C          0.5 0.687048 0.187048     C
C          0.5 0.687048 0.812952     C
C          0.5 0.719722 0.219722     C
C          0.5 0.719722 0.780278     C
C          0.5 0.780278 0.280278     C
C          0.5 0.780278 0.719722     C
C          0.5 0.812952 0.312952     C
C          0.5 0.812952 0.687048     C
C          0.5 0.839963 0.339963     C
C          0.5 0.839963 0.660037     C
C          0.5 0.872637 0.372637     C
C          0.5 0.872637 0.627363     C
H          0.5 0.906575      0.5     H
O          0.5 0.935841      0.5     O
N     0.520948 0.081775 0.418225     N
N     0.520948 0.081775 0.581775     N
N     0.520948 0.418225 0.081775     N
N     0.520948 0.418225 0.918225     N
N     0.520948 0.581775 0.081775     N
N     0.520948 0.581775 0.918225     N
N     0.520948 0.918225 0.418225     N
N     0.520948 0.918225 0.581775     N
C     0.533894  0.10995  0.39005     C
C     0.533894  0.10995  0.60995     C
C     0.533894  0.39005  0.10995     C
C     0.533894  0.39005  0.89005     C
C     0.533894  0.60995  0.10995     C
C     0.533894  0.60995  0.89005     C
C     0.533894  0.89005  0.39005     C
C     0.533894  0.89005  0.60995     C
C     0.537083 0.234861 0.265139     C
C     0.537083 0.234861 0.734861     C
C     0.537083 0.265139 0.234861     C
C     0.537083 0.265139 0.765139     C
C     0.537083 0.734861 0.234861     C
C     0.537083 0.734861 0.765139     C
C     0.537083 0.765139 0.265139     C
C     0.537083 0.765139 0.734861     C
Ni     0.54242  0.04242  0.45762    Ni
Ni     0.54242  0.04242  0.54242    Ni
Ni     0.54242  0.45762  0.04242    Ni
Ni     0.54242  0.45762  0.95762    Ni
Ni     0.54242  0.54242  0.04242    Ni
Ni     0.54242  0.54242  0.95762    Ni
Ni     0.54242  0.95762  0.45762    Ni
Ni     0.54242  0.95762  0.54242    Ni
H     0.561727 0.116344 0.383656     H
H     0.561727 0.116344 0.616344     H
H     0.561727 0.383656 0.116344     H
H     0.561727 0.383656 0.883656     H
H     0.561727 0.616344 0.116344     H
H     0.561727 0.616344 0.883656     H
H     0.561727 0.883656 0.383656     H
H     0.561727 0.883656 0.616344     H
H     0.562428 0.224514 0.275486     H
H     0.562428 0.224514 0.724514     H
H     0.562428 0.275486 0.224514     H
H     0.562428 0.275486 0.775486     H
H     0.562428 0.724514 0.224514     H
H     0.562428 0.724514 0.775486     H
H     0.562428 0.775486 0.275486     H
H     0.562428 0.775486 0.724514     H
O     0.564159      0.0      0.5     O
O     0.564159      0.5      0.0     O
N     0.581775 0.020948 0.418225     N
N     0.581775 0.020948 0.581775     N
N     0.581775 0.081775 0.479052     N
N     0.581775 0.081775 0.520948     N
N     0.581775 0.418225 0.020948     N
N     0.581775 0.418225 0.979052     N
N     0.581775 0.479052 0.081775     N
N     0.581775 0.479052 0.918225     N
N     0.581775 0.520948 0.081775     N
N     0.581775 0.520948 0.918225     N
N     0.581775 0.581775 0.020948     N
N     0.581775 0.581775 0.979052     N
N     0.581775 0.918225 0.479052     N
N     0.581775 0.918225 0.520948     N
N     0.581775 0.979052 0.418225     N
N     0.581775 0.979052 0.581775     N
H     0.593425      0.0      0.5     H
H     0.593425      0.5      0.0     H
C      0.60995 0.033894  0.39005     C
C      0.60995 0.033894  0.60995     C
C      0.60995  0.10995 0.466106     C
C      0.60995  0.10995 0.533894     C
C      0.60995  0.39005 0.033894     C
C      0.60995  0.39005 0.966106     C
C      0.60995 0.466106  0.10995     C
C      0.60995 0.466106  0.89005     C
C      0.60995 0.533894  0.10995     C
C      0.60995 0.533894  0.89005     C
C      0.60995  0.60995 0.033894     C
C      0.60995  0.60995 0.966106     C
C      0.60995  0.89005 0.466106     C
C      0.60995  0.89005 0.533894     C
C      0.60995 0.966106  0.39005     C
C      0.60995 0.966106  0.60995     C
H     0.616344 0.061727 0.383656     H
H     0.616344 0.061727 0.616344     H
H     0.616344 0.116344 0.438273     H
H     0.616344 0.116344 0.561727     H
H     0.616344 0.383656 0.061727     H
H     0.616344 0.383656 0.938273     H
H     0.616344 0.438273 0.116344     H
H     0.616344 0.438273 0.883656     H
H     0.616344 0.561727 0.116344     H
H     0.616344 0.561727 0.883656     H
H     0.616344 0.616344 0.061727     H
H     0.616344 0.616344 0.938273     H
H     0.616344 0.883656 0.438273     H
H     0.616344 0.883656 0.561727     H
H     0.616344 0.938273 0.383656     H
H     0.616344 0.938273 0.616344     H
C     0.627363      0.0 0.372637     C
C     0.627363      0.0 0.627363     C
C     0.627363 0.127363      0.5     C
C     0.627363 0.372637      0.0     C
C     0.627363      0.5 0.127363     C
C     0.627363      0.5 0.872637     C
C     0.627363 0.627363      0.0     C
C     0.627363 0.872637      0.5     C
C     0.660037      0.0 0.339963     C
C     0.660037      0.0 0.660037     C
C     0.660037 0.160037      0.5     C
C     0.660037 0.339963      0.0     C
C     0.660037      0.5 0.160037     C
C     0.660037      0.5 0.839963     C
C     0.660037 0.660037      0.0     C
C     0.660037 0.839963      0.5     C
C     0.687048      0.0 0.312952     C
C     0.687048      0.0 0.687048     C
C     0.687048 0.187048      0.5     C
C     0.687048 0.312952      0.0     C
C     0.687048      0.5 0.187048     C
C     0.687048      0.5 0.812952     C
C     0.687048 0.687048      0.0     C
C     0.687048 0.812952      0.5     C
C     0.719722      0.0 0.280278     C
C     0.719722      0.0 0.719722     C
C     0.719722 0.219722      0.5     C
C     0.719722 0.280278      0.0     C
C     0.719722      0.5 0.219722     C
C     0.719722      0.5 0.780278     C
C     0.719722 0.719722      0.0     C
C     0.719722 0.780278      0.5     C
H     0.724514 0.062428 0.275486     H
H     0.724514 0.062428 0.724514     H
H     0.724514 0.224514 0.437573     H
H     0.724514 0.224514 0.562428     H
H     0.724514 0.275486 0.062428     H
H     0.724514 0.275486 0.937572     H
H     0.724514 0.437573 0.224514     H
H     0.724514 0.437573 0.775486     H
H     0.724514 0.562428 0.224514     H
H     0.724514 0.562428 0.775486     H
H     0.724514 0.724514 0.062428     H
H     0.724514 0.724514 0.937572     H
H     0.724514 0.775486 0.437573     H
H     0.724514 0.775486 0.562428     H
H     0.724514 0.937572 0.275486     H
H     0.724514 0.937572 0.724514     H
C     0.734861 0.037083 0.265139     C
C     0.734861 0.037083 0.734861     C
C     0.734861 0.234861 0.462917     C
C     0.734861 0.234861 0.537083     C
C     0.734861 0.265139 0.037083     C
C     0.734861 0.265139 0.962917     C
C     0.734861 0.462917 0.234861     C
C     0.734861 0.462917 0.765139     C
C     0.734861 0.537083 0.234861     C
C     0.734861 0.537083 0.765139     C
C     0.734861 0.734861 0.037083     C
C     0.734861 0.734861 0.962917     C
C     0.734861 0.765139 0.462917     C
C     0.734861 0.765139 0.537083     C
C     0.734861 0.962917 0.265139     C
C     0.734861 0.962917 0.734861     C
C     0.765139 0.037083 0.234861     C
C     0.765139 0.037083 0.765139     C
C     0.765139 0.234861 0.037083     C
C     0.765139 0.234861 0.962917     C
C     0.765139 0.265139 0.462917     C
C     0.765139 0.265139 0.537083     C
C     0.765139 0.462917 0.265139     C
C     0.765139 0.462917 0.734861     C
C     0.765139 0.537083 0.265139     C
C     0.765139 0.537083 0.734861     C
C     0.765139 0.734861 0.462917     C
C     0.765139 0.734861 0.537083     C
C     0.765139 0.765139 0.037083     C
C     0.765139 0.765139 0.962917     C
C     0.765139 0.962917 0.234861     C
C     0.765139 0.962917 0.765139     C
H     0.775486 0.062428 0.224514     H
H     0.775486 0.062428 0.775486     H
H     0.775486 0.224514 0.062428     H
H     0.775486 0.224514 0.937572     H
H     0.775486 0.275486 0.437573     H
H     0.775486 0.275486 0.562428     H
H     0.775486 0.437573 0.275486     H
H     0.775486 0.437573 0.724514     H
H     0.775486 0.562428 0.275486     H
H     0.775486 0.562428 0.724514     H
H     0.775486 0.724514 0.437573     H
H     0.775486 0.724514 0.562428     H
H     0.775486 0.775486 0.062428     H
H     0.775486 0.775486 0.937572     H
H     0.775486 0.937572 0.224514     H
H     0.775486 0.937572 0.775486     H
C     0.780278      0.0 0.219722     C
C     0.780278      0.0 0.780278     C
C     0.780278 0.219722      0.0     C
C     0.780278 0.280278      0.5     C
C     0.780278      0.5 0.280278     C
C     0.780278      0.5 0.719722     C
C     0.780278 0.719722      0.5     C
C     0.780278 0.780278      0.0     C
C     0.812952      0.0 0.187048     C
C     0.812952      0.0 0.812952     C
C     0.812952 0.187048      0.0     C
C     0.812952 0.312952      0.5     C
C     0.812952      0.5 0.312952     C
C     0.812952      0.5 0.687048     C
C     0.812952 0.687048      0.5     C
C     0.812952 0.812952      0.0     C
C     0.839963      0.0 0.160037     C
C     0.839963      0.0 0.839963     C
C     0.839963 0.160037      0.0     C
C     0.839963 0.339963      0.5     C
C     0.839963      0.5 0.339963     C
C     0.839963      0.5 0.660037     C
C     0.839963 0.660037      0.5     C
C     0.839963 0.839963      0.0     C
C     0.872637      0.0 0.127363     C
C     0.872637      0.0 0.872637     C
C     0.872637 0.127363      0.0     C
C     0.872637 0.372637      0.5     C
C     0.872637      0.5 0.372637     C
C     0.872637      0.5 0.627363     C
C     0.872637 0.627363      0.5     C
C     0.872637 0.872637      0.0     C
H     0.883656 0.061727 0.116344     H
H     0.883656 0.061727 0.883656     H
H     0.883656 0.116344 0.061727     H
H     0.883656 0.116344 0.938273     H
H     0.883656 0.383656 0.438273     H
H     0.883656 0.383656 0.561727     H
H     0.883656 0.438273 0.383656     H
H     0.883656 0.438273 0.616344     H
H     0.883656 0.561727 0.383656     H
H     0.883656 0.561727 0.616344     H
H     0.883656 0.616344 0.438273     H
H     0.883656 0.616344 0.561727     H
H     0.883656 0.883656 0.061727     H
H     0.883656 0.883656 0.938273     H
H     0.883656 0.938273 0.116344     H
H     0.883656 0.938273 0.883656     H
C      0.89005 0.033894  0.10995     C
C      0.89005 0.033894  0.89005     C
C      0.89005  0.10995 0.033894     C
C      0.89005  0.10995 0.966106     C
C      0.89005  0.39005 0.466106     C
C      0.89005  0.39005 0.533894     C
C      0.89005 0.466106  0.39005     C
C      0.89005 0.466106  0.60995     C
C      0.89005 0.533894  0.39005     C
C      0.89005 0.533894  0.60995     C
C      0.89005  0.60995 0.466106     C
C      0.89005  0.60995 0.533894     C
C      0.89005  0.89005 0.033894     C
C      0.89005  0.89005 0.966106     C
C      0.89005 0.966106  0.10995     C
C      0.89005 0.966106  0.89005     C
H     0.906575      0.0      0.0     H
H     0.906575      0.5      0.5     H
N     0.918225 0.020948 0.081775     N
N     0.918225 0.020948 0.918225     N
N     0.918225 0.081775 0.020948     N
N     0.918225 0.081775 0.979052     N
N     0.918225 0.418225 0.479052     N
N     0.918225 0.418225 0.520948     N
N     0.918225 0.479052 0.418225     N
N     0.918225 0.479052 0.581775     N
N     0.918225 0.520948 0.418225     N
N     0.918225 0.520948 0.581775     N
N     0.918225 0.581775 0.479052     N
N     0.918225 0.581775 0.520948     N
N     0.918225 0.918225 0.020948     N
N     0.918225 0.918225 0.979052     N
N     0.918225 0.979052 0.081775     N
N     0.918225 0.979052 0.918225     N
O     0.935841      0.0      0.0     O
O     0.935841      0.5      0.5     O
H     0.937572 0.224514 0.224514     H
H     0.937572 0.224514 0.775486     H
H     0.937572 0.275486 0.275486     H
H     0.937572 0.275486 0.724514     H
H     0.937572 0.724514 0.275486     H
H     0.937572 0.724514 0.724514     H
H     0.937572 0.775486 0.224514     H
H     0.937572 0.775486 0.775486     H
H     0.938273 0.116344 0.116344     H
H     0.938273 0.116344 0.883656     H
H     0.938273 0.383656 0.383656     H
H     0.938273 0.383656 0.616344     H
H     0.938273 0.616344 0.383656     H
H     0.938273 0.616344 0.616344     H
H     0.938273 0.883656 0.116344     H
H     0.938273 0.883656 0.883656     H
Ni     0.95762  0.04242  0.04242    Ni
Ni     0.95762  0.04242  0.95762    Ni
Ni     0.95762  0.45762  0.45762    Ni
Ni     0.95762  0.45762  0.54242    Ni
Ni     0.95762  0.54242  0.45762    Ni
Ni     0.95762  0.54242  0.54242    Ni
Ni     0.95762  0.95762  0.04242    Ni
Ni     0.95762  0.95762  0.95762    Ni
C     0.962917 0.234861 0.234861     C
C     0.962917 0.234861 0.765139     C
C     0.962917 0.265139 0.265139     C
C     0.962917 0.265139 0.734861     C
C     0.962917 0.734861 0.265139     C
C     0.962917 0.734861 0.734861     C
C     0.962917 0.765139 0.234861     C
C     0.962917 0.765139 0.765139     C
C     0.966106  0.10995  0.10995     C
C     0.966106  0.10995  0.89005     C
C     0.966106  0.39005  0.39005     C
C     0.966106  0.39005  0.60995     C
C     0.966106  0.60995  0.39005     C
C     0.966106  0.60995  0.60995     C
C     0.966106  0.89005  0.10995     C
C     0.966106  0.89005  0.89005     C
N     0.979052 0.081775 0.081775     N
N     0.979052 0.081775 0.918225     N
N     0.979052 0.418225 0.418225     N
N     0.979052 0.418225 0.581775     N
N     0.979052 0.581775 0.418225     N
N     0.979052 0.581775 0.581775     N
N     0.979052 0.918225 0.081775     N
N     0.979052 0.918225 0.918225     N
