data_I
_chemical_name_common  '/home/zhangsd/repos/MofS-CGCNN/ML/data/WS24/clean_cifs/Ni8_OH_4_H2O_2_L7_6'
_cell_length_a 23.18532
_cell_length_b 23.18532
_cell_length_c 23.18532
_cell_angle_alpha 90.00000
_cell_angle_beta  90.00000
_cell_angle_gamma 90.00000
_space_group_name_H-M_alt      'P 1'


loop_
_space_group_symop_operation_xyz
  'x, y, z' 

loop_
_atom_site_label
_atom_site_fract_x
_atom_site_fract_y
_atom_site_fract_z
_atom_site_type_symbol
O     -0.119052 -0.119052  0.95331     O
O     -0.119052 -0.04669 0.880948     O
O     -0.09289      0.0      1.0     O
H     -0.092597 0.186926 0.186926     H
H     -0.092597 0.186926 0.813074     H
H     -0.092597  0.26253  0.26253     H
H     -0.092597  0.26253  0.73747     H
H     -0.092597 0.686926 0.686926     H
H     -0.092597  0.73747  0.26253     H
H     -0.092597  0.76253  0.76253     H
H     -0.092597 0.813074 0.186926     H
H     -0.092126 0.325459 0.325459     H
H     -0.092126 0.325459 0.674541     H
H     -0.092126 0.825459 0.825459     H
H     -0.073246 0.643086 0.302679     H
Ni    -0.0638786 -0.0638786 0.0638814    Ni
Ni    -0.0638786 -0.0638786 0.9361214    Ni
Ni    -0.0638786 -0.0638786 1.0638814    Ni
Ni    -0.0638786 0.0638814 -0.0638786    Ni
Ni    -0.0638786 0.0638814 0.0638814    Ni
Ni    -0.0638786 0.0638814 0.9361214    Ni
Ni    -0.0638786 0.4361214 0.4361214    Ni
Ni    -0.0638786 0.4361214 0.5638814    Ni
Ni    -0.0638786 0.5638814 0.4361214    Ni
Ni    -0.0638786 0.5638814 0.5638814    Ni
Ni    -0.0638786 0.9361214 -0.0638786    Ni
Ni    -0.0638786 0.9361214 0.0638814    Ni
Ni    -0.0638786 0.9361214 0.9361214    Ni
C     -0.05192 0.203532 0.203532     C
C     -0.05192 0.203532 0.796468     C
C     -0.05192 0.245924 0.245924     C
C     -0.05192 0.245924 0.754076     C
C     -0.05192 0.703532 0.703532     C
C     -0.05192 0.745924 0.745924     C
C     -0.05192 0.754076 0.245924     C
C     -0.05192 0.796468 0.203532     C
C     -0.047455 0.335722 0.335722     C
C     -0.047455 0.335722 0.664278     C
C     -0.047455 0.664278 0.335722     C
C     -0.047455 0.835722 0.835722     C
O     -0.04669 0.119052 0.119052     O
O     -0.04669 0.119052 0.880948     O
O     -0.04669 0.619052 0.619052     O
O     -0.04669 0.880948 0.119052     O
N     -0.029329 -0.124831 0.875169     N
N     -0.029329 0.375169 0.375169     N
N     -0.029329 0.375169 0.624831     N
N     -0.029329 0.624831 0.375169     N
O          0.0 -0.09289      1.0     O
O          0.0      0.0  0.09291     O
H          0.0      0.0     0.13     H
H          0.0      0.0     0.87     H
O          0.0      0.0  0.90711     O
O          0.0  0.09291      0.0     O
H          0.0     0.13      0.0     H
C          0.0 0.138113 0.138113     C
C          0.0 0.138113 0.861887     C
C          0.0 0.182335 0.182335     C
C          0.0 0.182335 0.817665     C
C          0.0  0.26712  0.26712     C
C          0.0  0.26712  0.73288     C
C          0.0 0.311342 0.311342     C
C          0.0 0.311342 0.688658     C
H          0.0     0.37      0.5     H
O          0.0  0.40711      0.5     O
H          0.0      0.5     0.37     H
O          0.0      0.5  0.40711     O
O          0.0      0.5  0.59291     O
H          0.0      0.5     0.63     H
O          0.0  0.59291      0.5     O
H          0.0     0.63      0.5     H
C          0.0 0.638113 0.638113     C
C          0.0 0.682335 0.682335     C
C          0.0 0.688658 0.311342     C
C          0.0  0.73288  0.26712     C
C          0.0  0.76712  0.76712     C
C          0.0 0.811342 0.811342     C
C          0.0 0.817665 0.182335     C
C          0.0 0.861887 0.138113     C
H          0.0     0.87      0.0     H
N     0.029329 0.375169 0.375169     N
N     0.029329 0.375169 0.624831     N
N     0.029329 0.624831 0.375169     N
N     0.029329 0.875169 0.875169     N
O      0.04669 0.119052 0.119052     O
O      0.04669 0.119052 0.880948     O
O      0.04669 0.619052 0.619052     O
O      0.04669 0.880948 0.119052     O
C     0.047455 0.335722 0.335722     C
C     0.047455 0.335722 0.664278     C
C     0.047455 0.664278 0.335722     C
C     0.047455 0.835722 0.835722     C
C      0.05192 0.203532 0.203532     C
C      0.05192 0.203532 0.796468     C
C      0.05192 0.245924 0.245924     C
C      0.05192 0.245924 0.754076     C
C      0.05192 0.703532 0.703532     C
C      0.05192 0.745924 0.745924     C
C      0.05192 0.754076 0.245924     C
C      0.05192 0.796468 0.203532     C
Ni    0.0638814 -0.0638786 -0.0638786    Ni
Ni    0.0638814 -0.0638786 0.0638814    Ni
Ni    0.0638814 -0.0638786 0.9361214    Ni
Ni    0.0638814 0.0638814 -0.0638786    Ni
Ni    0.0638814 0.0638814 0.0638814    Ni
Ni    0.0638814 0.0638814 0.9361214    Ni
Ni    0.0638814 0.0638814 1.0638814    Ni
Ni    0.0638814 0.4361214 0.4361214    Ni
Ni    0.0638814 0.4361214 0.5638814    Ni
Ni    0.0638814 0.5638814 0.4361214    Ni
Ni    0.0638814 0.5638814 0.5638814    Ni
Ni    0.0638814 0.9361214 -0.0638786    Ni
Ni    0.0638814 0.9361214 0.0638814    Ni
Ni    0.0638814 0.9361214 0.9361214    Ni
Ni    0.0638814 0.9361214 1.0638814    Ni
Ni    0.0638814 1.0638814 0.0638814    Ni
Ni    0.0638814 1.0638814 0.9361214    Ni
H     0.073246 0.302679 0.356914     H
H     0.073246 0.356914 0.697321     H
H     0.073246 0.802679 0.856914     H
H     0.092126 0.674541 0.325459     H
H     0.092597 0.186926 0.186926     H
H     0.092597 0.186926 0.813074     H
H     0.092597  0.26253  0.26253     H
H     0.092597  0.26253  0.73747     H
H     0.092597 0.686926 0.686926     H
H     0.092597  0.73747  0.26253     H
H     0.092597  0.76253  0.76253     H
H     0.092597 0.813074 0.186926     H
O      0.09291      0.0      0.0     O
O      0.09291      0.5      0.5     O
O     0.119052 -0.04669 0.880948     O
O     0.119052  0.04669 0.880948     O
O     0.119052 0.619052  0.45331     O
O     0.119052 0.619052  0.54669     O
O     0.119052 0.880948 -0.04669     O
O     0.119052 0.880948  0.04669     O
N     0.124831 -0.029329 0.124831     N
N     0.124831 0.029329 0.124831     N
N     0.124831 0.124831 -0.029329     N
N     0.124831 0.124831 0.029329     N
N     0.124831 0.375169 0.470671     N
N     0.124831 0.375169 0.529329     N
N     0.124831 0.470671 0.375169     N
N     0.124831 0.470671 0.624831     N
N     0.124831 0.529329 0.375169     N
N     0.124831 0.529329 0.624831     N
H         0.13      0.0      0.0     H
H         0.13      0.5      0.5     H
C     0.138113      0.0 0.861887     C
C     0.138113 0.638113      0.5     C
C     0.138113 0.861887      0.0     C
C     0.164278 -0.047455 0.164278     C
C     0.164278 0.047455 0.164278     C
C     0.164278 0.164278 -0.047455     C
C     0.164278 0.164278 0.047455     C
C     0.164278 0.335722 0.452545     C
C     0.164278 0.335722 0.547455     C
C     0.164278 0.452545 0.335722     C
C     0.164278 0.452545 0.664278     C
C     0.164278 0.547455 0.335722     C
C     0.164278 0.547455 0.664278     C
H     0.174541 0.092126 0.174541     H
H     0.174541 0.174541 0.092126     H
H     0.174541 0.325459 0.592126     H
H     0.174541 0.592126 0.325459     H
H     0.174541 0.592126 0.674541     H
C     0.182335      0.0 0.817665     C
C     0.182335 0.682335      0.5     C
C     0.182335 0.817665      0.0     C
H     0.186926 -0.092597 0.813074     H
H     0.186926 0.092597 0.813074     H
H     0.186926 0.686926 0.407403     H
H     0.186926 0.686926 0.592597     H
H     0.186926 0.813074 -0.092597     H
H     0.186926 0.813074 0.092597     H
C     0.188658      0.0 0.188658     C
C     0.188658 0.188658      0.0     C
C     0.188658 0.311342      0.5     C
C     0.188658      0.5 0.311342     C
C     0.188658      0.5 0.688658     C
H     0.197321 -0.073246 0.143086     H
H     0.197321 0.143086 -0.073246     H
H     0.197321 0.356914 0.426754     H
H     0.197321 0.426754 0.356914     H
H     0.197321 0.426754 0.643086     H
C     0.203532 -0.05192 0.796468     C
C     0.203532  0.05192 0.796468     C
C     0.203532 0.703532  0.44808     C
C     0.203532 0.703532  0.55192     C
C     0.203532 0.796468 -0.05192     C
C     0.203532 0.796468  0.05192     C
C      0.23288      0.0  0.23288     C
C      0.23288  0.23288      0.0     C
C      0.23288  0.26712      0.5     C
C      0.23288      0.5  0.26712     C
C      0.23288      0.5  0.73288     C
H      0.23747 -0.092597  0.23747     H
H      0.23747 0.092597  0.23747     H
H      0.23747  0.23747 -0.092597     H
H      0.23747  0.23747 0.092597     H
H      0.23747  0.26253 0.407403     H
H      0.23747  0.26253 0.592597     H
H      0.23747 0.407403  0.26253     H
H      0.23747 0.407403  0.73747     H
H      0.23747 0.592597  0.26253     H
H      0.23747 0.592597  0.73747     H
C     0.245924 -0.05192 0.754076     C
C     0.245924  0.05192 0.754076     C
C     0.245924 0.745924  0.44808     C
C     0.245924 0.745924  0.55192     C
C     0.245924 0.754076 -0.05192     C
C     0.245924 0.754076  0.05192     C
C     0.254076 -0.05192 0.254076     C
C     0.254076  0.05192 0.254076     C
C     0.254076 0.245924  0.44808     C
C     0.254076 0.245924  0.55192     C
C     0.254076 0.254076 -0.05192     C
C     0.254076 0.254076  0.05192     C
C     0.254076  0.44808 0.245924     C
C     0.254076  0.44808 0.754076     C
C     0.254076  0.55192 0.245924     C
C     0.254076  0.55192 0.754076     C
H      0.26253 -0.092597  0.73747     H
H      0.26253 0.092597  0.73747     H
H      0.26253  0.73747 -0.092597     H
H      0.26253  0.73747 0.092597     H
H      0.26253  0.76253 0.407403     H
H      0.26253  0.76253 0.592597     H
C      0.26712      0.0  0.73288     C
C      0.26712  0.73288      0.0     C
C      0.26712  0.76712      0.5     C
C     0.296468 -0.05192 0.296468     C
C     0.296468  0.05192 0.296468     C
C     0.296468 0.203532  0.44808     C
C     0.296468 0.203532  0.55192     C
C     0.296468 0.296468 -0.05192     C
C     0.296468 0.296468  0.05192     C
C     0.296468  0.44808 0.203532     C
C     0.296468  0.44808 0.796468     C
C     0.296468  0.55192 0.203532     C
C     0.296468  0.55192 0.796468     C
H     0.302679 -0.073246 0.643086     H
C     0.311342      0.0 0.688658     C
C     0.311342 0.688658      0.0     C
C     0.311342 0.811342      0.5     C
H     0.313074 -0.092597 0.313074     H
H     0.313074 0.092597 0.313074     H
H     0.313074 0.186926 0.407403     H
H     0.313074 0.186926 0.592597     H
H     0.313074 0.313074 -0.092597     H
H     0.313074 0.313074 0.092597     H
H     0.313074 0.407403 0.186926     H
H     0.313074 0.407403 0.813074     H
H     0.313074 0.592597 0.186926     H
H     0.313074 0.592597 0.813074     H
C     0.317665      0.0 0.317665     C
C     0.317665 0.182335      0.5     C
C     0.317665 0.317665      0.0     C
C     0.317665      0.5 0.182335     C
C     0.317665      0.5 0.817665     C
H     0.325459 0.092126 0.674541     H
H     0.325459 0.674541 -0.092126     H
H     0.325459 0.825459 0.407874     H
C     0.335722 -0.047455 0.664278     C
C     0.335722 0.047455 0.664278     C
C     0.335722 0.664278 -0.047455     C
C     0.335722 0.664278 0.047455     C
C     0.335722 0.835722 0.452545     C
C     0.335722 0.835722 0.547455     C
H     0.356914 0.697321 0.073246     H
H     0.356914 0.802679 0.573246     H
C     0.361887      0.0 0.361887     C
C     0.361887 0.138113      0.5     C
C     0.361887 0.361887      0.0     C
C     0.361887      0.5 0.138113     C
C     0.361887      0.5 0.861887     C
H         0.37      0.0      0.5     H
H         0.37      0.5      0.0     H
N     0.375169 -0.029329 0.624831     N
N     0.375169 0.029329 0.624831     N
N     0.375169 0.624831 -0.029329     N
N     0.375169 0.624831 0.029329     N
N     0.375169 0.875169 0.470671     N
N     0.375169 0.875169 0.529329     N
O     0.380948 -0.04669 0.380948     O
O     0.380948  0.04669 0.380948     O
O     0.380948 0.119052  0.45331     O
O     0.380948 0.119052  0.54669     O
O     0.380948 0.380948 -0.04669     O
O     0.380948 0.380948  0.04669     O
O     0.380948  0.45331 0.119052     O
O     0.380948  0.45331 0.880948     O
O     0.380948  0.54669 0.119052     O
O     0.380948  0.54669 0.880948     O
O      0.40711      0.0      0.5     O
O      0.40711      0.5      0.0     O
H     0.407403 0.186926 0.313074     H
H     0.407403 0.186926 0.686926     H
H     0.407403  0.26253  0.23747     H
H     0.407403  0.26253  0.76253     H
H     0.407403 0.686926 0.186926     H
H     0.407403 0.686926 0.813074     H
H     0.407403  0.76253  0.26253     H
H     0.407403  0.76253  0.73747     H
H     0.407874 0.325459 0.174541     H
H     0.407874 0.325459 0.825459     H
H     0.407874 0.825459 0.325459     H
H     0.407874 0.825459 0.674541     H
Ni    0.4361214 -0.0638786 0.4361214    Ni
Ni    0.4361214 -0.0638786 0.5638814    Ni
Ni    0.4361214 0.0638814 0.4361214    Ni
Ni    0.4361214 0.0638814 0.5638814    Ni
Ni    0.4361214 0.4361214 -0.0638786    Ni
Ni    0.4361214 0.4361214 0.0638814    Ni
Ni    0.4361214 0.4361214 0.9361214    Ni
Ni    0.4361214 0.4361214 1.0638814    Ni
Ni    0.4361214 0.5638814 -0.0638786    Ni
Ni    0.4361214 0.5638814 0.0638814    Ni
Ni    0.4361214 0.5638814 0.9361214    Ni
Ni    0.4361214 0.5638814 1.0638814    Ni
Ni    0.4361214 0.9361214 0.4361214    Ni
Ni    0.4361214 0.9361214 0.5638814    Ni
Ni    0.4361214 1.0638814 0.4361214    Ni
Ni    0.4361214 1.0638814 0.5638814    Ni
C      0.44808 0.203532 0.296468     C
C      0.44808 0.203532 0.703532     C
C      0.44808 0.245924 0.254076     C
C      0.44808 0.245924 0.745924     C
C      0.44808 0.703532 0.203532     C
C      0.44808 0.703532 0.796468     C
C      0.44808 0.745924 0.245924     C
C      0.44808 0.745924 0.754076     C
C     0.452545 0.335722 0.164278     C
C     0.452545 0.335722 0.835722     C
C     0.452545 0.835722 0.335722     C
C     0.452545 0.835722 0.664278     C
O      0.45331 0.119052 0.380948     O
O      0.45331 0.119052 0.619052     O
O      0.45331 0.619052 0.119052     O
O      0.45331 0.619052 0.880948     O
N     0.470671 0.375169 0.124831     N
N     0.470671 0.375169 0.875169     N
N     0.470671 0.875169 0.375169     N
N     0.470671 0.875169 0.624831     N
H          0.5      0.0     0.37     H
O          0.5      0.0  0.40711     O
O          0.5      0.0  0.59291     O
H          0.5      0.0     0.63     H
O          0.5  0.09291      0.5     O
H          0.5     0.13      0.5     H
C          0.5 0.138113 0.361887     C
C          0.5 0.138113 0.638113     C
C          0.5 0.182335 0.317665     C
C          0.5 0.182335 0.682335     C
C          0.5  0.26712  0.23288     C
C          0.5  0.26712  0.76712     C
C          0.5 0.311342 0.188658     C
C          0.5 0.311342 0.811342     C
H          0.5     0.37      0.0     H
O          0.5  0.40711      0.0     O
O          0.5      0.5  0.09291     O
H          0.5      0.5     0.13     H
H          0.5      0.5     0.87     H
O          0.5      0.5  0.90711     O
O          0.5  0.59291      0.0     O
H          0.5     0.63      0.0     H
C          0.5 0.638113 0.138113     C
C          0.5 0.638113 0.861887     C
C          0.5 0.682335 0.182335     C
C          0.5 0.682335 0.817665     C
C          0.5  0.76712  0.26712     C
C          0.5  0.76712  0.73288     C
C          0.5 0.811342 0.311342     C
C          0.5 0.811342 0.688658     C
H          0.5     0.87      0.5     H
O          0.5  0.90711      0.5     O
N     0.529329 0.375169 0.124831     N
N     0.529329 0.375169 0.875169     N
N     0.529329 0.875169 0.375169     N
N     0.529329 0.875169 0.624831     N
O      0.54669 0.119052 0.380948     O
O      0.54669 0.119052 0.619052     O
O      0.54669 0.619052 0.119052     O
O      0.54669 0.619052 0.880948     O
C     0.547455 0.335722 0.164278     C
C     0.547455 0.335722 0.835722     C
C     0.547455 0.835722 0.335722     C
C     0.547455 0.835722 0.664278     C
C      0.55192 0.203532 0.296468     C
C      0.55192 0.203532 0.703532     C
C      0.55192 0.245924 0.254076     C
C      0.55192 0.245924 0.745924     C
C      0.55192 0.703532 0.203532     C
C      0.55192 0.703532 0.796468     C
C      0.55192 0.745924 0.245924     C
C      0.55192 0.745924 0.754076     C
Ni    0.5638814 -0.0638786 0.4361214    Ni
Ni    0.5638814 -0.0638786 0.5638814    Ni
Ni    0.5638814 0.0638814 0.4361214    Ni
Ni    0.5638814 0.0638814 0.5638814    Ni
Ni    0.5638814 0.4361214 -0.0638786    Ni
Ni    0.5638814 0.4361214 0.0638814    Ni
Ni    0.5638814 0.4361214 0.9361214    Ni
Ni    0.5638814 0.4361214 1.0638814    Ni
Ni    0.5638814 0.5638814 -0.0638786    Ni
Ni    0.5638814 0.5638814 0.0638814    Ni
Ni    0.5638814 0.5638814 0.9361214    Ni
Ni    0.5638814 0.5638814 1.0638814    Ni
Ni    0.5638814 0.9361214 0.4361214    Ni
Ni    0.5638814 0.9361214 0.5638814    Ni
Ni    0.5638814 1.0638814 0.4361214    Ni
Ni    0.5638814 1.0638814 0.5638814    Ni
H     0.573246 0.356914 0.197321     H
H     0.573246 0.356914 0.802679     H
H     0.573246 0.802679 0.643086     H
H     0.573246 0.856914 0.302679     H
H     0.592597 0.186926 0.313074     H
H     0.592597 0.186926 0.686926     H
H     0.592597  0.26253  0.23747     H
H     0.592597  0.26253  0.76253     H
H     0.592597 0.686926 0.186926     H
H     0.592597 0.686926 0.813074     H
H     0.592597  0.76253  0.26253     H
H     0.592597  0.76253  0.73747     H
O      0.59291      0.0      0.5     O
O      0.59291      0.5      0.0     O
O     0.619052  0.45331 0.880948     O
O     0.619052  0.54669 0.880948     O
N     0.624831 -0.029329 0.375169     N
N     0.624831 -0.029329 0.624831     N
N     0.624831 0.029329 0.375169     N
N     0.624831 0.029329 0.624831     N
N     0.624831 0.124831 0.470671     N
N     0.624831 0.124831 0.529329     N
N     0.624831 0.375169 -0.029329     N
N     0.624831 0.375169 0.029329     N
N     0.624831 0.470671 0.124831     N
N     0.624831 0.529329 0.124831     N
N     0.624831 0.624831 -0.029329     N
N     0.624831 0.624831 0.029329     N
N     0.624831 0.875169 0.470671     N
N     0.624831 0.875169 0.529329     N
H         0.63      0.0      0.5     H
H         0.63      0.5      0.0     H
C     0.638113      0.5 0.861887     C
H     0.643086 0.197321 0.426754     H
H     0.643086 0.426754 0.197321     H
C     0.664278 -0.047455 0.335722     C
C     0.664278 -0.047455 0.664278     C
C     0.664278 0.047455 0.335722     C
C     0.664278 0.047455 0.664278     C
C     0.664278 0.164278 0.452545     C
C     0.664278 0.164278 0.547455     C
C     0.664278 0.335722 -0.047455     C
C     0.664278 0.335722 0.047455     C
C     0.664278 0.452545 0.164278     C
C     0.664278 0.547455 0.164278     C
C     0.664278 0.664278 -0.047455     C
C     0.664278 0.664278 0.047455     C
C     0.664278 0.835722 0.452545     C
C     0.664278 0.835722 0.547455     C
H     0.674541 -0.092126 0.325459     H
H     0.674541 0.092126 0.674541     H
H     0.674541 0.174541 0.592126     H
H     0.674541 0.325459 0.092126     H
H     0.674541 0.592126 0.174541     H
H     0.674541 0.674541 0.092126     H
H     0.674541 0.825459 0.592126     H
C     0.682335      0.5 0.817665     C
H     0.686926 0.407403 0.813074     H
H     0.686926 0.592597 0.813074     H
C     0.688658      0.0 0.311342     C
C     0.688658      0.0 0.688658     C
C     0.688658 0.188658      0.5     C
C     0.688658 0.311342      0.0     C
C     0.688658      0.5 0.188658     C
C     0.688658 0.688658      0.0     C
C     0.688658 0.811342      0.5     C
H     0.697321 -0.073246 0.643086     H
H     0.697321 0.073246 0.356914     H
H     0.697321 0.356914 -0.073246     H
H     0.697321 0.643086 -0.073246     H
H     0.697321 0.856914 0.426754     H
C     0.703532  0.44808 0.796468     C
C     0.703532  0.55192 0.796468     C
C      0.73288      0.0  0.26712     C
C      0.73288      0.0  0.73288     C
C      0.73288  0.23288      0.5     C
C      0.73288  0.26712      0.0     C
C      0.73288      0.5  0.23288     C
C      0.73288  0.73288      0.0     C
C      0.73288  0.76712      0.5     C
H      0.73747 -0.092597  0.26253     H
H      0.73747 -0.092597  0.73747     H
H      0.73747 0.092597  0.26253     H
H      0.73747 0.092597  0.73747     H
H      0.73747  0.23747 0.407403     H
H      0.73747  0.23747 0.592597     H
H      0.73747  0.26253 -0.092597     H
H      0.73747  0.26253 0.092597     H
H      0.73747 0.407403  0.23747     H
H      0.73747 0.592597  0.23747     H
H      0.73747  0.73747 -0.092597     H
H      0.73747  0.73747 0.092597     H
H      0.73747  0.76253 0.407403     H
H      0.73747  0.76253 0.592597     H
C     0.745924  0.44808 0.754076     C
C     0.745924  0.55192 0.754076     C
C     0.754076 -0.05192 0.245924     C
C     0.754076 -0.05192 0.754076     C
C     0.754076  0.05192 0.245924     C
C     0.754076  0.05192 0.754076     C
C     0.754076 0.245924 -0.05192     C
C     0.754076 0.245924  0.05192     C
C     0.754076 0.254076  0.44808     C
C     0.754076 0.254076  0.55192     C
C     0.754076  0.44808 0.254076     C
C     0.754076  0.55192 0.254076     C
C     0.754076 0.745924  0.44808     C
C     0.754076 0.745924  0.55192     C
C     0.754076 0.754076 -0.05192     C
C     0.754076 0.754076  0.05192     C
H      0.76253 0.407403  0.73747     H
H      0.76253 0.592597  0.73747     H
C      0.76712      0.5  0.73288     C
C     0.796468 -0.05192 0.203532     C
C     0.796468 -0.05192 0.796468     C
C     0.796468  0.05192 0.203532     C
C     0.796468  0.05192 0.796468     C
C     0.796468 0.203532 -0.05192     C
C     0.796468 0.203532  0.05192     C
C     0.796468 0.296468  0.44808     C
C     0.796468 0.296468  0.55192     C
C     0.796468  0.44808 0.296468     C
C     0.796468  0.55192 0.296468     C
C     0.796468 0.703532  0.44808     C
C     0.796468 0.703532  0.55192     C
C     0.796468 0.796468 -0.05192     C
C     0.796468 0.796468  0.05192     C
H     0.802679 0.426754 0.643086     H
C     0.811342      0.5 0.688658     C
H     0.813074 -0.092597 0.186926     H
H     0.813074 -0.092597 0.813074     H
H     0.813074 0.092597 0.186926     H
H     0.813074 0.092597 0.813074     H
H     0.813074 0.186926 -0.092597     H
H     0.813074 0.186926 0.092597     H
H     0.813074 0.313074 0.407403     H
H     0.813074 0.313074 0.592597     H
H     0.813074 0.407403 0.313074     H
H     0.813074 0.592597 0.313074     H
H     0.813074 0.686926 0.407403     H
H     0.813074 0.686926 0.592597     H
H     0.813074 0.813074 -0.092597     H
H     0.813074 0.813074 0.092597     H
C     0.817665      0.0 0.182335     C
C     0.817665      0.0 0.817665     C
C     0.817665 0.182335      0.0     C
C     0.817665 0.317665      0.5     C
C     0.817665      0.5 0.317665     C
C     0.817665 0.682335      0.5     C
C     0.817665 0.817665      0.0     C
H     0.825459 0.592126 0.674541     H
C     0.835722 0.452545 0.664278     C
C     0.835722 0.547455 0.664278     C
C     0.861887      0.0 0.138113     C
C     0.861887      0.0 0.861887     C
C     0.861887 0.138113      0.0     C
C     0.861887 0.361887      0.5     C
C     0.861887      0.5 0.361887     C
C     0.861887 0.638113      0.5     C
C     0.861887 0.861887      0.0     C
H         0.87      0.0      0.0     H
H         0.87      0.5      0.5     H
N     0.875169 0.470671 0.624831     N
N     0.875169 0.529329 0.624831     N
O     0.880948 -0.04669 0.119052     O
O     0.880948  0.04669 0.119052     O
O     0.880948  0.04669 0.880948     O
O     0.880948 0.119052 -0.04669     O
O     0.880948 0.119052  0.04669     O
O     0.880948 0.380948  0.45331     O
O     0.880948 0.380948  0.54669     O
O     0.880948  0.45331 0.380948     O
O     0.880948  0.54669 0.380948     O
O     0.880948 0.619052  0.45331     O
O     0.880948 0.619052  0.54669     O
O     0.880948 0.880948  0.04669     O
O      0.90711      0.5      0.5     O
Ni    0.9361214 -0.0638786 -0.0638786    Ni
Ni    0.9361214 -0.0638786 0.0638814    Ni
Ni    0.9361214 -0.0638786 0.9361214    Ni
Ni    0.9361214 0.0638814 -0.0638786    Ni
Ni    0.9361214 0.0638814 0.0638814    Ni
Ni    0.9361214 0.0638814 0.9361214    Ni
Ni    0.9361214 0.0638814 1.0638814    Ni
Ni    0.9361214 0.4361214 0.4361214    Ni
Ni    0.9361214 0.4361214 0.5638814    Ni
Ni    0.9361214 0.5638814 0.4361214    Ni
Ni    0.9361214 0.5638814 0.5638814    Ni
Ni    0.9361214 0.9361214 -0.0638786    Ni
Ni    0.9361214 0.9361214 0.0638814    Ni
Ni    0.9361214 1.0638814 0.0638814    Ni
Ni    1.0638814 0.0638814 0.0638814    Ni
Ni    1.0638814 0.0638814 0.9361214    Ni
Ni    1.0638814 0.4361214 0.4361214    Ni
Ni    1.0638814 0.4361214 0.5638814    Ni
Ni    1.0638814 0.5638814 0.4361214    Ni
Ni    1.0638814 0.5638814 0.5638814    Ni
Ni    1.0638814 0.9361214 0.0638814    Ni
