data_I
_chemical_name_common  '/home/zhangsd/repos/MofS-CGCNN/ML/data/WS24/clean_cifs/Ni8_OH_4_H2O_2_L6_6'
_cell_length_a 17.16961
_cell_length_b 17.16961
_cell_length_c 17.16961
_cell_angle_alpha 90.00000
_cell_angle_beta  90.00000
_cell_angle_gamma 90.00000
_space_group_name_H-M_alt      'P 1'


loop_
_space_group_symop_operation_xyz
  'x, y, z' 

loop_
_atom_site_label
_atom_site_fract_x
_atom_site_fract_y
_atom_site_fract_z
_atom_site_type_symbol
H     -0.124404 0.233784 0.233784     H
H     -0.124404 0.233784 0.766216     H
H     -0.124404 0.766216 0.233784     H
H     -0.124404 0.766216 0.766216     H
Ni    -0.083879 -0.083879 0.083879    Ni
Ni    -0.083879 -0.083879 0.916139    Ni
Ni    -0.083879 0.083879 -0.083879    Ni
Ni    -0.083879 0.083879 0.083879    Ni
Ni    -0.083879 0.083879 0.916139    Ni
Ni    -0.083879 0.416139 0.416139    Ni
Ni    -0.083879 0.416139 0.583879    Ni
Ni    -0.083879 0.583879 0.416139    Ni
Ni    -0.083879 0.583879 0.583879    Ni
Ni    -0.083879 0.916139 -0.083879    Ni
Ni    -0.083879 0.916139 0.083879    Ni
Ni    -0.083879 0.916139 0.916139    Ni
C     -0.064082 0.219926 0.219926     C
C     -0.064082 0.219926 0.780074     C
C     -0.064082 0.780074 0.219926     C
C     -0.064082 0.780074 0.780074     C
O     -0.063049 0.339539 0.339539     O
O     -0.063049 0.339539 0.660461     O
O     -0.063049 0.660461 0.339539     O
O     -0.063049 0.660461 0.660461     O
N     -0.039605 0.166667 0.166667     N
N     -0.039605 0.166667 0.833333     N
N     -0.039605 0.833333 0.166667     N
N     -0.039605 0.833333 0.833333     N
O          0.0      0.0 0.124686     O
O          0.0      0.0 0.875314     O
O          0.0 0.124686      0.0     O
C          0.0 0.252848 0.252848     C
C          0.0 0.252848 0.747152     C
C          0.0 0.313799 0.313799     C
C          0.0 0.313799 0.686201     C
O          0.0 0.375314      0.5     O
O          0.0      0.5 0.375314     O
O          0.0      0.5 0.624686     O
O          0.0 0.624686      0.5     O
C          0.0 0.686201 0.313799     C
C          0.0 0.686201 0.686201     C
C          0.0 0.747152 0.252848     C
C          0.0 0.747152 0.747152     C
O          0.0 0.875314      0.0     O
N     0.039605 0.166667 0.166667     N
N     0.039605 0.166667 0.833333     N
N     0.039605 0.833333 0.166667     N
N     0.039605 0.833333 0.833333     N
O     0.063049 0.339539 0.339539     O
O     0.063049 0.339539 0.660461     O
O     0.063049 0.660461 0.339539     O
O     0.063049 0.660461 0.660461     O
C     0.064082 0.219926 0.219926     C
C     0.064082 0.219926 0.780074     C
C     0.064082 0.780074 0.219926     C
C     0.064082 0.780074 0.780074     C
Ni    0.083879 -0.083879 -0.083879    Ni
Ni    0.083879 -0.083879 0.083879    Ni
Ni    0.083879 -0.083879 0.916139    Ni
Ni    0.083879 0.083879 -0.083879    Ni
Ni    0.083879 0.083879 0.083879    Ni
Ni    0.083879 0.083879 0.916139    Ni
Ni    0.083879 0.083879 1.083879    Ni
Ni    0.083879 0.416139 0.416139    Ni
Ni    0.083879 0.416139 0.583879    Ni
Ni    0.083879 0.583879 0.416139    Ni
Ni    0.083879 0.583879 0.583879    Ni
Ni    0.083879 0.916139 -0.083879    Ni
Ni    0.083879 0.916139 0.083879    Ni
Ni    0.083879 0.916139 0.916139    Ni
Ni    0.083879 0.916139 1.083879    Ni
Ni    0.083879 1.083879 0.083879    Ni
Ni    0.083879 1.083879 0.916139    Ni
H     0.124404 0.233784 0.233784     H
H     0.124404 0.233784 0.766216     H
H     0.124404 0.766216 0.233784     H
H     0.124404 0.766216 0.766216     H
O     0.124686      0.0      0.0     O
O     0.124686      0.5      0.5     O
O     0.160461 0.339539 0.436951     O
O     0.160461 0.339539 0.563049     O
O     0.160461 0.436951 0.660461     O
O     0.160461 0.563049 0.660461     O
N     0.166667 -0.039605 0.166667     N
N     0.166667 -0.039605 0.833333     N
N     0.166667 0.039605 0.166667     N
N     0.166667 0.039605 0.833333     N
N     0.166667 0.166667 -0.039605     N
N     0.166667 0.166667 0.039605     N
N     0.166667 0.460395 0.333333     N
N     0.166667 0.539605 0.333333     N
N     0.166667 0.666667 0.460395     N
N     0.166667 0.666667 0.539605     N
N     0.166667 0.833333 -0.039605     N
N     0.166667 0.833333 0.039605     N
C     0.186201 0.313799      0.5     C
C     0.186201      0.5 0.686201     C
C     0.219926 -0.064082 0.219926     C
C     0.219926 -0.064082 0.780074     C
C     0.219926 0.064082 0.219926     C
C     0.219926 0.064082 0.780074     C
C     0.219926 0.219926 -0.064082     C
C     0.219926 0.219926 0.064082     C
C     0.219926 0.435918 0.280074     C
C     0.219926 0.564082 0.280074     C
C     0.219926 0.719926 0.435918     C
C     0.219926 0.719926 0.564082     C
C     0.219926 0.780074 -0.064082     C
C     0.219926 0.780074 0.064082     C
H     0.233784 -0.124404 0.233784     H
H     0.233784 -0.124404 0.766216     H
H     0.233784 0.124404 0.233784     H
H     0.233784 0.124404 0.766216     H
H     0.233784 0.233784 -0.124404     H
H     0.233784 0.233784 0.124404     H
H     0.233784 0.375596 0.266216     H
H     0.233784 0.624404 0.266216     H
H     0.233784 0.733784 0.375596     H
H     0.233784 0.733784 0.624404     H
H     0.233784 0.766216 -0.124404     H
H     0.233784 0.766216 0.124404     H
C     0.247152 0.252848      0.5     C
C     0.247152      0.5 0.747152     C
C     0.252848      0.0 0.252848     C
C     0.252848      0.0 0.747152     C
C     0.252848 0.252848      0.0     C
C     0.252848      0.5 0.247152     C
C     0.252848 0.747152      0.0     C
C     0.252848 0.752848      0.5     C
H     0.266216 0.233784 0.375596     H
H     0.266216 0.233784 0.624404     H
H     0.266216 0.375596 0.766216     H
H     0.266216 0.624404 0.766216     H
C     0.280074 0.219926 0.435918     C
C     0.280074 0.219926 0.564082     C
C     0.280074 0.435918 0.780074     C
C     0.280074 0.564082 0.780074     C
C     0.313799      0.0 0.313799     C
C     0.313799      0.0 0.686201     C
C     0.313799 0.313799      0.0     C
C     0.313799      0.5 0.186201     C
C     0.313799 0.686201      0.0     C
C     0.313799 0.813799      0.5     C
N     0.333333 0.166667 0.460395     N
N     0.333333 0.166667 0.539605     N
N     0.333333 0.460395 0.833333     N
N     0.333333 0.539605 0.833333     N
O     0.339539 -0.063049 0.339539     O
O     0.339539 -0.063049 0.660461     O
O     0.339539 0.063049 0.339539     O
O     0.339539 0.063049 0.660461     O
O     0.339539 0.339539 -0.063049     O
O     0.339539 0.339539 0.063049     O
O     0.339539 0.436951 0.160461     O
O     0.339539 0.563049 0.160461     O
O     0.339539 0.660461 -0.063049     O
O     0.339539 0.660461 0.063049     O
O     0.339539 0.839539 0.436951     O
O     0.339539 0.839539 0.563049     O
O     0.375314      0.0      0.5     O
O     0.375314      0.5      0.0     O
H     0.375596 0.233784 0.733784     H
H     0.375596 0.266216 0.233784     H
H     0.375596 0.733784 0.766216     H
H     0.375596 0.766216 0.266216     H
Ni    0.416139 -0.083879 0.416139    Ni
Ni    0.416139 -0.083879 0.583879    Ni
Ni    0.416139 0.083879 0.416139    Ni
Ni    0.416139 0.083879 0.583879    Ni
Ni    0.416139 0.416139 -0.083879    Ni
Ni    0.416139 0.416139 0.083879    Ni
Ni    0.416139 0.416139 0.916139    Ni
Ni    0.416139 0.416139 1.083879    Ni
Ni    0.416139 0.583879 -0.083879    Ni
Ni    0.416139 0.583879 0.083879    Ni
Ni    0.416139 0.583879 0.916139    Ni
Ni    0.416139 0.583879 1.083879    Ni
Ni    0.416139 0.916139 0.416139    Ni
Ni    0.416139 0.916139 0.583879    Ni
Ni    0.416139 1.083879 0.416139    Ni
Ni    0.416139 1.083879 0.583879    Ni
C     0.435918 0.219926 0.719926     C
C     0.435918 0.280074 0.219926     C
C     0.435918 0.719926 0.780074     C
C     0.435918 0.780074 0.280074     C
O     0.436951 0.160461 0.339539     O
O     0.436951 0.339539 0.839539     O
O     0.436951 0.660461 0.160461     O
O     0.436951 0.839539 0.660461     O
N     0.460395 0.166667 0.666667     N
N     0.460395 0.333333 0.166667     N
N     0.460395 0.666667 0.833333     N
N     0.460395 0.833333 0.333333     N
O          0.5      0.0 0.375314     O
O          0.5      0.0 0.624686     O
O          0.5 0.124686      0.5     O
C          0.5 0.186201 0.313799     C
C          0.5 0.247152 0.252848     C
C          0.5 0.252848 0.752848     C
C          0.5 0.313799 0.813799     C
O          0.5 0.375314      0.0     O
O          0.5      0.5 0.124686     O
O          0.5      0.5 0.875314     O
O          0.5 0.624686      0.0     O
C          0.5 0.686201 0.186201     C
C          0.5 0.747152 0.247152     C
C          0.5 0.752848 0.747152     C
C          0.5 0.813799 0.686201     C
O          0.5 0.875314      0.5     O
N     0.539605 0.166667 0.666667     N
N     0.539605 0.333333 0.166667     N
N     0.539605 0.666667 0.833333     N
N     0.539605 0.833333 0.333333     N
O     0.563049 0.160461 0.339539     O
O     0.563049 0.339539 0.839539     O
O     0.563049 0.660461 0.160461     O
O     0.563049 0.839539 0.660461     O
C     0.564082 0.219926 0.719926     C
C     0.564082 0.280074 0.219926     C
C     0.564082 0.719926 0.780074     C
C     0.564082 0.780074 0.280074     C
Ni    0.583879 -0.083879 0.416139    Ni
Ni    0.583879 -0.083879 0.583879    Ni
Ni    0.583879 0.083879 0.416139    Ni
Ni    0.583879 0.083879 0.583879    Ni
Ni    0.583879 0.416139 -0.083879    Ni
Ni    0.583879 0.416139 0.083879    Ni
Ni    0.583879 0.416139 0.916139    Ni
Ni    0.583879 0.416139 1.083879    Ni
Ni    0.583879 0.583879 -0.083879    Ni
Ni    0.583879 0.583879 0.083879    Ni
Ni    0.583879 0.583879 0.916139    Ni
Ni    0.583879 0.583879 1.083879    Ni
Ni    0.583879 0.916139 0.416139    Ni
Ni    0.583879 0.916139 0.583879    Ni
Ni    0.583879 1.083879 0.416139    Ni
Ni    0.583879 1.083879 0.583879    Ni
H     0.624404 0.233784 0.733784     H
H     0.624404 0.266216 0.233784     H
H     0.624404 0.733784 0.766216     H
H     0.624404 0.766216 0.266216     H
O     0.624686      0.0      0.5     O
O     0.624686      0.5      0.0     O
O     0.660461 -0.063049 0.339539     O
O     0.660461 0.063049 0.339539     O
O     0.660461 0.160461 0.436951     O
O     0.660461 0.160461 0.563049     O
O     0.660461 0.339539 -0.063049     O
O     0.660461 0.339539 0.063049     O
O     0.660461 0.436951 0.160461     O
O     0.660461 0.436951 0.839539     O
O     0.660461 0.563049 0.160461     O
O     0.660461 0.563049 0.839539     O
O     0.660461 0.660461 -0.063049     O
O     0.660461 0.660461 0.063049     O
N     0.666667 -0.039605 0.666667     N
N     0.666667 0.039605 0.666667     N
N     0.666667 0.833333 0.460395     N
N     0.666667 0.833333 0.539605     N
C     0.686201      0.0 0.313799     C
C     0.686201 0.186201      0.5     C
C     0.686201 0.313799      0.0     C
C     0.686201      0.5 0.186201     C
C     0.686201      0.5 0.813799     C
C     0.686201 0.686201      0.0     C
C     0.719926 -0.064082 0.719926     C
C     0.719926 0.064082 0.719926     C
C     0.719926 0.780074 0.435918     C
C     0.719926 0.780074 0.564082     C
H     0.733784 -0.124404 0.733784     H
H     0.733784 0.124404 0.733784     H
H     0.733784 0.766216 0.375596     H
H     0.733784 0.766216 0.624404     H
C     0.747152      0.0 0.252848     C
C     0.747152 0.247152      0.5     C
C     0.747152 0.252848      0.0     C
C     0.747152      0.5 0.247152     C
C     0.747152      0.5 0.752848     C
C     0.747152 0.747152      0.0     C
C     0.752848      0.0 0.752848     C
C     0.752848 0.747152      0.5     C
H     0.766216 -0.124404 0.233784     H
H     0.766216 0.124404 0.233784     H
H     0.766216 0.233784 -0.124404     H
H     0.766216 0.233784 0.124404     H
H     0.766216 0.266216 0.375596     H
H     0.766216 0.266216 0.624404     H
H     0.766216 0.375596 0.266216     H
H     0.766216 0.375596 0.733784     H
H     0.766216 0.624404 0.266216     H
H     0.766216 0.624404 0.733784     H
H     0.766216 0.766216 -0.124404     H
H     0.766216 0.766216 0.124404     H
C     0.780074 -0.064082 0.219926     C
C     0.780074 0.064082 0.219926     C
C     0.780074 0.219926 -0.064082     C
C     0.780074 0.219926 0.064082     C
C     0.780074 0.280074 0.435918     C
C     0.780074 0.280074 0.564082     C
C     0.780074 0.435918 0.280074     C
C     0.780074 0.435918 0.719926     C
C     0.780074 0.564082 0.280074     C
C     0.780074 0.564082 0.719926     C
C     0.780074 0.780074 -0.064082     C
C     0.780074 0.780074 0.064082     C
C     0.813799      0.0 0.813799     C
C     0.813799 0.686201      0.5     C
N     0.833333 -0.039605 0.166667     N
N     0.833333 0.039605 0.166667     N
N     0.833333 0.166667 -0.039605     N
N     0.833333 0.166667 0.039605     N
N     0.833333 0.333333 0.460395     N
N     0.833333 0.333333 0.539605     N
N     0.833333 0.460395 0.333333     N
N     0.833333 0.460395 0.666667     N
N     0.833333 0.539605 0.333333     N
N     0.833333 0.539605 0.666667     N
N     0.833333 0.833333 -0.039605     N
N     0.833333 0.833333 0.039605     N
O     0.839539 -0.063049 0.839539     O
O     0.839539 0.063049 0.839539     O
O     0.839539 0.660461 0.436951     O
O     0.839539 0.660461 0.563049     O
O     0.875314      0.0      0.0     O
O     0.875314      0.5      0.5     O
Ni    0.916139 -0.083879 -0.083879    Ni
Ni    0.916139 -0.083879 0.083879    Ni
Ni    0.916139 -0.083879 0.916139    Ni
Ni    0.916139 0.083879 -0.083879    Ni
Ni    0.916139 0.083879 0.083879    Ni
Ni    0.916139 0.083879 0.916139    Ni
Ni    0.916139 0.083879 1.083879    Ni
Ni    0.916139 0.416139 0.416139    Ni
Ni    0.916139 0.416139 0.583879    Ni
Ni    0.916139 0.583879 0.416139    Ni
Ni    0.916139 0.583879 0.583879    Ni
Ni    0.916139 0.916139 -0.083879    Ni
Ni    0.916139 0.916139 0.083879    Ni
Ni    0.916139 1.083879 -0.083879    Ni
Ni    0.916139 1.083879 0.083879    Ni
Ni    1.083879 0.083879 0.083879    Ni
Ni    1.083879 0.083879 0.916139    Ni
Ni    1.083879 0.416139 0.416139    Ni
Ni    1.083879 0.416139 0.583879    Ni
Ni    1.083879 0.583879 0.416139    Ni
Ni    1.083879 0.583879 0.583879    Ni
Ni    1.083879 0.916139 -0.083879    Ni
Ni    1.083879 0.916139 0.083879    Ni
