data_I
_chemical_name_common  '/home/zhangsd/repos/MofS-CGCNN/ML/data/WS24/clean_cifs/Ni_L13_2'
_cell_length_a  8.37228
_cell_length_b 34.92330
_cell_length_c 11.48881
_cell_angle_alpha 90.00000
_cell_angle_beta  105.59020
_cell_angle_gamma 90.00000
_space_group_name_H-M_alt      'P 1'


loop_
_space_group_symop_operation_xyz
  'x, y, z' 

loop_
_atom_site_label
_atom_site_fract_x
_atom_site_fract_y
_atom_site_fract_z
_atom_site_type_symbol
H       0.0218   0.2075   0.4105     H
H       0.0218   0.2925   0.9105     H
H       0.0365   0.0682   0.2552     H
H       0.0365   0.4318   0.7552     H
C      0.04614 0.745511  0.97844     C
C      0.04614 0.754491  0.47844     C
C      0.05675 0.712391  0.04754     C
C      0.05675 0.787611  0.54754     C
C      0.07235 0.502089  0.85254     C
C      0.07235 0.997929  0.35254     C
C      0.07254 0.571329  0.84264     C
C      0.07254 0.928689  0.34264     C
C      0.09264 0.070481  0.72474     C
C      0.09264 0.429521  0.22474     C
C      0.09325 0.002201  0.71594     C
C      0.09325 0.497801  0.21594     C
C      0.09615 0.228261  0.03614     C
C      0.09615 0.271741  0.53614     C
H       0.1067   0.2284    0.864     H
H       0.1067   0.2716    0.364     H
O      0.10754 0.636367  0.79952     O
O      0.10754 0.863647  0.29952     O
C      0.12615 0.067581  0.32364     C
C      0.12615 0.432421  0.82364     C
H       0.1322   0.1823   0.7247     H
H       0.1322   0.3177   0.2247     H
H       0.1324   0.2191   0.2156     H
H       0.1324   0.2809   0.7156     H
H       0.1473   0.0934   0.7509     H
H       0.1473   0.4066   0.2509     H
H       0.1479    0.521   0.2367     H
H       0.1479    0.979   0.7367     H
C      0.15275 0.537179  0.88344     C
C      0.15275 0.962839  0.38344     C
C      0.15815 0.218651  0.94024     C
C      0.15815 0.281351  0.44024     C
C      0.16354 0.608951  0.86684     C
C      0.16354 0.891051  0.36684     C
C      0.16445 0.034089  0.39004     C
C      0.16445 0.465929  0.89004     C
H       0.1709   0.7264   0.3766     H
H       0.1709   0.7736   0.8766     H
C      0.17115 0.748381  0.42224     C
C      0.17115 0.751621  0.92224     C
C      0.17394 0.213359  0.15034     C
C      0.17394 0.286659  0.65034     C
C      0.17765 0.035971  0.75374     C
C      0.17765 0.464031  0.25374     C
C      0.18445 0.686941  0.05334     C
C      0.18445 0.813061  0.55334     C
H       0.1881   0.6647   0.0986     H
H       0.1881   0.8353   0.5986     H
H       0.1913   0.1218   0.3116     H
H       0.1913   0.3782   0.8116     H
C      0.22025 0.0999311  0.35864     C
C      0.22025 0.4000711  0.85864     C
H       0.2265   0.1635   0.5653     H
H       0.2265   0.3365   0.0653     H
C      0.24515 0.178381  0.73554     C
C      0.24515 0.321621  0.23554     C
H       0.2614   0.5376   0.9318     H
H       0.2614   0.9624   0.4318     H
O      0.29524 0.608876  0.95412     O
O      0.29524 0.891136  0.45412     O
C      0.29525 0.194921  0.95414     C
C      0.29525 0.305081  0.45414     C
C      0.29585 0.724881  0.93434     C
C      0.29585 0.775121  0.43434     C
C      0.29615 0.036531  0.49274     C
C      0.29615 0.463471  0.99274     C
N      0.30257  0.53812  0.56145     N
N      0.30257  0.96192  0.06145     N
C      0.30305 0.167291  0.63974     C
C      0.30305 0.332711  0.13974     C
N      0.30364 0.692507  0.99702     N
N      0.30364 0.807507  0.49702     N
H       0.3046   0.0115   0.1348     H
H       0.3046   0.4885   0.6348     H
C      0.31224 0.190159  0.16664     C
C      0.31224 0.309859  0.66664     C
H       0.3172    0.663   0.7345     H
H       0.3172    0.837   0.2345     H
H       0.3258   0.0153   0.5428     H
H       0.3258   0.4847   0.0428     H
O      0.34284 0.184866  0.37852     O
O      0.34284 0.315146  0.87852     O
N      0.35044 0.102018  0.45574     N
N      0.35044 0.397998  0.95574     N
C      0.35554 0.183809  0.84894     C
C      0.35554 0.316209  0.34894     C
C      0.35645 0.0361011  0.82084     C
C      0.35645 0.4639011  0.32084     C
H       0.3573    0.587   0.5025     H
H       0.3573    0.913   0.0025     H
H       0.3622   0.0867   0.9058     H
H       0.3622   0.4133   0.4058     H
C      0.37217  0.50912  0.62745     C
C      0.37217  0.99092  0.12745     C
C      0.37375 0.181031  0.06974     C
C      0.37375 0.318971  0.56974     C
H       0.3791   0.7297   0.8965     H
H       0.3791   0.7703   0.3965     H
C      0.38335 0.070111  0.52104     C
C      0.38335 0.429891  0.02104     C
C      0.39204 0.173939  0.28874     C
C      0.39204 0.326079  0.78874     C
H       0.3989   0.6807   0.5683     H
H       0.3989   0.8193   0.0683     H
C      0.40258  0.56612  0.55037     C
C      0.40258  0.93392  0.05037     C
H       0.4185    0.515   0.2673     H
H       0.4185    0.985   0.7673     H
C      0.42747 0.0662814  0.89385     C
C      0.42747 0.4337214  0.39385     C
C      0.42965 0.666841  0.74274     C
C      0.42965 0.833161  0.24274     C
C      0.46007 0.0066214  0.81274     C
C      0.46007 0.4933814  0.31274     C
N      0.46434 0.161607  0.64772     N
N      0.46434 0.338407  0.14772     N
H       0.4674   0.1657   0.0813     H
H       0.4674   0.3343   0.5813     H
H       0.4713   0.0706   0.5905     H
H       0.4713   0.4294   0.0905     H
Ni    0.476945 0.64860411 0.009104    Ni
Ni    0.476945 0.85139611 0.509104    Ni
C      0.47775 0.677581  0.64214     C
C      0.47775 0.822421  0.14214     C
O      0.49454 0.649366  0.19912     O
O      0.49454 0.850646  0.69912     O
O      0.50554 0.149366  0.30092     O
O      0.50554 0.350646  0.80092     O
C      0.52235 0.177581  0.85794     C
C      0.52235 0.322421  0.35794     C
Ni    0.523065 0.14860411 0.490904    Ni
Ni    0.523065 0.35139611 0.990904    Ni
H       0.5287   0.5706   0.9095     H
H       0.5287   0.9294   0.4095     H
H       0.5326   0.6657   0.4187     H
H       0.5326   0.8343   0.9187     H
N      0.53574 0.661607  0.85232     N
N      0.53574 0.838407  0.35232     N
C      0.54007 0.5066214  0.68734     C
C      0.54007 0.9933814  0.18734     C
C      0.57045 0.166841  0.75734     C
C      0.57045 0.333161  0.25734     C
C      0.57267 0.5662814  0.60625     C
C      0.57267 0.9337214  0.10625     C
H       0.5815    0.015   0.2327     H
H       0.5815    0.485   0.7327     H
C      0.59758  0.06612  0.94977     C
C      0.59758  0.43392  0.44977     C
H       0.6011   0.1807   0.9317     H
H       0.6011   0.3193   0.4317     H
C      0.60804 0.673939  0.21134     C
C      0.60804 0.826079  0.71134     C
C      0.61675 0.570111  0.97904     C
C      0.61675 0.929891  0.47904     C
H       0.6209   0.2297   0.6035     H
H       0.6209   0.2703   0.1035     H
C      0.62635 0.681031  0.43034     C
C      0.62635 0.818971  0.93034     C
C      0.62797  0.00912  0.87265     C
C      0.62797  0.49092  0.37265     C
H       0.6378   0.5867   0.5942     H
H       0.6378   0.9133   0.0942     H
H       0.6427    0.087   0.9975     H
H       0.6427    0.413   0.4975     H
C      0.64365 0.5361011  0.67924     C
C      0.64365 0.9639011  0.17924     C
C      0.64454 0.683809  0.65114     C
C      0.64454 0.816209  0.15114     C
N      0.64964 0.602018  0.04434     N
N      0.64964 0.897998  0.54434     N
O      0.65724 0.684866  0.12152     O
O      0.65724 0.815146  0.62152     O
H       0.6742   0.5153   0.9572     H
H       0.6742   0.9847   0.4572     H
H       0.6828    0.163   0.7655     H
H       0.6828    0.337   0.2655     H
C      0.68784 0.690159  0.33344     C
C      0.68784 0.809859  0.83344     C
H       0.6954   0.5115   0.3652     H
H       0.6954   0.9885   0.8652     H
N      0.69644 0.192507  0.50302     N
N      0.69644 0.307507  0.00302     N
C      0.69705 0.667291  0.86034     C
C      0.69705 0.832711  0.36034     C
N      0.69757  0.03812  0.93865     N
N      0.69757  0.46192  0.43865     N
C      0.70395 0.536531  0.00734     C
C      0.70395 0.963471  0.50734     C
C      0.70425 0.224881  0.56574     C
C      0.70425 0.275121  0.06574     C
O      0.70484 0.108876  0.54592     O
O      0.70484 0.391136  0.04592     O
C      0.70485 0.694921  0.54594     C
C      0.70485 0.805081  0.04594     C
H       0.7386   0.0376   0.5682     H
H       0.7386   0.4624   0.0682     H
C      0.75495 0.678381  0.76454     C
C      0.75495 0.821621  0.26454     C
H       0.7735   0.6635   0.9347     H
H       0.7735   0.8365   0.4347     H
C      0.77985 0.5999311  0.14144     C
C      0.77985 0.9000711  0.64144     C
H       0.8087   0.6218   0.1884     H
H       0.8087   0.8782   0.6884     H
H       0.8119   0.1647   0.4014     H
H       0.8119   0.3353   0.9014     H
C      0.81565 0.186941  0.44674     C
C      0.81565 0.313061  0.94674     C
C      0.82245 0.535971  0.74634     C
C      0.82245 0.964031  0.24634     C
C      0.82614 0.713359  0.34974     C
C      0.82614 0.786659  0.84974     C
C      0.82895 0.248381  0.07784     C
C      0.82895 0.251621  0.57784     C
H       0.8291   0.2264   0.1234     H
H       0.8291   0.2736   0.6234     H
C      0.83565 0.534089  0.11004     C
C      0.83565 0.965929  0.61004     C
C      0.83654 0.108951  0.63324     C
C      0.83654 0.391051  0.13324     C
C      0.84195 0.718651  0.55984     C
C      0.84195 0.781351  0.05984     C
C      0.84735 0.037179  0.61664     C
C      0.84735 0.462839  0.11664     C
H       0.8521    0.021   0.2633     H
H       0.8521    0.479   0.7633     H
H       0.8527   0.5934   0.7491     H
H       0.8527   0.9066   0.2491     H
H       0.8676   0.7191   0.2844     H
H       0.8676   0.7809   0.7844     H
H       0.8678   0.6823   0.7753     H
H       0.8678   0.8177   0.2753     H
C      0.87395 0.567581  0.17644     C
C      0.87395 0.932421  0.67644     C
O      0.89254 0.136367  0.70052     O
O      0.89254 0.363647  0.20052     O
H       0.8933   0.7284    0.636     H
H       0.8933   0.7716    0.136     H
C      0.90395 0.728261  0.46394     C
C      0.90395 0.771741  0.96394     C
C      0.90685 0.502201  0.78414     C
C      0.90685 0.997801  0.28414     C
C      0.90744 0.570481  0.77534     C
C      0.90744 0.929521  0.27534     C
C      0.92754 0.071329  0.65744     C
C      0.92754 0.428689  0.15744     C
C      0.92775 0.002089  0.64754     C
C      0.92775 0.497929  0.14754     C
C      0.94335 0.212391  0.45254     C
C      0.94335 0.287611  0.95254     C
C      0.95394 0.245511  0.52164     C
C      0.95394 0.254491  0.02164     C
H       0.9635   0.5682   0.2448     H
H       0.9635   0.9318   0.7448     H
H       0.9782   0.7075   0.0895     H
H       0.9782   0.7925   0.5895     H
