data_I
_chemical_name_common  '/home/zhangsd/repos/MofS-CGCNN/ML/data/WS24/clean_cifs/OHOLIH'
_cell_length_a 10.67300
_cell_length_b 12.10060
_cell_length_c 12.10060
_cell_angle_alpha 96.10650
_cell_angle_beta  104.57100
_cell_angle_gamma 75.42920
_space_group_name_H-M_alt      'P 1'


loop_
_space_group_symop_operation_xyz
  'x, y, z' 

loop_
_atom_site_label
_atom_site_fract_x
_atom_site_fract_y
_atom_site_fract_z
_atom_site_type_symbol
Zn         0.0      0.0      0.0    Zn
O       0.0076   0.9096    0.847     O
C        0.023    0.132   0.3532     C
C       0.0533   0.8293   0.2497     C
C       0.0551   0.1364    0.558     C
C       0.0729    0.112   0.2454     C
C       0.0829   0.8304    0.453     C
C       0.0887   0.1315   0.7637     C
H       0.0892   0.8154   0.1848     H
C       0.1057   0.1195   0.4583     C
C        0.116   0.8439   0.6581     C
O       0.1203   0.1161   0.9635     O
C        0.134   0.8124   0.3532     C
C       0.1395   0.1165   0.6697     C
C       0.1693   0.8219   0.5643     C
H       0.1729   0.8429   0.7315     H
C       0.1794   0.1039   0.8795     C
O       0.1878    0.121   0.2542     O
H       0.1982   0.0991   0.4653     H
O       0.1993   0.8901   0.0749     O
H       0.2264    0.788   0.3602     H
H       0.2322   0.0927   0.6781     H
H       0.2379   0.5731   0.8013     H
Zn        0.25  0.11388  0.11388    Zn
H       0.2621   0.8013   0.5731     H
H       0.2678   0.6781   0.0927     H
H       0.2736   0.3602    0.788     H
O       0.3007   0.0749   0.8901     O
H       0.3018   0.4653   0.0991     H
O       0.3122   0.2542    0.121     O
C       0.3206   0.8795   0.1039     C
H       0.3271   0.7315   0.8429     H
C       0.3307   0.5643   0.8219     C
C       0.3605   0.6697   0.1165     C
C        0.366   0.3532   0.8124     C
O       0.3797   0.9635   0.1161     O
C        0.384   0.6581   0.8439     C
C       0.3943   0.4583   0.1195     C
H       0.4108   0.1848   0.8154     H
C       0.4113   0.7637   0.1315     C
C       0.4171    0.453   0.8304     C
C       0.4271   0.2454    0.112     C
C       0.4449    0.558   0.1364     C
C       0.4467   0.2497   0.8293     C
C        0.477   0.3532    0.132     C
O       0.4924    0.847   0.9096     O
Zn         0.5     -0.0     -0.0    Zn
O       0.5076    0.153   0.0904     O
C        0.523   0.6468    0.868     C
C       0.5533   0.7503   0.1707     C
C       0.5551    0.442   0.8636     C
C       0.5729   0.7546    0.888     C
C       0.5829    0.547   0.1696     C
C       0.5887   0.2363   0.8685     C
H       0.5892   0.8152   0.1846     H
C       0.6057   0.5417   0.8805     C
C        0.616   0.3419   0.1561     C
O       0.6203   0.0365   0.8839     O
C        0.634   0.6468   0.1876     C
C       0.6395   0.3303   0.8835     C
C       0.6693   0.4357   0.1781     C
H       0.6729   0.2685   0.1571     H
C       0.6794   0.1205   0.8961     C
O       0.6878   0.7458    0.879     O
H       0.6982   0.5347   0.9009     H
O       0.6993   0.9251   0.1099     O
H       0.7264   0.6398    0.212     H
H       0.7322   0.3219   0.9073     H
H       0.7379   0.1987   0.4269     H
Zn        0.75  0.88612  0.88612    Zn
H       0.7621   0.4269   0.1987     H
H       0.7678   0.9073   0.3219     H
H       0.7736    0.212   0.6398     H
O       0.8007   0.1099   0.9251     O
H       0.8018   0.9009   0.5347     H
O       0.8122    0.879   0.7458     O
C       0.8206   0.8961   0.1205     C
H       0.8271   0.1571   0.2685     H
C       0.8307   0.1781   0.4357     C
C       0.8605   0.8835   0.3303     C
C        0.866   0.1876   0.6468     C
O       0.8797   0.8839   0.0365     O
C        0.884   0.1561   0.3419     C
C       0.8943   0.8805   0.5417     C
H       0.9108   0.1846   0.8152     H
C       0.9113   0.8685   0.2363     C
C       0.9171   0.1696    0.547     C
C       0.9271    0.888   0.7546     C
C       0.9449   0.8636    0.442     C
C       0.9467   0.1707   0.7503     C
C        0.977    0.868   0.6468     C
O       0.9924   0.0904    0.153     O
