data_I
_chemical_name_common  '/home/zhangsd/repos/MofS-CGCNN/ML/data/WS24/clean_cifs/OHUMIP'
_cell_length_a 28.88180
_cell_length_b 27.40170
_cell_length_c 26.78890
_cell_angle_alpha 90.00000
_cell_angle_beta  104.86000
_cell_angle_gamma 90.00000
_space_group_name_H-M_alt      'P 1'


loop_
_space_group_symop_operation_xyz
  'x, y, z' 

loop_
_atom_site_label
_atom_site_fract_x
_atom_site_fract_y
_atom_site_fract_z
_atom_site_type_symbol
C       0.0011   0.2415   0.4355     C
C       0.0011   0.7585   0.9355     C
O       0.0025   0.2848   0.0469     O
O       0.0025   0.7152   0.5469     O
O       0.0308   0.2197   0.0962     O
O       0.0308   0.7803   0.5962     O
H        0.031   0.1556   0.4135     H
H        0.031   0.8444   0.9135     H
C       0.0476   0.2165   0.4568     C
C       0.0476   0.7835   0.9568     C
C       0.0547   0.1697   0.4397     C
C       0.0547   0.8303   0.9397     C
Zn     0.06608  0.31228  0.06702    Zn
Zn     0.06608  0.68772  0.56702    Zn
O      0.07111  0.40861   0.1317     O
O      0.07111  0.59139   0.6317     O
O      0.07861   0.3759   0.0405     O
O      0.07861   0.6241   0.5405     O
H       0.0808   0.2685    0.505     H
H       0.0808   0.7315    0.005     H
C       0.0842   0.2369   0.4938     C
C       0.0842   0.7631   0.9938     C
O      0.09086    0.314   0.1436     O
O      0.09086    0.686   0.6436     O
Mo      0.0927  0.43793  0.08061    Mo
Mo      0.0927  0.56207  0.58061    Mo
C       0.0957   0.1441   0.4607     C
C       0.0957   0.8559   0.9607     C
H       0.0989   0.1126   0.4491     H
H       0.0989   0.8874   0.9491     H
O      0.10067  0.31914  0.96861     O
O      0.10067  0.68086  0.46861     O
O      0.10924  0.26304  0.04963     O
O      0.10924  0.73696  0.54963     O
Mo     0.10998  0.36904  0.19061    Mo
Mo     0.10998  0.63096  0.69061    Mo
Mo     0.11015  0.38359  0.98193    Mo
Mo     0.11015  0.61641  0.48193    Mo
O      0.12419  0.22171   0.1442     O
O      0.12419  0.77829   0.6442     O
C       0.1263   0.2113   0.5151     C
C       0.1263   0.7887   0.0151     C
C       0.1323   0.1639   0.4988     C
C       0.1323   0.8361   0.9988     C
O      0.13334  0.44022  0.03098     O
O      0.13334  0.55978  0.53098     O
O      0.13374  0.47994   0.1227     O
O      0.13374  0.52006   0.6227     O
Mo     0.13791  0.27816  0.19626    Mo
Mo     0.13791  0.72184  0.69626    Mo
Mo     0.14689  0.26472  0.99846    Mo
Mo     0.14689  0.73528  0.49846    Mo
O        0.148   0.4322   0.2185     O
O        0.148   0.5678   0.7185     O
H       0.1506   0.2259   0.5402     H
H       0.1506   0.7741   0.0402     H
Mo     0.15863  0.21682  0.08511    Mo
Mo     0.15863  0.78318  0.58511    Mo
O      0.16144   0.1601   0.8792     O
O      0.16144   0.8399   0.3792     O
O      0.16317  0.39048   0.9581     O
O      0.16317  0.60952   0.4581     O
O      0.16944   0.3375    0.228     O
O      0.16944   0.6625    0.728     O
Mo     0.17638  0.17637  0.81965    Mo
Mo     0.17638  0.82363  0.31965    Mo
C       0.1764   0.1352   0.5222     C
C       0.1764   0.8648   0.0222     C
O      0.17705    0.114   0.7947     O
O      0.17705    0.886   0.2947     O
H       0.1787   0.0972    0.459     H
H       0.1787   0.9028    0.959     H
H       0.1878    0.162   0.5943     H
H       0.1878    0.838   0.0943     H
O      0.18942  0.06176   0.8876     O
O      0.18942  0.93824   0.3876     O
O      0.19194  0.29465  0.96111     O
O      0.19194  0.70535  0.46111     O
Mo     0.19254  0.46321  0.17754    Mo
Mo     0.19254  0.53679  0.67754    Mo
C       0.1942   0.1013   0.4937     C
C       0.1942   0.8987   0.9937     C
Zn     0.19879  0.46491  0.04487    Zn
Zn     0.19879  0.53509  0.54487    Zn
C       0.1995   0.1398   0.5743     C
C       0.1995   0.8602   0.0743     C
Mo     0.20001  0.12039  0.93848    Mo
Mo     0.20001  0.87961  0.43848    Mo
O        0.202   0.2478   0.2244     O
O        0.202   0.7522   0.7244     O
O       0.2033   0.4089   0.3243     O
O       0.2033   0.5911   0.8243     O
O       0.2043  0.23892  0.04715     O
O       0.2043  0.76108  0.54715     O
O      0.20766  0.48002   0.5031     O
O      0.20766  0.51998   0.0031     O
O      0.21024  0.23587    0.855     O
O      0.21024  0.76413    0.355     O
H       0.2158   0.4399   0.4183     H
H       0.2158   0.5601   0.9183     H
O      0.21736  0.20111  0.14066     O
O      0.21736  0.79889  0.64066     O
O       0.2196   0.0216   0.4419     O
O       0.2196   0.9784   0.9419     O
Mo     0.22128  0.06011  0.82712    Mo
Mo     0.22128  0.93989  0.32712    Mo
O      0.22386  0.46776   0.1213     O
O      0.22386  0.53224   0.6213     O
O      0.22405   0.1946  0.78016     O
O      0.22405   0.8054  0.28016     O
Zn     0.22634  0.24719  0.92964    Zn
Zn     0.22634  0.75281  0.42964    Zn
Mo     0.22706  0.35701  0.98437    Mo
Mo     0.22706  0.64299  0.48437    Mo
O      0.22819   0.1831  0.96481     O
O      0.22819   0.8169  0.46481     O
C       0.2337   0.0734   0.5148     C
C       0.2337   0.9266   0.0148     C
O       0.2384   0.1446   0.6775     O
O       0.2384   0.8554   0.1775     O
C       0.2388   0.3843   0.3457     C
C       0.2388   0.6157   0.8457     C
Zn     0.23886  0.35142  0.24933    Zn
O      0.23886  0.41628   0.2171     O
O      0.23886  0.58372   0.7171     O
Zn     0.23886  0.64858  0.74933    Zn
C       0.2392   0.1123   0.5969     C
C       0.2392   0.8877   0.0969     C
O      0.24185  0.41547  0.02751     O
O      0.24185  0.58453  0.52751     O
C       0.2428   0.4214    0.433     C
C       0.2428   0.5786    0.933     C
C       0.2493   0.0359   0.4812     C
C       0.2493   0.9641   0.9812     C
Mo     0.24942  0.26004  0.80785    Mo
Mo     0.24942  0.73996  0.30785    Mo
Mo     0.25058  0.23996  0.19215    Mo
Mo     0.25058  0.76004  0.69215    Mo
C       0.2507   0.4641   0.5188     C
C       0.2507   0.5359   0.0188     C
C       0.2572   0.0786    0.567     C
C       0.2572   0.9214    0.067     C
O      0.25815  0.08453  0.97249     O
O      0.25815  0.91547  0.47249     O
C       0.2608   0.3877   0.4031     C
C       0.2608   0.6123   0.9031     C
O      0.26114  0.08372   0.7829     O
Zn     0.26114  0.14858  0.75067    Zn
Zn     0.26114  0.85142  0.25067    Zn
O      0.26114  0.91628   0.2829     O
C       0.2612   0.1157   0.6543     C
C       0.2612   0.8843   0.1543     C
O       0.2616   0.3554   0.3225     O
O       0.2616   0.6446   0.8225     O
C       0.2663   0.4266   0.4852     C
C       0.2663   0.5734   0.9852     C
O      0.27181   0.3169  0.03519     O
O      0.27181   0.6831  0.53519     O
Mo     0.27294  0.14299  0.01563    Mo
Mo     0.27294  0.85701  0.51563    Mo
Zn     0.27366  0.25281  0.07036    Zn
Zn     0.27366  0.74719  0.57036    Zn
O      0.27595   0.3054  0.21984     O
O      0.27595   0.6946  0.71984     O
O      0.27614  0.03224   0.8787     O
O      0.27614  0.96776   0.3787     O
Mo     0.27872  0.43989  0.17288    Mo
Mo     0.27872  0.56011  0.67288    Mo
O       0.2804   0.4784   0.5581     O
O       0.2804   0.5216   0.0581     O
O      0.28264  0.29889  0.85934     O
O      0.28264  0.70111  0.35934     O
H       0.2842   0.0601   0.5817     H
H       0.2842   0.9399   0.0817     H
O      0.28976  0.26413    0.145     O
O      0.28976  0.73587    0.645     O
O      0.29234  0.01998   0.4969     O
O      0.29234  0.98002   0.9969     O
O       0.2957  0.26108  0.95285     O
O       0.2957  0.73892  0.45285     O
O       0.2967   0.0911   0.6757     O
O       0.2967   0.9089   0.1757     O
O        0.298   0.2522   0.7756     O
O        0.298   0.7478   0.2756     O
Mo     0.29999  0.37961  0.06152    Mo
Mo     0.29999  0.62039  0.56152    Mo
C       0.3005   0.3602   0.4257     C
C       0.3005   0.6398   0.9257     C
Zn     0.30121  0.03509  0.95513    Zn
Zn     0.30121  0.96491  0.45513    Zn
C       0.3058   0.3987   0.5063     C
C       0.3058   0.6013   0.0063     C
Mo     0.30746  0.03679  0.82246    Mo
Mo     0.30746  0.96321  0.32246    Mo
O      0.30806  0.20535  0.03889     O
O      0.30806  0.79465  0.53889     O
O      0.31058  0.43824   0.1124     O
O      0.31058  0.56176   0.6124     O
H       0.3122    0.338   0.4057     H
H       0.3122    0.662   0.9057     H
H       0.3213   0.4028    0.541     H
H       0.3213   0.5972    0.041     H
O      0.32295    0.386   0.2053     O
O      0.32295    0.614   0.7053     O
C       0.3236   0.3648   0.4778     C
C       0.3236   0.6352   0.9778     C
Mo     0.32362  0.32363  0.18035    Mo
Mo     0.32362  0.67637  0.68035    Mo
O      0.33056   0.1625    0.772     O
O      0.33056   0.8375    0.272     O
O      0.33683  0.10952   0.0419     O
O      0.33683  0.89048   0.5419     O
O      0.33856   0.3399   0.1208     O
O      0.33856   0.6601   0.6208     O
Mo     0.34137  0.28318  0.91489    Mo
Mo     0.34137  0.71682  0.41489    Mo
H       0.3494   0.2741   0.4598     H
H       0.3494   0.7259   0.9598     H
O        0.352   0.0678   0.7815     O
O        0.352   0.9322   0.2815     O
Mo     0.35311  0.23528  0.00154    Mo
Mo     0.35311  0.76472  0.50154    Mo
Mo     0.36209  0.22184  0.80374    Mo
Mo     0.36209  0.77816  0.30374    Mo
O      0.36626  0.02006   0.8773     O
O      0.36626  0.97994   0.3773     O
O      0.36666  0.05978  0.96902     O
O      0.36666  0.94022  0.46902     O
C       0.3677   0.3361   0.5012     C
C       0.3677   0.6639   0.0012     C
C       0.3737   0.2887   0.4849     C
C       0.3737   0.7113   0.9849     C
O      0.37581  0.27829   0.8558     O
O      0.37581  0.72171   0.3558     O
Mo     0.38985  0.11641  0.01807    Mo
Mo     0.38985  0.88359  0.51807    Mo
Mo     0.39002  0.13096  0.80939    Mo
Mo     0.39002  0.86904  0.30939    Mo
O      0.39076  0.23696  0.95037     O
O      0.39076  0.76304  0.45037     O
O      0.39933  0.18086  0.03139     O
O      0.39933  0.81914  0.53139     O
H       0.4011   0.3874   0.5509     H
H       0.4011   0.6126   0.0509     H
C       0.4043   0.3559   0.5393     C
C       0.4043   0.6441   0.0393     C
Mo      0.4073  0.06207  0.91939    Mo
Mo      0.4073  0.93793  0.41939    Mo
O      0.40914    0.186   0.8564     O
O      0.40914    0.814   0.3564     O
C       0.4158   0.2631   0.5062     C
C       0.4158   0.7369   0.0062     C
H       0.4192   0.2315    0.495     H
H       0.4192   0.7685    0.995     H
O      0.42139   0.1241   0.9595     O
O      0.42139   0.8759   0.4595     O
O      0.42889  0.09139   0.8683     O
O      0.42889  0.90861   0.3683     O
Zn     0.43392  0.18772  0.93298    Zn
Zn     0.43392  0.81228  0.43298    Zn
C       0.4453   0.3303   0.5603     C
C       0.4453   0.6697   0.0603     C
C       0.4524   0.2835   0.5432     C
C       0.4524   0.7165   0.0432     C
H        0.469   0.3444   0.5865     H
H        0.469   0.6556   0.0865     H
O       0.4692   0.2803   0.9038     O
O       0.4692   0.7197   0.4038     O
O       0.4975   0.2152   0.9531     O
O       0.4975   0.7848   0.4531     O
C       0.4989   0.2585   0.5645     C
C       0.4989   0.7415   0.0645     C
C       0.5011   0.2585   0.9355     C
C       0.5011   0.7415   0.4355     C
O       0.5025   0.2152   0.5469     O
O       0.5025   0.7848   0.0469     O
O       0.5308   0.2803   0.5962     O
O       0.5308   0.7197   0.0962     O
H        0.531   0.3444   0.9135     H
H        0.531   0.6556   0.4135     H
C       0.5476   0.2835   0.9568     C
C       0.5476   0.7165   0.4568     C
C       0.5547   0.3303   0.9397     C
C       0.5547   0.6697   0.4397     C
Zn     0.56608  0.18772  0.56702    Zn
Zn     0.56608  0.81228  0.06702    Zn
O      0.57111  0.09139   0.6317     O
O      0.57111  0.90861   0.1317     O
O      0.57861   0.1241   0.5405     O
O      0.57861   0.8759   0.0405     O
H       0.5808   0.2315    0.005     H
H       0.5808   0.7685    0.505     H
C       0.5842   0.2631   0.9938     C
C       0.5842   0.7369   0.4938     C
O      0.59086    0.186   0.6436     O
O      0.59086    0.814   0.1436     O
Mo      0.5927  0.06207  0.58061    Mo
Mo      0.5927  0.93793  0.08061    Mo
C       0.5957   0.3559   0.9607     C
C       0.5957   0.6441   0.4607     C
H       0.5989   0.3874   0.9491     H
H       0.5989   0.6126   0.4491     H
O      0.60067  0.18086  0.46861     O
O      0.60067  0.81914  0.96861     O
O      0.60924  0.23696  0.54963     O
O      0.60924  0.76304  0.04963     O
Mo     0.60998  0.13096  0.69061    Mo
Mo     0.60998  0.86904  0.19061    Mo
Mo     0.61015  0.11641  0.48193    Mo
Mo     0.61015  0.88359  0.98193    Mo
O      0.62419  0.27829   0.6442     O
O      0.62419  0.72171   0.1442     O
C       0.6263   0.2887   0.0151     C
C       0.6263   0.7113   0.5151     C
C       0.6323   0.3361   0.9988     C
C       0.6323   0.6639   0.4988     C
O      0.63334  0.05978  0.53098     O
O      0.63334  0.94022  0.03098     O
O      0.63374  0.02006   0.6227     O
O      0.63374  0.97994   0.1227     O
Mo     0.63791  0.22184  0.69626    Mo
Mo     0.63791  0.77816  0.19626    Mo
Mo     0.64689  0.23528  0.49846    Mo
Mo     0.64689  0.76472  0.99846    Mo
O        0.648   0.0678   0.7185     O
O        0.648   0.9322   0.2185     O
H       0.6506   0.2741   0.0402     H
H       0.6506   0.7259   0.5402     H
Mo     0.65863  0.28318  0.58511    Mo
Mo     0.65863  0.71682  0.08511    Mo
O      0.66144   0.3399   0.3792     O
O      0.66144   0.6601   0.8792     O
O      0.66317  0.10952   0.4581     O
O      0.66317  0.89048   0.9581     O
O      0.66944   0.1625    0.728     O
O      0.66944   0.8375    0.228     O
Mo     0.67638  0.32363  0.31965    Mo
Mo     0.67638  0.67637  0.81965    Mo
C       0.6764   0.3648   0.0222     C
C       0.6764   0.6352   0.5222     C
O      0.67705    0.386   0.2947     O
O      0.67705    0.614   0.7947     O
H       0.6787   0.4028    0.959     H
H       0.6787   0.5972    0.459     H
H       0.6878    0.338   0.0943     H
H       0.6878    0.662   0.5943     H
O      0.68942  0.43824   0.3876     O
O      0.68942  0.56176   0.8876     O
O      0.69194  0.20535  0.46111     O
O      0.69194  0.79465  0.96111     O
Mo     0.69254  0.03679  0.67754    Mo
Mo     0.69254  0.96321  0.17754    Mo
C       0.6942   0.3987   0.9937     C
C       0.6942   0.6013   0.4937     C
Zn     0.69879  0.03509  0.54487    Zn
Zn     0.69879  0.96491  0.04487    Zn
C       0.6995   0.3602   0.0743     C
C       0.6995   0.6398   0.5743     C
Mo     0.70001  0.37961  0.43848    Mo
Mo     0.70001  0.62039  0.93848    Mo
O        0.702   0.2522   0.7244     O
O        0.702   0.7478   0.2244     O
O       0.7033   0.0911   0.8243     O
O       0.7033   0.9089   0.3243     O
O       0.7043  0.26108  0.54715     O
O       0.7043  0.73892  0.04715     O
O      0.70766  0.01998   0.0031     O
O      0.70766  0.98002   0.5031     O
O      0.71024  0.26413    0.355     O
O      0.71024  0.73587    0.855     O
H       0.7158   0.0601   0.9183     H
H       0.7158   0.9399   0.4183     H
O      0.71736  0.29889  0.64066     O
O      0.71736  0.70111  0.14066     O
O       0.7196   0.4784   0.9419     O
O       0.7196   0.5216   0.4419     O
Mo     0.72128  0.43989  0.32712    Mo
Mo     0.72128  0.56011  0.82712    Mo
O      0.72386  0.03224   0.6213     O
O      0.72386  0.96776   0.1213     O
O      0.72405   0.3054  0.28016     O
O      0.72405   0.6946  0.78016     O
Zn     0.72634  0.25281  0.42964    Zn
Zn     0.72634  0.74719  0.92964    Zn
Mo     0.72706  0.14299  0.48437    Mo
Mo     0.72706  0.85701  0.98437    Mo
O      0.72819   0.3169  0.46481     O
O      0.72819   0.6831  0.96481     O
C       0.7337   0.4266   0.0148     C
C       0.7337   0.5734   0.5148     C
O       0.7384   0.3554   0.1775     O
O       0.7384   0.6446   0.6775     O
C       0.7388   0.1157   0.8457     C
C       0.7388   0.8843   0.3457     C
O      0.73886  0.08372   0.7171     O
Zn     0.73886  0.14858  0.74933    Zn
Zn     0.73886  0.85142  0.24933    Zn
O      0.73886  0.91628   0.2171     O
C       0.7392   0.3877   0.0969     C
C       0.7392   0.6123   0.5969     C
O      0.74185  0.08453  0.52751     O
O      0.74185  0.91547  0.02751     O
C       0.7428   0.0786    0.933     C
C       0.7428   0.9214    0.433     C
C       0.7493   0.4641   0.9812     C
C       0.7493   0.5359   0.4812     C
Mo     0.74942  0.23996  0.30785    Mo
Mo     0.74942  0.76004  0.80785    Mo
Mo     0.75058  0.26004  0.69215    Mo
Mo     0.75058  0.73996  0.19215    Mo
C       0.7507   0.0359   0.0188     C
C       0.7507   0.9641   0.5188     C
C       0.7572   0.4214    0.067     C
C       0.7572   0.5786    0.567     C
O      0.75815  0.41547  0.47249     O
O      0.75815  0.58453  0.97249     O
C       0.7608   0.1123   0.9031     C
C       0.7608   0.8877   0.4031     C
Zn     0.76114  0.35142  0.25067    Zn
O      0.76114  0.41628   0.2829     O
O      0.76114  0.58372   0.7829     O
Zn     0.76114  0.64858  0.75067    Zn
C       0.7612   0.3843   0.1543     C
C       0.7612   0.6157   0.6543     C
O       0.7616   0.1446   0.8225     O
O       0.7616   0.8554   0.3225     O
C       0.7663   0.0734   0.9852     C
C       0.7663   0.9266   0.4852     C
O      0.77181   0.1831  0.53519     O
O      0.77181   0.8169  0.03519     O
Mo     0.77294  0.35701  0.51563    Mo
Mo     0.77294  0.64299  0.01563    Mo
Zn     0.77366  0.24719  0.57036    Zn
Zn     0.77366  0.75281  0.07036    Zn
O      0.77595   0.1946  0.71984     O
O      0.77595   0.8054  0.21984     O
O      0.77614  0.46776   0.3787     O
O      0.77614  0.53224   0.8787     O
Mo     0.77872  0.06011  0.67288    Mo
Mo     0.77872  0.93989  0.17288    Mo
O       0.7804   0.0216   0.0581     O
O       0.7804   0.9784   0.5581     O
O      0.78264  0.20111  0.35934     O
O      0.78264  0.79889  0.85934     O
H       0.7842   0.4399   0.0817     H
H       0.7842   0.5601   0.5817     H
O      0.78976  0.23587    0.645     O
O      0.78976  0.76413    0.145     O
O      0.79234  0.48002   0.9969     O
O      0.79234  0.51998   0.4969     O
O       0.7957  0.23892  0.45285     O
O       0.7957  0.76108  0.95285     O
O       0.7967   0.4089   0.1757     O
O       0.7967   0.5911   0.6757     O
O        0.798   0.2478   0.2756     O
O        0.798   0.7522   0.7756     O
Mo     0.79999  0.12039  0.56152    Mo
Mo     0.79999  0.87961  0.06152    Mo
C       0.8005   0.1398   0.9257     C
C       0.8005   0.8602   0.4257     C
Zn     0.80121  0.46491  0.45513    Zn
Zn     0.80121  0.53509  0.95513    Zn
C       0.8058   0.1013   0.0063     C
C       0.8058   0.8987   0.5063     C
Mo     0.80746  0.46321  0.32246    Mo
Mo     0.80746  0.53679  0.82246    Mo
O      0.80806  0.29465  0.53889     O
O      0.80806  0.70535  0.03889     O
O      0.81058  0.06176   0.6124     O
O      0.81058  0.93824   0.1124     O
H       0.8122    0.162   0.9057     H
H       0.8122    0.838   0.4057     H
H       0.8213   0.0972    0.041     H
H       0.8213   0.9028    0.541     H
O      0.82295    0.114   0.7053     O
O      0.82295    0.886   0.2053     O
C       0.8236   0.1352   0.9778     C
C       0.8236   0.8648   0.4778     C
Mo     0.82362  0.17637  0.68035    Mo
Mo     0.82362  0.82363  0.18035    Mo
O      0.83056   0.3375    0.272     O
O      0.83056   0.6625    0.772     O
O      0.83683  0.39048   0.5419     O
O      0.83683  0.60952   0.0419     O
O      0.83856   0.1601   0.6208     O
O      0.83856   0.8399   0.1208     O
Mo     0.84137  0.21682  0.41489    Mo
Mo     0.84137  0.78318  0.91489    Mo
H       0.8494   0.2259   0.9598     H
H       0.8494   0.7741   0.4598     H
O        0.852   0.4322   0.2815     O
O        0.852   0.5678   0.7815     O
Mo     0.85311  0.26472  0.50154    Mo
Mo     0.85311  0.73528  0.00154    Mo
Mo     0.86209  0.27816  0.30374    Mo
Mo     0.86209  0.72184  0.80374    Mo
O      0.86626  0.47994   0.3773     O
O      0.86626  0.52006   0.8773     O
O      0.86666  0.44022  0.46902     O
O      0.86666  0.55978  0.96902     O
C       0.8677   0.1639   0.0012     C
C       0.8677   0.8361   0.5012     C
C       0.8737   0.2113   0.9849     C
C       0.8737   0.7887   0.4849     C
O      0.87581  0.22171   0.3558     O
O      0.87581  0.77829   0.8558     O
Mo     0.88985  0.38359  0.51807    Mo
Mo     0.88985  0.61641  0.01807    Mo
Mo     0.89002  0.36904  0.30939    Mo
Mo     0.89002  0.63096  0.80939    Mo
O      0.89076  0.26304  0.45037     O
O      0.89076  0.73696  0.95037     O
O      0.89933  0.31914  0.53139     O
O      0.89933  0.68086  0.03139     O
H       0.9011   0.1126   0.0509     H
H       0.9011   0.8874   0.5509     H
C       0.9043   0.1441   0.0393     C
C       0.9043   0.8559   0.5393     C
Mo      0.9073  0.43793  0.41939    Mo
Mo      0.9073  0.56207  0.91939    Mo
O      0.90914    0.314   0.3564     O
O      0.90914    0.686   0.8564     O
C       0.9158   0.2369   0.0062     C
C       0.9158   0.7631   0.5062     C
H       0.9192   0.2685    0.995     H
H       0.9192   0.7315    0.495     H
O      0.92139   0.3759   0.4595     O
O      0.92139   0.6241   0.9595     O
O      0.92889  0.40861   0.3683     O
O      0.92889  0.59139   0.8683     O
Zn     0.93392  0.31228  0.43298    Zn
Zn     0.93392  0.68772  0.93298    Zn
C       0.9453   0.1697   0.0603     C
C       0.9453   0.8303   0.5603     C
C       0.9524   0.2165   0.0432     C
C       0.9524   0.7835   0.5432     C
H        0.969   0.1556   0.0865     H
H        0.969   0.8444   0.5865     H
O       0.9692   0.2197   0.4038     O
O       0.9692   0.7803   0.9038     O
O       0.9975   0.2848   0.4531     O
O       0.9975   0.7152   0.9531     O
C       0.9989   0.2415   0.0645     C
C       0.9989   0.7585   0.5645     C
