data_I
_chemical_name_common  '/home/zhangsd/repos/MofS-CGCNN/ML/data/WS24/clean_cifs/OLUGUZ'
_cell_length_a 12.13110
_cell_length_b 14.59240
_cell_length_c 20.41680
_cell_angle_alpha 90.00000
_cell_angle_beta  90.00000
_cell_angle_gamma 90.00000
_space_group_name_H-M_alt      'P 1'


loop_
_space_group_symop_operation_xyz
  'x, y, z' 

loop_
_atom_site_label
_atom_site_fract_x
_atom_site_fract_y
_atom_site_fract_z
_atom_site_type_symbol
O       0.0285  0.22851  0.83639     O
O       0.0285  0.77149  0.33639     O
O       0.0288  0.04346  0.83735     O
O       0.0288  0.95654  0.33735     O
Cu      0.0719  0.13541  0.69988    Cu
Cu      0.0719  0.86459  0.19988    Cu
H       0.0771   0.1249   0.5402     H
H       0.0771   0.8751   0.0402     H
H       0.0999   0.3697   0.0441     H
H       0.0999   0.6303   0.5441     H
C       0.1129   0.2551  0.80779     C
C       0.1129   0.7449  0.30779     C
C        0.113   0.0147  0.80802     C
C        0.113   0.9853  0.30802     C
H       0.1286   0.0205    0.434     H
H       0.1286   0.9795    0.934     H
H       0.1415   0.2809    0.934     H
H       0.1415   0.7191    0.434     H
O       0.1435  0.03726  0.75205     O
O       0.1435  0.96274  0.25205     O
O       0.1474  0.23091  0.75209     O
O       0.1474  0.76909  0.25209     O
C       0.1497   0.1272  0.55468     C
C       0.1497   0.8728  0.05468     C
C       0.1733   0.3706   0.0572     C
C       0.1733   0.6294   0.5572     C
C       0.1758    0.059  0.41094     C
C       0.1758    0.941  0.91094     C
N       0.1788   0.1319   0.6159     N
N       0.1788   0.8681   0.1159     N
C       0.1805   0.0547  0.34488     C
C       0.1805   0.9453  0.84488     C
C       0.1852   0.3222  0.84373     C
C       0.1852   0.6778  0.34373     C
C       0.1874   0.3207  0.91115     C
C       0.1874   0.6793  0.41115     C
N       0.2059   0.3689  0.11788     N
N       0.2059   0.6311  0.61788     N
N       0.2389   0.1259  0.51491     N
N       0.2389   0.8741  0.01491     N
C       0.2425    0.122   0.4447     C
C       0.2425    0.878   0.9447     C
C       0.2492   0.1163   0.3093     C
C       0.2492   0.8837   0.8093     C
H       0.2499   0.3846   0.7637     H
H       0.2499   0.6154   0.2637     H
H       0.2501   0.1154   0.2637     H
H       0.2501   0.8846   0.7637     H
C       0.2508   0.3837   0.8093     C
C       0.2508   0.6163   0.3093     C
C       0.2575    0.378   0.9447     C
C       0.2575    0.622   0.4447     C
N       0.2611   0.3741  0.01491     N
N       0.2611   0.6259  0.51491     N
N       0.2941   0.1311  0.61788     N
N       0.2941   0.8689  0.11788     N
C       0.3126   0.1793  0.41115     C
C       0.3126   0.8207  0.91115     C
C       0.3148   0.1778  0.34373     C
C       0.3148   0.8222  0.84373     C
C       0.3195   0.4453  0.84488     C
C       0.3195   0.5547  0.34488     C
N       0.3212   0.3681   0.1159     N
N       0.3212   0.6319   0.6159     N
C       0.3242    0.441  0.91094     C
C       0.3242    0.559  0.41094     C
C       0.3267   0.1294   0.5572     C
C       0.3267   0.8706   0.0572     C
C       0.3503   0.3728  0.05468     C
C       0.3503   0.6272  0.55468     C
O       0.3526  0.26909  0.25209     O
O       0.3526  0.73091  0.75209     O
O       0.3565  0.46274  0.25205     O
O       0.3565  0.53726  0.75205     O
H       0.3585   0.2191    0.434     H
H       0.3585   0.7809    0.934     H
H       0.3714   0.4795    0.934     H
H       0.3714   0.5205    0.434     H
C        0.387   0.4853  0.30802     C
C        0.387   0.5147  0.80802     C
C       0.3871   0.2449  0.30779     C
C       0.3871   0.7551  0.80779     C
H       0.4001   0.1303   0.5441     H
H       0.4001   0.8697   0.0441     H
H       0.4229   0.3751   0.0402     H
H       0.4229   0.6249   0.5402     H
Cu      0.4281  0.36459  0.19988    Cu
Cu      0.4281  0.63541  0.69988    Cu
O       0.4712  0.45654  0.33735     O
O       0.4712  0.54346  0.83735     O
O       0.4715  0.27149  0.33639     O
O       0.4715  0.72851  0.83639     O
O       0.5285  0.27149  0.16361     O
O       0.5285  0.72851  0.66361     O
O       0.5288  0.45654  0.16265     O
O       0.5288  0.54346  0.66265     O
Cu      0.5719  0.36459  0.30012    Cu
Cu      0.5719  0.63541  0.80012    Cu
H       0.5771   0.3751   0.4598     H
H       0.5771   0.6249   0.9598     H
H       0.5999   0.1303   0.9559     H
H       0.5999   0.8697   0.4559     H
C       0.6129   0.2449  0.19221     C
C       0.6129   0.7551  0.69221     C
C        0.613   0.4853  0.19198     C
C        0.613   0.5147  0.69198     C
H       0.6286   0.4795    0.566     H
H       0.6286   0.5205    0.066     H
H       0.6415   0.2191    0.066     H
H       0.6415   0.7809    0.566     H
O       0.6435  0.46274  0.24795     O
O       0.6435  0.53726  0.74795     O
O       0.6474  0.26909  0.24791     O
O       0.6474  0.73091  0.74791     O
C       0.6497   0.3728  0.44532     C
C       0.6497   0.6272  0.94532     C
C       0.6733   0.1294   0.9428     C
C       0.6733   0.8706   0.4428     C
C       0.6758    0.441  0.58906     C
C       0.6758    0.559  0.08906     C
N       0.6788   0.3681   0.3841     N
N       0.6788   0.6319   0.8841     N
C       0.6805   0.4453  0.65512     C
C       0.6805   0.5547  0.15512     C
C       0.6852   0.1778  0.15627     C
C       0.6852   0.8222  0.65627     C
C       0.6874   0.1793  0.08885     C
C       0.6874   0.8207  0.58885     C
N       0.7059   0.1311  0.88212     N
N       0.7059   0.8689  0.38212     N
N       0.7389   0.3741  0.48509     N
N       0.7389   0.6259  0.98509     N
C       0.7425    0.378   0.5553     C
C       0.7425    0.622   0.0553     C
C       0.7492   0.3837   0.6907     C
C       0.7492   0.6163   0.1907     C
H       0.7499   0.1154   0.2363     H
H       0.7499   0.8846   0.7363     H
H       0.7501   0.3846   0.7363     H
H       0.7501   0.6154   0.2363     H
C       0.7508   0.1163   0.1907     C
C       0.7508   0.8837   0.6907     C
C       0.7575    0.122   0.0553     C
C       0.7575    0.878   0.5553     C
N       0.7611   0.1259  0.98509     N
N       0.7611   0.8741  0.48509     N
N       0.7941   0.3689  0.38212     N
N       0.7941   0.6311  0.88212     N
C       0.8126   0.3207  0.58885     C
C       0.8126   0.6793  0.08885     C
C       0.8148   0.3222  0.65627     C
C       0.8148   0.6778  0.15627     C
C       0.8195   0.0547  0.15512     C
C       0.8195   0.9453  0.65512     C
N       0.8212   0.1319   0.8841     N
N       0.8212   0.8681   0.3841     N
C       0.8242    0.059  0.08906     C
C       0.8242    0.941  0.58906     C
C       0.8267   0.3706   0.4428     C
C       0.8267   0.6294   0.9428     C
C       0.8503   0.1272  0.94532     C
C       0.8503   0.8728  0.44532     C
O       0.8526  0.23091  0.74791     O
O       0.8526  0.76909  0.24791     O
O       0.8565  0.03726  0.74795     O
O       0.8565  0.96274  0.24795     O
H       0.8585   0.2809    0.566     H
H       0.8585   0.7191    0.066     H
H       0.8714   0.0205    0.066     H
H       0.8714   0.9795    0.566     H
C        0.887   0.0147  0.69198     C
C        0.887   0.9853  0.19198     C
C       0.8871   0.2551  0.69221     C
C       0.8871   0.7449  0.19221     C
H       0.9001   0.3697   0.4559     H
H       0.9001   0.6303   0.9559     H
H       0.9229   0.1249   0.9598     H
H       0.9229   0.8751   0.4598     H
Cu      0.9281  0.13541  0.80012    Cu
Cu      0.9281  0.86459  0.30012    Cu
O       0.9712  0.04346  0.66265     O
O       0.9712  0.95654  0.16265     O
O       0.9715  0.22851  0.66361     O
O       0.9715  0.77149  0.16361     O
