data_I
_chemical_name_common  '/home/zhangsd/repos/MofS-CGCNN/ML/data/WS24/clean_cifs/OLUHAG'
_cell_length_a 10.91210
_cell_length_b 11.84200
_cell_length_c 14.55570
_cell_angle_alpha 90.00000
_cell_angle_beta  109.47100
_cell_angle_gamma 90.00000
_space_group_name_H-M_alt      'P 1'


loop_
_space_group_symop_operation_xyz
  'x, y, z' 

loop_
_atom_site_label
_atom_site_fract_x
_atom_site_fract_y
_atom_site_fract_z
_atom_site_type_symbol
O       0.0099   0.1497  0.59605     O
O       0.0099   0.3503  0.09605     O
O       0.0112   0.1441   0.4044     O
O       0.0112   0.3559   0.9044     O
H        0.036   0.2476   0.2578     H
H        0.036   0.2524   0.7578     H
Cu       0.097  0.57655  0.02556    Cu
Cu       0.097  0.92345  0.52556    Cu
C       0.1203   0.1154   0.6485     C
C       0.1203   0.3846   0.1485     C
C       0.1209   0.1077   0.4081     C
C       0.1209   0.3923   0.9081     C
C       0.1263   0.2463   0.2793     C
C       0.1263   0.2537   0.7793     C
O       0.1749   0.0265  0.63598     O
O       0.1749   0.4735  0.13598     O
O       0.1757   0.0198  0.45009     O
O       0.1757   0.4802  0.95009     O
C       0.1924   0.1867   0.7344     C
C       0.1924   0.3133   0.2344     C
C       0.1939   0.1764   0.3567     C
C       0.1939   0.3236   0.8567     C
N        0.264   0.6979   0.5785     N
N        0.264   0.8021   0.0785     N
N       0.2648   0.6861   0.0692     N
N       0.2648   0.8139   0.5692     N
C       0.3273   0.1873   0.7667     C
C       0.3273   0.3127   0.2667     C
C       0.3289   0.1727   0.3879     C
C       0.3289   0.3273   0.8879     C
H       0.3728    0.142   0.7369     H
H       0.3728    0.358   0.2369     H
H       0.3749   0.1236   0.4372     H
H       0.3749   0.3764   0.9372     H
C       0.3847    0.652   0.0957     C
C       0.3847    0.848   0.5957     C
C       0.3863   0.6666   0.6114     C
C       0.3863   0.8334   0.1114     C
C        0.393   0.2431    0.344     C
C        0.393   0.2569    0.844     C
H       0.4111   0.5773   0.0964     H
H       0.4111   0.9227   0.5964     H
H       0.4145   0.5925   0.6251     H
H       0.4145   0.9075   0.1251     H
N        0.466   0.7428   0.1225     N
N        0.466   0.7572   0.6225     N
N        0.534   0.2428   0.3775     N
N        0.534   0.2572   0.8775     N
H       0.5855   0.0925   0.8749     H
H       0.5855   0.4075   0.3749     H
H       0.5889   0.0773   0.4036     H
H       0.5889   0.4227   0.9036     H
C        0.607   0.7431    0.156     C
C        0.607   0.7569    0.656     C
C       0.6137   0.1666   0.8886     C
C       0.6137   0.3334   0.3886     C
C       0.6153    0.152   0.4043     C
C       0.6153    0.348   0.9043     C
H       0.6251   0.6236   0.0628     H
H       0.6251   0.8764   0.5628     H
H       0.6272    0.642   0.7631     H
H       0.6272    0.858   0.2631     H
C       0.6711   0.6727   0.1121     C
C       0.6711   0.8273   0.6121     C
C       0.6727   0.6873   0.7333     C
C       0.6727   0.8127   0.2333     C
N       0.7352   0.1861   0.4308     N
N       0.7352   0.3139   0.9308     N
N        0.736   0.1979   0.9215     N
N        0.736   0.3021   0.4215     N
C       0.8061   0.6764   0.1433     C
C       0.8061   0.8236   0.6433     C
C       0.8076   0.6867   0.7656     C
C       0.8076   0.8133   0.2656     C
O       0.8243   0.5198  0.04991     O
O       0.8243   0.9802  0.54991     O
O       0.8251   0.5265  0.86402     O
O       0.8251   0.9735  0.36402     O
C       0.8737   0.7463   0.2207     C
C       0.8737   0.7537   0.7207     C
C       0.8791   0.6077   0.0919     C
C       0.8791   0.8923   0.5919     C
C       0.8797   0.6154   0.8515     C
C       0.8797   0.8846   0.3515     C
Cu       0.903  0.07655  0.47444    Cu
Cu       0.903  0.42345  0.97444    Cu
H        0.964   0.7476   0.2422     H
H        0.964   0.7524   0.7422     H
O       0.9888   0.6441   0.0956     O
O       0.9888   0.8559   0.5956     O
O       0.9901   0.6497  0.90395     O
O       0.9901   0.8503  0.40395     O
