data_I
_chemical_name_common  '/home/zhangsd/repos/MofS-CGCNN/ML/data/WS24/clean_cifs/ONUJUE'
_cell_length_a 14.74100
_cell_length_b 14.74100
_cell_length_c 17.13500
_cell_angle_alpha 90.00000
_cell_angle_beta  90.00000
_cell_angle_gamma 120.00000
_space_group_name_H-M_alt      'P 1'


loop_
_space_group_symop_operation_xyz
  'x, y, z' 

loop_
_atom_site_label
_atom_site_fract_x
_atom_site_fract_y
_atom_site_fract_z
_atom_site_type_symbol
H       0.0173   0.4235   0.1821     H
H       0.0173   0.4235   0.3179     H
H       0.0173   0.5938   0.1821     H
H       0.0173   0.5938   0.3179     H
C        0.033    0.471   0.0668     C
C        0.033    0.471   0.4332     C
C        0.033    0.562   0.0668     C
C        0.033    0.562   0.4332     C
C        0.063   0.5315   0.5657     C
C        0.063   0.5315   0.9343     C
C        0.071    0.445    0.143     C
C        0.071    0.445    0.357     C
C        0.071    0.626    0.143     C
C        0.071    0.626    0.357     C
H       0.0844   0.3882   0.1335     H
H       0.0844   0.3882   0.3665     H
H       0.0844   0.6962   0.1335     H
H       0.0844   0.6962   0.3665     H
C        0.097   0.5065   0.0017     C
C        0.097   0.5065   0.4983     C
C        0.097   0.5905   0.0017     C
C        0.097   0.5905   0.4983     C
C       0.1309  0.56545   0.6392     C
C       0.1309  0.56545   0.8608     C
H       0.1335    0.505   0.1605     H
H       0.1335    0.505   0.3395     H
H       0.1335   0.6285   0.1605     H
H       0.1335   0.6285   0.3395     H
O       0.1572   0.5034   0.6662     O
O       0.1572   0.5034   0.8338     O
O       0.1572   0.6538   0.6662     O
O       0.1572   0.6538   0.8338     O
H       0.1897   0.4377   0.0089     H
H       0.1897   0.4377   0.4911     H
H       0.1897    0.752   0.0089     H
H       0.1897    0.752   0.4911     H
C        0.203    0.508    0.001     C
C        0.203    0.508    0.499     C
C        0.203    0.695    0.001     C
C        0.203    0.695    0.499     C
H        0.237    0.534   0.5479     H
H        0.237    0.534   0.9521     H
H        0.237    0.703   0.5479     H
H        0.237    0.703   0.9521     H
H       0.2463   0.5518   0.0426     H
H       0.2463   0.5518   0.4574     H
H       0.2463   0.6945   0.0426     H
H       0.2463   0.6945   0.4574     H
H        0.248   0.4377   0.0089     H
H        0.248   0.4377   0.4911     H
H        0.248   0.8103   0.0089     H
H        0.248   0.8103   0.4911     H
Fe      0.2583   0.5166     0.75    Fe
Fe      0.2583   0.7417     0.75    Fe
H        0.297    0.534   0.5479     H
H        0.297    0.534   0.9521     H
H        0.297    0.763   0.5479     H
H        0.297    0.763   0.9521     H
H       0.3038   0.3882   0.1335     H
H       0.3038   0.3882   0.3665     H
H       0.3038   0.9156   0.1335     H
H       0.3038   0.9156   0.3665     H
C        0.305    0.508    0.001     C
C        0.305    0.508    0.499     C
C        0.305    0.797    0.001     C
C        0.305    0.797    0.499     C
H       0.3055   0.5518   0.0426     H
H       0.3055   0.5518   0.4574     H
H       0.3055   0.7537   0.0426     H
H       0.3055   0.7537   0.4574     H
O      0.33333  0.66667     0.75     O
O       0.3462   0.5034   0.6662     O
O       0.3462   0.5034   0.8338     O
O       0.3462   0.8428   0.6662     O
O       0.3462   0.8428   0.8338     O
H       0.3715    0.505   0.1605     H
H       0.3715    0.505   0.3395     H
H       0.3715   0.8665   0.1605     H
H       0.3715   0.8665   0.3395     H
C        0.374    0.445    0.143     C
C        0.374    0.445    0.357     C
C        0.374    0.929    0.143     C
C        0.374    0.929    0.357     C
H       0.3882   0.0844   0.6335     H
H       0.3882   0.0844   0.8665     H
H       0.3882   0.3038   0.6335     H
H       0.3882   0.3038   0.8665     H
H       0.4062   0.4235   0.1821     H
H       0.4062   0.4235   0.3179     H
H       0.4062   0.9827   0.1821     H
H       0.4062   0.9827   0.3179     H
C       0.4095   0.5065   0.0017     C
C       0.4095   0.5065   0.4983     C
C       0.4095    0.903   0.0017     C
C       0.4095    0.903   0.4983     C
H       0.4235   0.0173   0.6821     H
H       0.4235   0.0173   0.8179     H
H       0.4235   0.4062   0.6821     H
H       0.4235   0.4062   0.8179     H
C      0.43455  0.56545   0.6392     C
C      0.43455  0.56545   0.8608     C
C      0.43455   0.8691   0.6392     C
C      0.43455   0.8691   0.8608     C
H       0.4377   0.1897   0.5089     H
H       0.4377   0.1897   0.9911     H
H       0.4377    0.248   0.5089     H
H       0.4377    0.248   0.9911     H
C        0.438    0.471   0.0668     C
C        0.438    0.471   0.4332     C
C        0.438    0.967   0.0668     C
C        0.438    0.967   0.4332     C
C        0.445    0.071    0.643     C
C        0.445    0.071    0.857     C
C        0.445    0.374    0.643     C
C        0.445    0.374    0.857     C
H       0.4482   0.6945   0.0426     H
H       0.4482   0.6945   0.4574     H
H       0.4482   0.7537   0.0426     H
H       0.4482   0.7537   0.4574     H
H        0.466    0.703   0.5479     H
H        0.466    0.703   0.9521     H
H        0.466    0.763   0.5479     H
H        0.466    0.763   0.9521     H
C       0.4685   0.5315   0.5657     C
C       0.4685   0.5315   0.9343     C
C       0.4685    0.937   0.5657     C
C       0.4685    0.937   0.9343     C
C        0.471    0.033   0.5668     C
C        0.471    0.033   0.9332     C
C        0.471    0.438   0.5668     C
C        0.471    0.438   0.9332     C
Fe      0.4834   0.7417     0.75    Fe
C        0.492    0.695    0.001     C
C        0.492    0.695    0.499     C
C        0.492    0.797    0.001     C
C        0.492    0.797    0.499     C
C       0.4935   0.5905   0.0017     C
C       0.4935   0.5905   0.4983     C
C       0.4935    0.903   0.0017     C
C       0.4935    0.903   0.4983     C
H        0.495   0.6285   0.1605     H
H        0.495   0.6285   0.3395     H
H        0.495   0.8665   0.1605     H
H        0.495   0.8665   0.3395     H
O       0.4966   0.6538   0.6662     O
O       0.4966   0.6538   0.8338     O
O       0.4966   0.8428   0.6662     O
O       0.4966   0.8428   0.8338     O
O       0.5034   0.1572   0.1662     O
O       0.5034   0.1572   0.3338     O
O       0.5034   0.3462   0.1662     O
O       0.5034   0.3462   0.3338     O
H        0.505   0.1335   0.6605     H
H        0.505   0.1335   0.8395     H
H        0.505   0.3715   0.6605     H
H        0.505   0.3715   0.8395     H
C       0.5065    0.097   0.5017     C
C       0.5065    0.097   0.9983     C
C       0.5065   0.4095   0.5017     C
C       0.5065   0.4095   0.9983     C
C        0.508    0.203    0.501     C
C        0.508    0.203    0.999     C
C        0.508    0.305    0.501     C
C        0.508    0.305    0.999     C
Fe      0.5166   0.2583     0.25    Fe
C        0.529    0.562   0.0668     C
C        0.529    0.562   0.4332     C
C        0.529    0.967   0.0668     C
C        0.529    0.967   0.4332     C
C       0.5315    0.063   0.0657     C
C       0.5315    0.063   0.4343     C
C       0.5315   0.4685   0.0657     C
C       0.5315   0.4685   0.4343     C
H        0.534    0.237   0.0479     H
H        0.534    0.237   0.4521     H
H        0.534    0.297   0.0479     H
H        0.534    0.297   0.4521     H
H       0.5518   0.2463   0.5426     H
H       0.5518   0.2463   0.9574     H
H       0.5518   0.3055   0.5426     H
H       0.5518   0.3055   0.9574     H
C        0.555    0.626    0.143     C
C        0.555    0.626    0.357     C
C        0.555    0.929    0.143     C
C        0.555    0.929    0.357     C
C        0.562    0.033   0.5668     C
C        0.562    0.033   0.9332     C
C        0.562    0.529   0.5668     C
C        0.562    0.529   0.9332     C
H       0.5623    0.752   0.0089     H
H       0.5623    0.752   0.4911     H
H       0.5623   0.8103   0.0089     H
H       0.5623   0.8103   0.4911     H
C      0.56545   0.1309   0.1392     C
C      0.56545   0.1309   0.3608     C
C      0.56545  0.43455   0.1392     C
C      0.56545  0.43455   0.3608     C
H       0.5765   0.5938   0.1821     H
H       0.5765   0.5938   0.3179     H
H       0.5765   0.9827   0.1821     H
H       0.5765   0.9827   0.3179     H
C       0.5905    0.097   0.5017     C
C       0.5905    0.097   0.9983     C
C       0.5905   0.4935   0.5017     C
C       0.5905   0.4935   0.9983     C
H       0.5938   0.0173   0.6821     H
H       0.5938   0.0173   0.8179     H
H       0.5938   0.5765   0.6821     H
H       0.5938   0.5765   0.8179     H
H       0.6118   0.6962   0.1335     H
H       0.6118   0.6962   0.3665     H
H       0.6118   0.9156   0.1335     H
H       0.6118   0.9156   0.3665     H
C        0.626    0.071    0.643     C
C        0.626    0.071    0.857     C
C        0.626    0.555    0.643     C
C        0.626    0.555    0.857     C
H       0.6285   0.1335   0.6605     H
H       0.6285   0.1335   0.8395     H
H       0.6285    0.495   0.6605     H
H       0.6285    0.495   0.8395     H
O       0.6538   0.1572   0.1662     O
O       0.6538   0.1572   0.3338     O
O       0.6538   0.4966   0.1662     O
O       0.6538   0.4966   0.3338     O
O      0.66667  0.33333     0.25     O
H       0.6945   0.2463   0.5426     H
H       0.6945   0.2463   0.9574     H
H       0.6945   0.4482   0.5426     H
H       0.6945   0.4482   0.9574     H
C        0.695    0.203    0.501     C
C        0.695    0.203    0.999     C
C        0.695    0.492    0.501     C
C        0.695    0.492    0.999     C
H       0.6962   0.0844   0.6335     H
H       0.6962   0.0844   0.8665     H
H       0.6962   0.6118   0.6335     H
H       0.6962   0.6118   0.8665     H
H        0.703    0.237   0.0479     H
H        0.703    0.237   0.4521     H
H        0.703    0.466   0.0479     H
H        0.703    0.466   0.4521     H
Fe      0.7417   0.2583     0.25    Fe
Fe      0.7417   0.4834     0.25    Fe
H        0.752   0.1897   0.5089     H
H        0.752   0.1897   0.9911     H
H        0.752   0.5623   0.5089     H
H        0.752   0.5623   0.9911     H
H       0.7537   0.3055   0.5426     H
H       0.7537   0.3055   0.9574     H
H       0.7537   0.4482   0.5426     H
H       0.7537   0.4482   0.9574     H
H        0.763    0.297   0.0479     H
H        0.763    0.297   0.4521     H
H        0.763    0.466   0.0479     H
H        0.763    0.466   0.4521     H
C        0.797    0.305    0.501     C
C        0.797    0.305    0.999     C
C        0.797    0.492    0.501     C
C        0.797    0.492    0.999     C
H       0.8103    0.248   0.5089     H
H       0.8103    0.248   0.9911     H
H       0.8103   0.5623   0.5089     H
H       0.8103   0.5623   0.9911     H
O       0.8428   0.3462   0.1662     O
O       0.8428   0.3462   0.3338     O
O       0.8428   0.4966   0.1662     O
O       0.8428   0.4966   0.3338     O
H       0.8665   0.3715   0.6605     H
H       0.8665   0.3715   0.8395     H
H       0.8665    0.495   0.6605     H
H       0.8665    0.495   0.8395     H
C       0.8691  0.43455   0.1392     C
C       0.8691  0.43455   0.3608     C
C        0.903   0.4095   0.5017     C
C        0.903   0.4095   0.9983     C
C        0.903   0.4935   0.5017     C
C        0.903   0.4935   0.9983     C
H       0.9156   0.3038   0.6335     H
H       0.9156   0.3038   0.8665     H
H       0.9156   0.6118   0.6335     H
H       0.9156   0.6118   0.8665     H
C        0.929    0.374    0.643     C
C        0.929    0.374    0.857     C
C        0.929    0.555    0.643     C
C        0.929    0.555    0.857     C
C        0.937   0.4685   0.0657     C
C        0.937   0.4685   0.4343     C
C        0.967    0.438   0.5668     C
C        0.967    0.438   0.9332     C
C        0.967    0.529   0.5668     C
C        0.967    0.529   0.9332     C
H       0.9827   0.4062   0.6821     H
H       0.9827   0.4062   0.8179     H
H       0.9827   0.5765   0.6821     H
H       0.9827   0.5765   0.8179     H
