data_I
_chemical_name_common  '/home/zhangsd/repos/MofS-CGCNN/ML/data/WS24/clean_cifs/ONULOA'
_cell_length_a 11.63200
_cell_length_b 27.86000
_cell_length_c 31.01700
_cell_angle_alpha 90.00000
_cell_angle_beta  90.00000
_cell_angle_gamma 90.00000
_space_group_name_H-M_alt      'P 1'


loop_
_space_group_symop_operation_xyz
  'x, y, z' 

loop_
_atom_site_label
_atom_site_fract_x
_atom_site_fract_y
_atom_site_fract_z
_atom_site_type_symbol
H       0.0097   0.1489   0.0874     H
H       0.0097   0.1489   0.4126     H
H       0.0097   0.3511   0.5874     H
H       0.0097   0.3511   0.9126     H
C       0.0102  0.52638  0.00117     C
C       0.0102  0.52638  0.49883     C
C       0.0102  0.97362  0.50117     C
C       0.0102  0.97362  0.99883     C
H       0.0155   0.5414   0.5625     H
H       0.0155   0.5414   0.9375     H
H       0.0155   0.9586   0.0625     H
H       0.0155   0.9586   0.4375     H
H       0.0184   0.5313   0.0657     H
H       0.0184   0.5313   0.4343     H
H       0.0184   0.9687   0.5657     H
H       0.0184   0.9687   0.9343     H
C       0.0189  0.55511  0.53516     C
C       0.0189  0.55511  0.96484     C
C       0.0189  0.94489  0.03516     C
C       0.0189  0.94489  0.46484     C
C       0.0208  0.54931  0.04048     C
C       0.0208  0.54931  0.45952     C
C       0.0208  0.95069  0.54048     C
C       0.0208  0.95069  0.95952     C
H       0.0312   0.6006   0.1083     H
H       0.0312   0.6006   0.3917     H
H       0.0312   0.8994   0.6083     H
H       0.0312   0.8994   0.8917     H
C       0.0324  0.60351  0.53088     C
C       0.0324  0.60351  0.96912     C
C       0.0324  0.89649  0.03088     C
C       0.0324  0.89649  0.46912     C
C       0.0348  0.59885  0.04306     C
C       0.0348  0.59885  0.45694     C
C       0.0348  0.90115  0.54306     C
C       0.0348  0.90115  0.95694     C
H       0.0375   0.6219   0.5558     H
H       0.0375   0.6219   0.9442     H
H       0.0375   0.8781   0.0558     H
H       0.0375   0.8781   0.4442     H
Co     0.03806  0.70025  0.00522    Co
Co     0.03806  0.70025  0.49478    Co
Co     0.03806  0.79975  0.50522    Co
Co     0.03806  0.79975  0.99478    Co
N       0.0387   0.6261  0.00717     N
N       0.0387   0.6261  0.49283     N
N       0.0387   0.8739  0.50717     N
N       0.0387   0.8739  0.99283     N
C       0.0454  0.62329  0.08566     C
C       0.0454  0.62329  0.41434     C
C       0.0454  0.87671  0.58566     C
C       0.0454  0.87671  0.91434     C
C       0.0572  0.52578  0.71075     C
C       0.0572  0.52578  0.78925     C
C       0.0572  0.97422  0.21075     C
C       0.0572  0.97422  0.28925     C
C       0.0591  0.01186  0.71067     C
C       0.0591  0.01186  0.78933     C
C       0.0591  0.48814  0.21067     C
C       0.0591  0.48814  0.28933     C
O         0.07  0.22051  0.05189     O
O         0.07  0.22051  0.44811     O
O         0.07  0.27949  0.55189     O
O         0.07  0.27949  0.94811     O
H       0.0913   0.0422   0.1543     H
H       0.0913   0.0422   0.3457     H
H       0.0913   0.4578   0.6543     H
H       0.0913   0.4578   0.8457     H
H       0.0948   0.0724   0.6465     H
H       0.0948   0.0724   0.8535     H
H       0.0948   0.4276   0.1465     H
H       0.0948   0.4276   0.3535     H
O       0.0996  0.20182  0.53777     O
O       0.0996  0.20182  0.96223     O
O       0.0996  0.29818  0.03777     O
O       0.0996  0.29818  0.46223     O
C       0.1119  0.53378     0.75     C
C       0.1119  0.96622     0.25     C
C       0.1141  0.00441     0.75     C
C       0.1141  0.49559     0.25     C
C       0.1152  0.23922  0.55955     C
C       0.1152  0.23922  0.94045     C
C       0.1152  0.26078  0.05955     C
C       0.1152  0.26078  0.44045     C
H       0.1215   0.6362   0.0887     H
H       0.1215   0.6362   0.4113     H
H       0.1215   0.8638   0.5887     H
H       0.1215   0.8638   0.9113     H
C       0.1266  0.52642  0.67039     C
C       0.1266  0.52642  0.82961     C
C       0.1266  0.97358  0.17039     C
C       0.1266  0.97358  0.32961     C
C       0.1281  0.00688  0.67056     C
C       0.1281  0.00688  0.82944     C
C       0.1281  0.49312  0.17056     C
C       0.1281  0.49312  0.32944     C
C       0.1348  0.01561  0.14652     C
C       0.1348  0.01561  0.35348     C
C       0.1348  0.48439  0.64652     C
C       0.1348  0.48439  0.85348     C
H       0.1349   0.2023   0.1252     H
H       0.1349   0.2023   0.3748     H
H       0.1349   0.2977   0.6252     H
H       0.1349   0.2977   0.8748     H
O       0.1357  0.70436  0.54853     O
O       0.1357  0.70436  0.95147     O
O       0.1357  0.79564  0.04853     O
O       0.1357  0.79564  0.45147     O
C       0.1372  0.04459  0.64189     C
C       0.1372  0.04459  0.85811     C
C       0.1372  0.45541  0.14189     C
C       0.1372  0.45541  0.35811     C
O       0.1735  0.71712  0.04371     O
O       0.1735  0.71712  0.45629     O
O       0.1735  0.78288  0.54371     O
O       0.1735  0.78288  0.95629     O
C       0.1842  0.74202  0.56084     C
C       0.1842  0.74202  0.93916     C
C       0.1842  0.75798  0.06084     C
C       0.1842  0.75798  0.43916     C
H       0.1854   0.5945   0.6723     H
H       0.1854   0.5945   0.8277     H
H       0.1854   0.9055   0.1723     H
H       0.1854   0.9055   0.3277     H
C       0.1861  0.22766  0.12887     C
C       0.1861  0.22766  0.37113     C
C       0.1861  0.27234  0.62887     C
C       0.1861  0.27234  0.87113     C
H       0.1863   0.5603   0.1816     H
H       0.1863   0.5603   0.3184     H
H       0.1863   0.9397   0.6816     H
H       0.1863   0.9397   0.8184     H
H       0.1874   0.5448     0.75     H
H       0.1874   0.9552     0.25     H
C       0.1899  0.56589  0.65691     C
C       0.1899  0.56589  0.84309     C
C       0.1899  0.93411  0.15691     C
C       0.1899  0.93411  0.34309     C
H       0.1901   0.5059     0.25     H
H       0.1901   0.9941     0.75     H
C       0.1903  0.53473   0.1624     C
C       0.1903  0.53473   0.3376     C
C       0.1903  0.96527   0.6624     C
C       0.1903  0.96527   0.8376     C
C       0.1932  0.23699  0.59795     C
C       0.1932  0.23699  0.90205     C
C       0.1932  0.26301  0.09795     C
C       0.1932  0.26301  0.40205     C
H       0.1997   0.1431   0.0152     H
H       0.1997   0.1431   0.4848     H
H       0.1997   0.3569   0.5152     H
H       0.1997   0.3569   0.9848     H
H       0.2011    0.675   0.6205     H
H       0.2011    0.675   0.8795     H
H       0.2011    0.825   0.1205     H
H       0.2011    0.825   0.3795     H
C        0.207  0.01831  0.11135     C
C        0.207  0.01831  0.38865     C
C        0.207  0.48169  0.61135     C
C        0.207  0.48169  0.88865     C
C       0.2082  0.04152  0.60662     C
C       0.2082  0.04152  0.89338     C
C       0.2082  0.45848  0.10662     C
C       0.2082  0.45848  0.39338     C
H       0.2132    0.047   0.0963     H
H       0.2132    0.047   0.4037     H
H       0.2132    0.453   0.5963     H
H       0.2132    0.453   0.9037     H
H       0.2161   0.0679   0.5884     H
H       0.2161   0.0679   0.9116     H
H       0.2161   0.4321   0.0884     H
H       0.2161   0.4321   0.4116     H
H       0.2474   0.2061   0.1866     H
H       0.2474   0.2061   0.3134     H
H       0.2474   0.2939   0.6866     H
H       0.2474   0.2939   0.8134     H
C       0.2538  0.69923  0.62639     C
C       0.2538  0.69923  0.87361     C
C       0.2538  0.80077  0.12639     C
C       0.2538  0.80077  0.37361     C
C       0.2546  0.22959  0.16542     C
C       0.2546  0.22959  0.33458     C
C       0.2546  0.27041  0.66542     C
C       0.2546  0.27041  0.83458     C
C        0.258  0.53842  0.12596     C
C        0.258  0.53842  0.37404     C
C        0.258  0.96158  0.62596     C
C        0.258  0.96158  0.87404     C
H       0.2583   0.0955   0.5004     H
H       0.2583   0.0955   0.9996     H
H       0.2583   0.4045   0.0004     H
H       0.2583   0.4045   0.4996     H
C       0.2595  0.56321  0.62089     C
C       0.2595  0.56321  0.87911     C
C       0.2595  0.93679  0.12089     C
C       0.2595  0.93679  0.37911     C
C       0.2618  0.73795  0.59917     C
C       0.2618  0.73795  0.90083     C
C       0.2618  0.76205  0.09917     C
C       0.2618  0.76205  0.40083     C
H       0.2625   0.1097   0.0485     H
H       0.2625   0.1097   0.4515     H
H       0.2625   0.3903   0.5485     H
H       0.2625   0.3903   0.9515     H
C       0.2636  0.12178  0.01948     C
C       0.2636  0.12178  0.48052     C
C       0.2636  0.37822  0.51948     C
C       0.2636  0.37822  0.98052     C
H       0.2675   0.2369     0.75     H
H       0.2675   0.2631     0.25     H
C       0.2682  0.50028   0.0978     C
C       0.2682  0.50028   0.4022     C
C       0.2682  0.99972   0.5978     C
C       0.2682  0.99972   0.9022     C
C       0.2701  0.52086  0.59822     C
C       0.2701  0.52086  0.90178     C
C       0.2701  0.97914  0.09822     C
C       0.2701  0.97914  0.40178     C
C       0.2707  0.20004  0.60323     C
C       0.2707  0.20004  0.89677     C
C       0.2707  0.29996  0.10323     C
C       0.2707  0.29996  0.39677     C
H       0.2753   0.1758   0.5827     H
H       0.2753   0.1758   0.9173     H
H       0.2753   0.3242   0.0827     H
H       0.2753   0.3242   0.4173     H
H       0.2972   0.5669   0.1204     H
H       0.2972   0.5669   0.3796     H
H       0.2972   0.9331   0.6204     H
H       0.2972   0.9331   0.8796     H
H       0.2996   0.5903   0.6118     H
H       0.2996   0.5903   0.8882     H
H       0.2996   0.9097   0.1118     H
H       0.2996   0.9097   0.3882     H
H       0.3043   0.2145   0.0142     H
H       0.3043   0.2145   0.4858     H
H       0.3043   0.2855   0.5142     H
H       0.3043   0.2855   0.9858     H
H       0.3141     0.67   0.6809     H
H       0.3141     0.67   0.8191     H
H       0.3141     0.83   0.1809     H
H       0.3141     0.83   0.3191     H
C       0.3229  0.69585  0.66222     C
C       0.3229  0.69585  0.83778     C
C       0.3229  0.80415  0.16222     C
C       0.3229  0.80415  0.33778     C
C       0.3337  0.23361  0.67054     C
C       0.3337  0.23361  0.82946     C
C       0.3337  0.26639  0.17054     C
C       0.3337  0.26639  0.32946     C
H       0.3391   0.7222     0.75     H
H       0.3391   0.7778     0.25     H
C        0.342    0.199  0.63905     C
C        0.342    0.199  0.86095     C
C        0.342    0.301  0.13905     C
C        0.342    0.301  0.36095     C
C        0.343  0.72647  0.10776     C
C        0.343  0.72647  0.39224     C
C        0.343  0.77353  0.60776     C
C        0.343  0.77353  0.89224     C
C       0.3467  0.50351   0.0594     C
C       0.3467  0.50351   0.4406     C
C       0.3467  0.99649   0.5594     C
C       0.3467  0.99649   0.9406     C
C       0.3471  0.23395     0.75     C
C       0.3471  0.26605     0.25     C
H       0.3483   0.6996     0.09     H
H       0.3483   0.6996     0.41     H
H       0.3483   0.8004     0.59     H
H       0.3483   0.8004     0.91     H
C       0.3527  0.51623    0.561     C
C       0.3527  0.51623    0.939     C
C       0.3527  0.98377    0.061     C
C       0.3527  0.98377    0.439     C
H       0.3561   0.7119   0.5089     H
H       0.3561   0.7119   0.9911     H
H       0.3561   0.7881   0.0089     H
H       0.3561   0.7881   0.4911     H
H        0.363   0.6306   0.5029     H
H        0.363   0.6306   0.9971     H
H        0.363   0.8694   0.0029     H
H        0.363   0.8694   0.4971     H
O       0.3706  0.03572   0.5414     O
O       0.3706  0.03572   0.9586     O
O       0.3706  0.46428   0.0414     O
O       0.3706  0.46428   0.4586     O
C       0.3729    0.198  0.00997     C
C       0.3729    0.198  0.49003     C
C       0.3729    0.302  0.50997     C
C       0.3729    0.302  0.99003     C
C       0.3739  0.14854  0.01186     C
C       0.3739  0.14854  0.48814     C
C       0.3739  0.35146  0.51186     C
C       0.3739  0.35146  0.98814     C
O       0.3784  0.02618  0.05041     O
O       0.3784  0.02618  0.44959     O
O       0.3784  0.47382  0.55041     O
O       0.3784  0.47382  0.94959     O
O       0.3838  0.54413  0.04893     O
O       0.3838  0.54413  0.45107     O
O       0.3838  0.95587  0.54893     O
O       0.3838  0.95587  0.95107     O
O       0.3905  0.55314  0.54377     O
O       0.3905  0.55314  0.95623     O
O       0.3905  0.94686  0.04377     O
O       0.3905  0.94686  0.45623     O
H        0.396   0.1746   0.6418     H
H        0.396   0.1746   0.8582     H
H        0.396   0.3254   0.1418     H
H        0.396   0.3254   0.3582     H
C       0.4038  0.23188  0.71069     C
C       0.4038  0.23188  0.78931     C
C       0.4038  0.26812  0.21069     C
C       0.4038  0.26812  0.28931     C
C       0.4047  0.73016  0.67078     C
C       0.4047  0.73016  0.82922     C
C       0.4047  0.76984  0.17078     C
C       0.4047  0.76984  0.32922     C
C       0.4149  0.73133  0.14249     C
C       0.4149  0.73133  0.35751     C
C       0.4149  0.76867  0.64249     C
C       0.4149  0.76867  0.85751     C
C       0.4187   0.7254     0.75     C
C       0.4187   0.7746     0.25     C
C       0.4258  0.69675  0.50336     C
C       0.4258  0.69675  0.99664     C
C       0.4258  0.80325  0.00336     C
C       0.4258  0.80325  0.49664     C
C        0.431  0.64788  0.50013     C
C        0.431  0.64788  0.99987     C
C        0.431  0.85212  0.00013     C
C        0.431  0.85212  0.49987     C
N       0.4715  0.12345  0.00678     N
N       0.4715  0.12345  0.49322     N
N       0.4715  0.37655  0.50678     N
N       0.4715  0.37655  0.99322     N
H       0.4717   0.7084   0.1472     H
H       0.4717   0.7084   0.3528     H
H       0.4717   0.7916   0.6472     H
H       0.4717   0.7916   0.8528     H
C       0.4738   0.2237   0.0017     C
C       0.4738   0.2237   0.4983     C
C       0.4738   0.2763   0.5017     C
C       0.4738   0.2763   0.9983     C
C       0.4752  0.72768  0.71076     C
C       0.4752  0.72768  0.78924     C
C       0.4752  0.77232  0.21076     C
C       0.4752  0.77232  0.28924     C
Co     0.48913  0.04922  0.00455    Co
Co     0.48913  0.04922  0.49545    Co
Co     0.48913  0.45078  0.50455    Co
Co     0.48913  0.45078  0.99545    Co
Co     0.51087  0.54922  0.00455    Co
Co     0.51087  0.54922  0.49545    Co
Co     0.51087  0.95078  0.50455    Co
Co     0.51087  0.95078  0.99545    Co
C       0.5248  0.22768  0.71076     C
C       0.5248  0.22768  0.78924     C
C       0.5248  0.27232  0.21076     C
C       0.5248  0.27232  0.28924     C
C       0.5262   0.7237   0.0017     C
C       0.5262   0.7237   0.4983     C
C       0.5262   0.7763   0.5017     C
C       0.5262   0.7763   0.9983     C
H       0.5283   0.2084   0.1472     H
H       0.5283   0.2084   0.3528     H
H       0.5283   0.2916   0.6472     H
H       0.5283   0.2916   0.8528     H
N       0.5285  0.62345  0.00678     N
N       0.5285  0.62345  0.49322     N
N       0.5285  0.87655  0.50678     N
N       0.5285  0.87655  0.99322     N
C        0.569  0.14788  0.50013     C
C        0.569  0.14788  0.99987     C
C        0.569  0.35212  0.00013     C
C        0.569  0.35212  0.49987     C
C       0.5742  0.19675  0.50336     C
C       0.5742  0.19675  0.99664     C
C       0.5742  0.30325  0.00336     C
C       0.5742  0.30325  0.49664     C
C       0.5813   0.2254     0.75     C
C       0.5813   0.2746     0.25     C
C       0.5851  0.23133  0.14249     C
C       0.5851  0.23133  0.35751     C
C       0.5851  0.26867  0.64249     C
C       0.5851  0.26867  0.85751     C
C       0.5953  0.23016  0.67078     C
C       0.5953  0.23016  0.82922     C
C       0.5953  0.26984  0.17078     C
C       0.5953  0.26984  0.32922     C
C       0.5962  0.73188  0.71069     C
C       0.5962  0.73188  0.78931     C
C       0.5962  0.76812  0.21069     C
C       0.5962  0.76812  0.28931     C
H        0.604   0.6746   0.6418     H
H        0.604   0.6746   0.8582     H
H        0.604   0.8254   0.1418     H
H        0.604   0.8254   0.3582     H
O       0.6095  0.05314  0.54377     O
O       0.6095  0.05314  0.95623     O
O       0.6095  0.44686  0.04377     O
O       0.6095  0.44686  0.45623     O
O       0.6162  0.04413  0.04893     O
O       0.6162  0.04413  0.45107     O
O       0.6162  0.45587  0.54893     O
O       0.6162  0.45587  0.95107     O
O       0.6216  0.52618  0.05041     O
O       0.6216  0.52618  0.44959     O
O       0.6216  0.97382  0.55041     O
O       0.6216  0.97382  0.94959     O
C       0.6261  0.64854  0.01186     C
C       0.6261  0.64854  0.48814     C
C       0.6261  0.85146  0.51186     C
C       0.6261  0.85146  0.98814     C
C       0.6271    0.698  0.00997     C
C       0.6271    0.698  0.49003     C
C       0.6271    0.802  0.50997     C
C       0.6271    0.802  0.99003     C
O       0.6294  0.53572   0.5414     O
O       0.6294  0.53572   0.9586     O
O       0.6294  0.96428   0.0414     O
O       0.6294  0.96428   0.4586     O
H        0.637   0.1306   0.5029     H
H        0.637   0.1306   0.9971     H
H        0.637   0.3694   0.0029     H
H        0.637   0.3694   0.4971     H
H       0.6439   0.2119   0.5089     H
H       0.6439   0.2119   0.9911     H
H       0.6439   0.2881   0.0089     H
H       0.6439   0.2881   0.4911     H
C       0.6473  0.01623    0.561     C
C       0.6473  0.01623    0.939     C
C       0.6473  0.48377    0.061     C
C       0.6473  0.48377    0.439     C
H       0.6517   0.1996     0.09     H
H       0.6517   0.1996     0.41     H
H       0.6517   0.3004     0.59     H
H       0.6517   0.3004     0.91     H
C       0.6529  0.73395     0.75     C
C       0.6529  0.76605     0.25     C
C       0.6533  0.00351   0.0594     C
C       0.6533  0.00351   0.4406     C
C       0.6533  0.49649   0.5594     C
C       0.6533  0.49649   0.9406     C
C        0.657  0.22647  0.10776     C
C        0.657  0.22647  0.39224     C
C        0.657  0.27353  0.60776     C
C        0.657  0.27353  0.89224     C
C        0.658    0.699  0.63905     C
C        0.658    0.699  0.86095     C
C        0.658    0.801  0.13905     C
C        0.658    0.801  0.36095     C
H       0.6609   0.2222     0.75     H
H       0.6609   0.2778     0.25     H
C       0.6663  0.73361  0.67054     C
C       0.6663  0.73361  0.82946     C
C       0.6663  0.76639  0.17054     C
C       0.6663  0.76639  0.32946     C
C       0.6771  0.19585  0.66222     C
C       0.6771  0.19585  0.83778     C
C       0.6771  0.30415  0.16222     C
C       0.6771  0.30415  0.33778     C
H       0.6859     0.17   0.6809     H
H       0.6859     0.17   0.8191     H
H       0.6859     0.33   0.1809     H
H       0.6859     0.33   0.3191     H
H       0.6957   0.7145   0.0142     H
H       0.6957   0.7145   0.4858     H
H       0.6957   0.7855   0.5142     H
H       0.6957   0.7855   0.9858     H
H       0.7004   0.0903   0.6118     H
H       0.7004   0.0903   0.8882     H
H       0.7004   0.4097   0.1118     H
H       0.7004   0.4097   0.3882     H
H       0.7028   0.0669   0.1204     H
H       0.7028   0.0669   0.3796     H
H       0.7028   0.4331   0.6204     H
H       0.7028   0.4331   0.8796     H
H       0.7247   0.6758   0.5827     H
H       0.7247   0.6758   0.9173     H
H       0.7247   0.8242   0.0827     H
H       0.7247   0.8242   0.4173     H
C       0.7293  0.70004  0.60323     C
C       0.7293  0.70004  0.89677     C
C       0.7293  0.79996  0.10323     C
C       0.7293  0.79996  0.39677     C
C       0.7299  0.02086  0.59822     C
C       0.7299  0.02086  0.90178     C
C       0.7299  0.47914  0.09822     C
C       0.7299  0.47914  0.40178     C
C       0.7318  0.00028   0.0978     C
C       0.7318  0.00028   0.4022     C
C       0.7318  0.49972   0.5978     C
C       0.7318  0.49972   0.9022     C
H       0.7325   0.7369     0.75     H
H       0.7325   0.7631     0.25     H
C       0.7364  0.62178  0.01948     C
C       0.7364  0.62178  0.48052     C
C       0.7364  0.87822  0.51948     C
C       0.7364  0.87822  0.98052     C
H       0.7375   0.6097   0.0485     H
H       0.7375   0.6097   0.4515     H
H       0.7375   0.8903   0.5485     H
H       0.7375   0.8903   0.9515     H
C       0.7382  0.23795  0.59917     C
C       0.7382  0.23795  0.90083     C
C       0.7382  0.26205  0.09917     C
C       0.7382  0.26205  0.40083     C
C       0.7405  0.06321  0.62089     C
C       0.7405  0.06321  0.87911     C
C       0.7405  0.43679  0.12089     C
C       0.7405  0.43679  0.37911     C
H       0.7417   0.5955   0.5004     H
H       0.7417   0.5955   0.9996     H
H       0.7417   0.9045   0.0004     H
H       0.7417   0.9045   0.4996     H
C        0.742  0.03842  0.12596     C
C        0.742  0.03842  0.37404     C
C        0.742  0.46158  0.62596     C
C        0.742  0.46158  0.87404     C
C       0.7454  0.72959  0.16542     C
C       0.7454  0.72959  0.33458     C
C       0.7454  0.77041  0.66542     C
C       0.7454  0.77041  0.83458     C
C       0.7462  0.19923  0.62639     C
C       0.7462  0.19923  0.87361     C
C       0.7462  0.30077  0.12639     C
C       0.7462  0.30077  0.37361     C
H       0.7526   0.7061   0.1866     H
H       0.7526   0.7061   0.3134     H
H       0.7526   0.7939   0.6866     H
H       0.7526   0.7939   0.8134     H
H       0.7839   0.5679   0.5884     H
H       0.7839   0.5679   0.9116     H
H       0.7839   0.9321   0.0884     H
H       0.7839   0.9321   0.4116     H
H       0.7868    0.547   0.0963     H
H       0.7868    0.547   0.4037     H
H       0.7868    0.953   0.5963     H
H       0.7868    0.953   0.9037     H
C       0.7918  0.54152  0.60662     C
C       0.7918  0.54152  0.89338     C
C       0.7918  0.95848  0.10662     C
C       0.7918  0.95848  0.39338     C
C        0.793  0.51831  0.11135     C
C        0.793  0.51831  0.38865     C
C        0.793  0.98169  0.61135     C
C        0.793  0.98169  0.88865     C
H       0.7989    0.175   0.6205     H
H       0.7989    0.175   0.8795     H
H       0.7989    0.325   0.1205     H
H       0.7989    0.325   0.3795     H
H       0.8003   0.6431   0.0152     H
H       0.8003   0.6431   0.4848     H
H       0.8003   0.8569   0.5152     H
H       0.8003   0.8569   0.9848     H
C       0.8068  0.73699  0.59795     C
C       0.8068  0.73699  0.90205     C
C       0.8068  0.76301  0.09795     C
C       0.8068  0.76301  0.40205     C
C       0.8097  0.03473   0.1624     C
C       0.8097  0.03473   0.3376     C
C       0.8097  0.46527   0.6624     C
C       0.8097  0.46527   0.8376     C
H       0.8099   0.0059     0.25     H
H       0.8099   0.4941     0.75     H
C       0.8101  0.06589  0.65691     C
C       0.8101  0.06589  0.84309     C
C       0.8101  0.43411  0.15691     C
C       0.8101  0.43411  0.34309     C
H       0.8126   0.0448     0.75     H
H       0.8126   0.4552     0.25     H
H       0.8137   0.0603   0.1816     H
H       0.8137   0.0603   0.3184     H
H       0.8137   0.4397   0.6816     H
H       0.8137   0.4397   0.8184     H
C       0.8139  0.72766  0.12887     C
C       0.8139  0.72766  0.37113     C
C       0.8139  0.77234  0.62887     C
C       0.8139  0.77234  0.87113     C
H       0.8146   0.0945   0.6723     H
H       0.8146   0.0945   0.8277     H
H       0.8146   0.4055   0.1723     H
H       0.8146   0.4055   0.3277     H
C       0.8158  0.24202  0.56084     C
C       0.8158  0.24202  0.93916     C
C       0.8158  0.25798  0.06084     C
C       0.8158  0.25798  0.43916     C
O       0.8265  0.21712  0.04371     O
O       0.8265  0.21712  0.45629     O
O       0.8265  0.28288  0.54371     O
O       0.8265  0.28288  0.95629     O
C       0.8628  0.54459  0.64189     C
C       0.8628  0.54459  0.85811     C
C       0.8628  0.95541  0.14189     C
C       0.8628  0.95541  0.35811     C
O       0.8643  0.20436  0.54853     O
O       0.8643  0.20436  0.95147     O
O       0.8643  0.29564  0.04853     O
O       0.8643  0.29564  0.45147     O
H       0.8651   0.7023   0.1252     H
H       0.8651   0.7023   0.3748     H
H       0.8651   0.7977   0.6252     H
H       0.8651   0.7977   0.8748     H
C       0.8652  0.51561  0.14652     C
C       0.8652  0.51561  0.35348     C
C       0.8652  0.98439  0.64652     C
C       0.8652  0.98439  0.85348     C
C       0.8719  0.50688  0.67056     C
C       0.8719  0.50688  0.82944     C
C       0.8719  0.99312  0.17056     C
C       0.8719  0.99312  0.32944     C
C       0.8734  0.02642  0.67039     C
C       0.8734  0.02642  0.82961     C
C       0.8734  0.47358  0.17039     C
C       0.8734  0.47358  0.32961     C
H       0.8785   0.1362   0.0887     H
H       0.8785   0.1362   0.4113     H
H       0.8785   0.3638   0.5887     H
H       0.8785   0.3638   0.9113     H
C       0.8848  0.73922  0.55955     C
C       0.8848  0.73922  0.94045     C
C       0.8848  0.76078  0.05955     C
C       0.8848  0.76078  0.44045     C
C       0.8859  0.50441     0.75     C
C       0.8859  0.99559     0.25     C
C       0.8881  0.03378     0.75     C
C       0.8881  0.46622     0.25     C
O       0.9004  0.70182  0.53777     O
O       0.9004  0.70182  0.96223     O
O       0.9004  0.79818  0.03777     O
O       0.9004  0.79818  0.46223     O
H       0.9052   0.5724   0.6465     H
H       0.9052   0.5724   0.8535     H
H       0.9052   0.9276   0.1465     H
H       0.9052   0.9276   0.3535     H
H       0.9087   0.5422   0.1543     H
H       0.9087   0.5422   0.3457     H
H       0.9087   0.9578   0.6543     H
H       0.9087   0.9578   0.8457     H
O         0.93  0.72051  0.05189     O
O         0.93  0.72051  0.44811     O
O         0.93  0.77949  0.55189     O
O         0.93  0.77949  0.94811     O
C       0.9409  0.51186  0.71067     C
C       0.9409  0.51186  0.78933     C
C       0.9409  0.98814  0.21067     C
C       0.9409  0.98814  0.28933     C
C       0.9428  0.02578  0.71075     C
C       0.9428  0.02578  0.78925     C
C       0.9428  0.47422  0.21075     C
C       0.9428  0.47422  0.28925     C
C       0.9546  0.12329  0.08566     C
C       0.9546  0.12329  0.41434     C
C       0.9546  0.37671  0.58566     C
C       0.9546  0.37671  0.91434     C
N       0.9613   0.1261  0.00717     N
N       0.9613   0.1261  0.49283     N
N       0.9613   0.3739  0.50717     N
N       0.9613   0.3739  0.99283     N
Co     0.96194  0.20025  0.00522    Co
Co     0.96194  0.20025  0.49478    Co
Co     0.96194  0.29975  0.50522    Co
Co     0.96194  0.29975  0.99478    Co
H       0.9625   0.1219   0.5558     H
H       0.9625   0.1219   0.9442     H
H       0.9625   0.3781   0.0558     H
H       0.9625   0.3781   0.4442     H
C       0.9652  0.09885  0.04306     C
C       0.9652  0.09885  0.45694     C
C       0.9652  0.40115  0.54306     C
C       0.9652  0.40115  0.95694     C
C       0.9676  0.10351  0.53088     C
C       0.9676  0.10351  0.96912     C
C       0.9676  0.39649  0.03088     C
C       0.9676  0.39649  0.46912     C
H       0.9688   0.1006   0.1083     H
H       0.9688   0.1006   0.3917     H
H       0.9688   0.3994   0.6083     H
H       0.9688   0.3994   0.8917     H
C       0.9792  0.04931  0.04048     C
C       0.9792  0.04931  0.45952     C
C       0.9792  0.45069  0.54048     C
C       0.9792  0.45069  0.95952     C
C       0.9811  0.05511  0.53516     C
C       0.9811  0.05511  0.96484     C
C       0.9811  0.44489  0.03516     C
C       0.9811  0.44489  0.46484     C
H       0.9816   0.0313   0.0657     H
H       0.9816   0.0313   0.4343     H
H       0.9816   0.4687   0.5657     H
H       0.9816   0.4687   0.9343     H
H       0.9845   0.0414   0.5625     H
H       0.9845   0.0414   0.9375     H
H       0.9845   0.4586   0.0625     H
H       0.9845   0.4586   0.4375     H
C       0.9898  0.02638  0.00117     C
C       0.9898  0.02638  0.49883     C
C       0.9898  0.47362  0.50117     C
C       0.9898  0.47362  0.99883     C
H       0.9903   0.6489   0.0874     H
H       0.9903   0.6489   0.4126     H
H       0.9903   0.8511   0.5874     H
H       0.9903   0.8511   0.9126     H
