data_I
_chemical_name_common  '/home/zhangsd/repos/MofS-CGCNN/ML/data/WS24/clean_cifs/ONUQUK'
_cell_length_a 11.05700
_cell_length_b 12.81900
_cell_length_c 19.40500
_cell_angle_alpha 80.03000
_cell_angle_beta  73.76000
_cell_angle_gamma 69.31000
_space_group_name_H-M_alt      'P 1'


loop_
_space_group_symop_operation_xyz
  'x, y, z' 

loop_
_atom_site_label
_atom_site_fract_x
_atom_site_fract_y
_atom_site_fract_z
_atom_site_type_symbol
C       0.0073   0.7841   0.0634     C
C       0.0086   0.2851  0.79101     C
H       0.0117   0.5776   0.6017     H
H       0.0121   0.8073   0.0148     H
C       0.0151   0.2862   0.1446     C
Cd     0.01952  0.70655 0.438019    Cd
O       0.0241   0.7208  0.32175     O
C        0.026   0.3216   0.7126     C
H       0.0364   0.3519     0.13     H
C       0.0368   0.3494   0.3867     C
H       0.0413   0.0416   0.6488     H
C         0.05   0.9071   0.8118     C
N       0.0506   0.2688  0.44013     N
C       0.0562    0.293   0.9034     C
C       0.0564   0.7931  0.17457     C
C       0.0637   0.8269   0.1021     C
C       0.0641   0.3266   0.8323     C
H       0.0729   0.9721   0.7973     H
N       0.0747   0.1018  0.54916     N
H       0.0771   0.3887   0.2788     H
C       0.0805   0.0218   0.6018     C
C       0.0834   0.0855  0.15866     C
O        0.088   0.3886  0.68578     O
C       0.0908   0.3302   0.3145     C
H       0.0936   0.3221   0.9297     H
H       0.1069   0.8785   0.0796     H
H       0.1075   0.3785   0.8106     H
C       0.1151    0.707   0.8246     C
C       0.1156   0.1843  0.13455     C
C       0.1218   0.1619  0.42322     C
S      0.12903  0.84766  0.22694     S
C       0.1326   0.0742  0.48056     C
H       0.1402   0.4275   0.5463     H
C        0.143    0.908   0.5904     C
H       0.1433   0.8533   0.6288     H
C       0.1471   0.8046   0.8043     C
O       0.1538   0.3578  0.54742     O
C       0.1644   0.2238   0.2971     C
H       0.1808   0.6378   0.8174     H
C        0.181   0.1351   0.3518     C
O       0.1932  0.52703   0.4446     O
C       0.2007   0.9623   0.4644     C
C       0.2036   0.8796   0.5211     C
H       0.2037   0.2096   0.2492     H
H       0.2122   0.6259   0.6537     H
S      0.21417  0.95398  0.15574     S
H       0.2322    0.458   0.0463     H
H       0.2323   0.3119   0.5432     H
H       0.2323   0.9625   0.9949     H
H       0.2355   0.8007   0.7853     H
O       0.2435   0.6827  0.41649     O
H       0.2468   0.8048   0.5121     H
C       0.2535   0.0199   0.3378     C
H       0.2543   0.5315   0.9288     H
C       0.2555   0.1845  0.10171     C
C       0.2609   0.9385   0.3907     C
C       0.2736   0.5124   0.0299     C
H       0.2744   0.4524    0.169     H
C       0.2776    0.578  0.42334     C
C       0.2857   0.5565   0.9604     C
O       0.2861   0.2671  0.10835     O
H        0.293   0.4527   0.6104     H
H       0.2935   0.1373   0.7325     H
H       0.2961   0.0022   0.2907     H
H       0.2968   0.1739   0.6126     H
C       0.3036   0.5907   0.6397     C
H       0.3059   0.8648   0.3797     H
O       0.3096   0.9688  0.98065     O
C       0.3153   0.5067   0.1501     C
H       0.3198   0.0318   0.9796     H
C       0.3232    0.549   0.0764     C
C       0.3355   0.0791   0.7026     C
C       0.3363   0.1017   0.6312     C
O        0.337    0.041   0.8462     O
O       0.3396    0.101  0.06978     O
C       0.3451   0.6388    0.937     C
H       0.3508   0.6694   0.8896     H
C       0.3517   0.4878   0.6135     C
H       0.3566   0.7129   0.6633     H
H       0.3575   0.5154   0.2403     H
S      0.36061  0.34549  0.36317     S
C       0.3652   0.5437   0.1924     C
C        0.384   0.6321  0.04853     C
C       0.3901   0.6428   0.6455     C
C       0.3901   0.9565   0.8111     C
N       0.3946   0.6763  0.97894     N
C       0.3951   0.9723  0.73254     C
H        0.397   0.0284   0.5387     H
C       0.3971   0.0149   0.5874     C
H       0.4076    0.161    0.914     H
H       0.4134   0.2289   0.7947     H
C       0.4228   0.5142  0.40282     C
C       0.4309   0.6265   0.1654     C
O       0.4376   0.8585  0.83768     O
C       0.4399   0.6711  0.09387     C
C       0.4482   0.2153   0.8943     C
C       0.4513   0.2559    0.822     C
C       0.4577   0.8851  0.68649     C
C       0.4581   0.9082  0.61441     C
S      0.46478  0.25356  0.27599     S
C        0.473   0.4091  0.37511     C
H       0.4811   0.6334   0.4273     H
Cd     0.48693  0.81851 0.945798    Cd
C       0.4872   0.4359   0.5915     C
H       0.4882   0.6367   0.2548     H
C       0.4899   0.6654   0.2072     C
N       0.4995   0.2502  0.93522     N
H          0.5   0.1489   0.4164     H
H          0.5   0.8511   0.5836     H
N       0.5005   0.7498  0.06478     N
C       0.5101   0.3346   0.7928     C
H       0.5118   0.3633   0.7452     H
C       0.5128   0.5641   0.4085     C
Cd     0.51307  0.18149 0.054202    Cd
H       0.5189   0.3666   0.5727     H
C        0.527   0.5909  0.62489     C
S      0.53522  0.74644  0.72401     S
C       0.5419   0.0918  0.38559     C
C       0.5423   0.1149  0.31351     C
C       0.5487   0.7441    0.178     C
C       0.5518   0.7847   0.1057     C
C       0.5601   0.3289  0.90613     C
O       0.5624   0.1415  0.16232     O
C       0.5691   0.3735   0.8346     C
C       0.5772   0.4858  0.59718     C
H       0.5866   0.7711   0.2053     H
H       0.5924    0.839    0.086     H
C       0.6029   0.9851   0.4126     C
H        0.603   0.9716   0.4613     H
C       0.6049   0.0277  0.26746     C
N       0.6054   0.3237  0.02106     N
C       0.6099   0.0435   0.1889     C
C       0.6099   0.3572   0.3545     C
C        0.616   0.3679  0.95147     C
C       0.6348   0.4563   0.8076     C
S      0.63939  0.65451  0.63683     S
H       0.6425   0.4846   0.7597     H
H       0.6434   0.2871   0.3367     H
C       0.6483   0.5122   0.3865     C
H       0.6492   0.3306   0.1104     H
C       0.6549   0.3612    0.063     C
O       0.6604    0.899  0.93022     O
O        0.663    0.959   0.1538     O
C       0.6637   0.8983   0.3688     C
C       0.6645   0.9209   0.2974     C
C       0.6768    0.451   0.9236     C
H       0.6802   0.9682   0.0204     H
C       0.6847   0.4933   0.8499     C
O       0.6904   0.0312  0.01935     O
H       0.6941   0.1352   0.6203     H
C       0.6964   0.4093   0.3603     C
H       0.7032   0.8261   0.3874     H
H       0.7039   0.9978   0.7093     H
H       0.7065   0.8627   0.2675     H
H        0.707   0.5473   0.3896     H
O       0.7139   0.7329  0.89165     O
C       0.7143   0.4435   0.0396     C
C       0.7224    0.422  0.57666     C
H       0.7256   0.5476    0.831     H
C       0.7264   0.4876   0.9701     C
C       0.7391   0.0615   0.6093     C
C       0.7445   0.8155  0.89829     C
H       0.7457   0.4685   0.0712     H
C       0.7465   0.9801   0.6622     C
H       0.7532   0.1952   0.4879     H
O       0.7565   0.3173  0.58351     O
H       0.7645   0.1993   0.2147     H
H       0.7677   0.0375   0.0051     H
H       0.7677   0.6881   0.4568     H
H       0.7678    0.542   0.9537     H
S      0.78583  0.04602  0.84426     S
H       0.7878   0.3741   0.3463     H
H       0.7963   0.7904   0.7508     H
C       0.7964   0.1204   0.4789     C
C       0.7993   0.0377   0.5356     C
O       0.8068  0.47297   0.5554     O
C        0.819   0.8649   0.6482     C
H       0.8192   0.3622   0.1826     H
C       0.8356   0.7762   0.7029     C
O       0.8462   0.6422  0.45258     O
C       0.8529   0.1954   0.1957     C
H       0.8567   0.1467   0.3712     H
C        0.857    0.092   0.4096     C
H       0.8598   0.5725   0.4537     H
C       0.8674   0.9258  0.51944     C
S      0.87097  0.15234  0.77306     S
C       0.8782   0.8381  0.57678     C
C       0.8844   0.8157  0.86545     C
C       0.8849    0.293   0.1754     C
H       0.8925   0.6215   0.1894     H
H       0.8931   0.1215   0.9204     H
H       0.9064   0.6779   0.0703     H
C       0.9092   0.6698   0.6855     C
O        0.912   0.6114  0.31422     O
C       0.9166   0.9145  0.84134     C
C       0.9195   0.9782   0.3982     C
H       0.9229   0.6113   0.7212     H
N       0.9253   0.8982  0.45084     N
H       0.9271   0.0279   0.2027     H
C       0.9359   0.6734   0.1677     C
C       0.9363   0.1731   0.8979     C
C       0.9436   0.2069  0.82543     C
C       0.9438    0.707   0.0966     C
N       0.9494   0.7312  0.55987     N
C         0.95   0.0929   0.1882     C
H       0.9587   0.9584   0.3512     H
C       0.9632   0.6506   0.6133     C
H       0.9636   0.6481     0.87     H
C        0.974   0.6784   0.2874     C
O       0.9759   0.2792  0.67825     O
Cd     0.98048  0.29345 0.561981    Cd
C       0.9849   0.7138   0.8554     C
H       0.9879   0.1927   0.9852     H
H       0.9883   0.4224   0.3983     H
C       0.9914   0.7149  0.20899     C
C       0.9927   0.2159   0.9366     C
