data_I
_chemical_name_common  '/home/zhangsd/repos/MofS-CGCNN/ML/data/WS24/clean_cifs/OTAQUW'
_cell_length_a 13.00100
_cell_length_b 13.13100
_cell_length_c 26.34700
_cell_angle_alpha 90.00000
_cell_angle_beta  90.00000
_cell_angle_gamma 117.31100
_space_group_name_H-M_alt      'P 1'


loop_
_space_group_symop_operation_xyz
  'x, y, z' 

loop_
_atom_site_label
_atom_site_fract_x
_atom_site_fract_y
_atom_site_fract_z
_atom_site_type_symbol
H       0.0031   0.6855   0.8703     H
C       0.0059   0.3342  0.38062     C
H       0.0144   0.5156   0.0696     H
C       0.0147   0.7002  0.56478     C
C       0.0153   0.4398  0.94569     C
C       0.0156    0.733  0.01147     C
C       0.0232   0.7124  0.70785     C
Zn     0.03255   0.3298 0.539232    Zn
O      0.03701  0.73141  0.36625     O
F      0.04078  0.60176  0.23656     F
O      0.04313  0.37425  0.46734     O
C       0.0442   0.7467  0.65748     C
C       0.0443   0.4008  0.27918     C
H       0.0553   0.7669   0.7334     H
C       0.0573   0.6296  0.80729     C
C       0.0588   0.6701  0.03629     C
C        0.062   0.4317  0.22242     C
H       0.0659   0.8055   0.9993     H
C       0.0669   0.6824  0.85598     C
C       0.0758   0.4477   0.3675     C
H       0.0819   0.1622    0.617     H
O      0.08296  0.80057  0.55432     O
N       0.0897    0.212  0.54191     N
H       0.0914   0.8232   0.6493     H
C       0.0938   0.4796  0.31745     C
C       0.0979   0.1513  0.58364     C
F      0.10276   0.5829  0.16376     F
C       0.1042   0.3101  0.99601     C
C       0.1064   0.5616  0.21397     C
F      0.10842  0.28018  0.20174     F
H       0.1106   0.5024   0.3927     H
C       0.1216   0.1751  0.50179     C
C       0.1237   0.7385  0.38923     C
O      0.12519  0.71484  0.43554     O
H       0.1263    0.203    0.469     H
H        0.133   0.2673   0.0136     H
C       0.1341   0.0719  0.56758     C
C       0.1384   0.4825  0.95122     C
H       0.1404   0.5561   0.3092     H
N       0.1434   0.4861  0.56488     N
H       0.1441   0.5902   0.7542     H
H       0.1465   0.0196   0.5871     H
N       0.1471   0.0891  0.51559     N
C       0.1481   0.3946  0.20399     C
C       0.1511   0.6242  0.78578     C
H       0.1533    0.023   0.4466     H
H       0.1551   0.9459   0.4917     H
H       0.1626   0.5786   0.5026     H
C        0.169   0.7273  0.88087     C
H       0.1762   0.7634    0.912     H
H       0.1792   0.8322    0.297     H
H       0.1822   0.4746   0.6408     H
C       0.1823   0.4222  0.97605     C
C       0.1824   0.5778  0.53648     C
C       0.1853   0.0244  0.48001     C
C       0.1868   0.7114  0.04216     C
H       0.1883   0.5532   0.9373     H
F      0.18841  0.44455  0.15623     F
C       0.1937    0.522  0.61291     C
H       0.1967   0.8177   0.1389     H
H          0.2     0.66   0.0646     H
F      0.21445  0.62391   0.2274     F
H       0.2201   0.7102   0.0094     H
C       0.2364   0.7806  0.35984     C
C       0.2388   0.8638  0.11194     C
C       0.2435   0.8301  0.31142     C
N       0.2445   0.8284  0.06296     N
F      0.24495  0.44543  0.23218     F
F      0.25505  0.05457  0.73218     F
N       0.2555   0.6716  0.56296     N
C       0.2565   0.6699  0.81142     C
C       0.2612   0.6362  0.61194     C
C       0.2636   0.7194  0.85984     C
H       0.2799   0.7898   0.5094     H
F      0.28555  0.87609   0.7274     F
H          0.3     0.84   0.5646     H
H       0.3033   0.6823   0.6389     H
C       0.3063    0.978  0.11291     C
F      0.31159  0.05545  0.65623     F
H       0.3117   0.9468   0.4373     H
C       0.3132   0.7886  0.54216     C
C       0.3147   0.4756  0.98001     C
C       0.3176   0.9222  0.03648     C
C       0.3177   0.0778  0.47605     C
H       0.3178   0.0254   0.1408     H
H       0.3208   0.6678    0.797     H
H       0.3238   0.7366    0.412     H
C        0.331   0.7727  0.38087     C
H       0.3374   0.9214   0.0026     H
H       0.3449   0.5541   0.9917     H
H       0.3467    0.477   0.9466     H
C       0.3489   0.8758  0.28578     C
C       0.3519   0.1054  0.70399     C
N       0.3529   0.4109  0.01559     N
H       0.3535   0.4804   0.0871     H
H       0.3559   0.9098   0.2542     H
N       0.3566   0.0139  0.06488     N
H       0.3596   0.9439   0.8092     H
C       0.3616   0.0175  0.45122     C
C       0.3659   0.4281  0.06758     C
H        0.367   0.2327   0.5136     H
H       0.3737    0.297    0.969     H
O      0.37481  0.78516  0.93554     O
C       0.3763   0.7615  0.88923     C
C       0.3784   0.3249  0.00179     C
H       0.3894   0.9976   0.8927     H
F      0.39158  0.21982  0.70174     F
C       0.3936   0.9384  0.71397     C
C       0.3958   0.1899  0.49601     C
F      0.39724   0.9171  0.66376     F
C       0.4021   0.3487  0.08364     C
C       0.4062   0.0204  0.81745     C
H       0.4086   0.6768   0.1493     H
N       0.4103    0.288  0.04191     N
O      0.41704  0.69943  0.05432     O
H       0.4181   0.3378    0.117     H
C       0.4242   0.0523   0.8675     C
C       0.4331   0.8176  0.35598     C
H       0.4341   0.6945   0.4993     H
C        0.438   0.0683  0.72242     C
C       0.4412   0.8299  0.53629     C
C       0.4427   0.8704  0.30729     C
H       0.4447   0.7331   0.2334     H
C       0.4557   0.0992  0.77918     C
C       0.4558   0.7533  0.15748     C
O      0.45687  0.12575  0.96734     O
F      0.45922  0.89824  0.73656     F
O      0.46299  0.76859  0.86625     O
Zn     0.46745   0.1702 0.039232    Zn
C       0.4768   0.7876  0.20785     C
C       0.4844    0.767  0.51147     C
C       0.4847   0.0602  0.44569     C
C       0.4853   0.7998  0.06478     C
H       0.4856   0.9844   0.5696     H
C       0.4941   0.1658  0.88062     C
H       0.4969   0.8145   0.3703     H
H       0.5031   0.1855   0.6297     H
C       0.5059   0.8342  0.11938     C
H       0.5144   0.0156   0.4304     H
C       0.5147   0.2002  0.93522     C
C       0.5153   0.9398  0.55431     C
C       0.5156    0.233  0.48853     C
C       0.5232   0.2124  0.79215     C
Zn     0.53255   0.8298 0.960768    Zn
O      0.53701  0.23141  0.13375     O
F      0.54078  0.10176  0.26344     F
O      0.54313  0.87425  0.03266     O
C       0.5442   0.2467  0.84252     C
C       0.5443   0.9008  0.22082     C
H       0.5553   0.2669   0.7666     H
C       0.5573   0.1296  0.69271     C
C       0.5588   0.1701  0.46371     C
C        0.562   0.9317  0.27758     C
H       0.5659   0.3055   0.5007     H
C       0.5669   0.1824  0.64402     C
C       0.5758   0.9477   0.1325     C
H       0.5819   0.6622    0.883     H
O      0.58296  0.30057  0.94568     O
N       0.5897    0.712  0.95809     N
H       0.5914   0.3232   0.8507     H
C       0.5938   0.9796  0.18255     C
C       0.5979   0.6513  0.91636     C
F      0.60276   0.0829  0.33624     F
C       0.6042   0.8101  0.50399     C
C       0.6064   0.0616  0.28603     C
F      0.60842  0.78018  0.29826     F
H       0.6106   0.0024   0.1073     H
C       0.6216   0.6751  0.99821     C
C       0.6237   0.2385  0.11077     C
O      0.62519  0.21484  0.06446     O
H       0.6263    0.703    0.031     H
H        0.633   0.7673   0.4864     H
C       0.6341   0.5719  0.93242     C
C       0.6384   0.9825  0.54878     C
H       0.6404   0.0561   0.1908     H
N       0.6434   0.9861  0.93512     N
H       0.6441   0.0902   0.7458     H
H       0.6465   0.5196   0.9129     H
N       0.6471   0.5891  0.98441     N
C       0.6481   0.8946  0.29601     C
C       0.6511   0.1242  0.71422     C
H       0.6533    0.523   0.0534     H
H       0.6551   0.4459   0.0083     H
H       0.6626   0.0786   0.9974     H
C        0.669   0.2273  0.61913     C
H       0.6762   0.2634    0.588     H
H       0.6792   0.3322    0.203     H
H       0.6822   0.9746   0.8592     H
C       0.6823   0.9222  0.52395     C
C       0.6824   0.0778  0.96352     C
C       0.6853   0.5244  0.01999     C
C       0.6868   0.2114  0.45784     C
H       0.6883   0.0532   0.5627     H
F      0.68841  0.94455  0.34377     F
C       0.6937    0.022  0.88709     C
H       0.6967   0.3177   0.3611     H
H          0.7     0.16   0.4354     H
F      0.71445  0.12391   0.2726     F
H       0.7201   0.2102   0.4906     H
C       0.7364   0.2806  0.14016     C
C       0.7388   0.3638  0.38806     C
C       0.7435   0.3301  0.18858     C
N       0.7445   0.3284  0.43704     N
F      0.74495  0.94543  0.26782     F
F      0.75505  0.55457  0.76782     F
N       0.7555   0.1716  0.93704     N
C       0.7565   0.1699  0.68858     C
C       0.7612   0.1362  0.88806     C
C       0.7636   0.2194  0.64016     C
H       0.7799   0.2898   0.9906     H
F      0.78555  0.37609   0.7726     F
H          0.8     0.34   0.9354     H
H       0.8033   0.1823   0.8611     H
C       0.8063    0.478  0.38709     C
F      0.81159  0.55545  0.84377     F
H       0.8117   0.4468   0.0627     H
C       0.8132   0.2886  0.95784     C
C       0.8147   0.9756  0.51999     C
C       0.8176   0.4222  0.46352     C
C       0.8177   0.5778  0.02395     C
H       0.8178   0.5254   0.3592     H
H       0.8208   0.1678    0.703     H
H       0.8238   0.2366    0.088     H
C        0.831   0.2727  0.11913     C
H       0.8374   0.4214   0.4974     H
H       0.8449   0.0541   0.5083     H
H       0.8467    0.977   0.5534     H
C       0.8489   0.3758  0.21422     C
C       0.8519   0.6054  0.79601     C
N       0.8529   0.9109  0.48441     N
H       0.8535   0.9804   0.4129     H
H       0.8559   0.4098   0.2458     H
N       0.8566   0.5139  0.43512     N
H       0.8596   0.4439   0.6908     H
C       0.8616   0.5175  0.04878     C
C       0.8659   0.9281  0.43242     C
H        0.867   0.7327   0.9864     H
H       0.8737    0.797    0.531     H
O      0.87481  0.28516  0.56446     O
C       0.8763   0.2615  0.61077     C
C       0.8784   0.8249  0.49821     C
H       0.8894   0.4976   0.6073     H
F      0.89158  0.71982  0.79826     F
C       0.8936   0.4384  0.78603     C
C       0.8958   0.6899  0.00399     C
F      0.89724   0.4171  0.83624     F
C       0.9021   0.8487  0.41636     C
C       0.9062   0.5204  0.68255     C
H       0.9086   0.1768   0.3507     H
N       0.9103    0.788  0.45809     N
O      0.91704  0.19943  0.44568     O
H       0.9181   0.8378    0.383     H
C       0.9242   0.5523   0.6325     C
C       0.9331   0.3176  0.14402     C
H       0.9341   0.1945   0.0007     H
C        0.938   0.5683  0.77758     C
C       0.9412   0.3299  0.96371     C
C       0.9427   0.3704  0.19271     C
H       0.9447   0.2331   0.2666     H
C       0.9557   0.5992  0.72082     C
C       0.9558   0.2533  0.34252     C
O      0.95687  0.62575  0.53266     O
F      0.95922  0.39824  0.76344     F
O      0.96299  0.26859  0.63375     O
Zn     0.96745   0.6702 0.460768    Zn
C       0.9768   0.2876  0.29215     C
C       0.9844    0.267  0.98853     C
C       0.9847   0.5602  0.05431     C
C       0.9853   0.2998  0.43522     C
H       0.9856   0.4844   0.9304     H
C       0.9941   0.6658  0.61938     C
H       0.9969   0.3145   0.1297     H
