data_I
_chemical_name_common  '/home/zhangsd/repos/MofS-CGCNN/ML/data/WS24/clean_cifs/OTARIL'
_cell_length_a 13.92400
_cell_length_b 13.92400
_cell_length_c 29.08000
_cell_angle_alpha 79.92720
_cell_angle_beta  79.92720
_cell_angle_gamma 63.46600
_space_group_name_H-M_alt      'P 1'


loop_
_space_group_symop_operation_xyz
  'x, y, z' 

loop_
_atom_site_label
_atom_site_fract_x
_atom_site_fract_y
_atom_site_fract_z
_atom_site_type_symbol
C      0.00187  0.41567  0.05973     C
H       0.0027   0.7865   0.7533     H
C      0.00515  0.09475  0.57681     C
C      0.00749  0.65245  0.22521     C
C      0.00926   0.7562   0.2006     C
C      0.01016  0.13076  0.19343     C
C      0.01016   0.9478  0.15176     C
C      0.01874  0.04672  0.12212     C
H       0.0226   0.6466   0.8733     H
N      0.02405  0.51843  0.66775     N
C      0.02456  0.58516  0.62586     C
C      0.02667  0.49727  0.97511     C
C       0.0328   0.2792  0.43804     C
C       0.0342   0.1936  0.21747     C
H       0.0381   0.1273   0.3697     H
H       0.0419   0.8931   0.7928     H
C      0.04511  0.58431  0.89435     C
C      0.04672  0.01874  0.62212     C
C       0.0522  0.98984  0.34824     C
F      0.05329  0.93567  0.44318     F
F      0.05737  0.80423  0.41329     F
H       0.0582    0.351   0.0513     H
C      0.06154  0.33074  0.39571     C
C      0.06244  0.10284  0.14939     C
F      0.06433  0.94671  0.05682     F
O      0.06724   0.3689  0.77608     O
O      0.07098  0.34524  0.25409     O
C      0.07242  0.08202  0.85102     C
C      0.07312  0.17652  0.82604     C
C       0.0739   0.6909  0.54256     C
F      0.08129  0.77689  0.91075     F
C      0.08202  0.07242  0.35102     C
F      0.08368  0.09898  0.54467     F
C      0.08645  0.86865  0.89297     C
H       0.0873   0.2227   0.4538     H
H       0.0876    0.728   0.5143     H
C      0.08971  0.78531  0.20475     C
O      0.09165  0.58971  0.24588     O
C      0.09193  0.88011  0.18078     C
Zn     0.09343  0.45467  0.27771    Zn
C      0.09475  0.00515  0.07681     C
F      0.09898  0.08368  0.04467     F
H       0.1013   0.8533   0.3162     H
F      0.10253  0.87767   0.5738     F
C      0.10284  0.06244  0.64939     C
H       0.1069   0.9581   0.7072     H
C      0.11281  0.40501  0.95937     C
H       0.1137   0.1823    0.601     H
C      0.11461  0.22653  0.19695     C
C      0.11989  0.90807  0.31922     C
F      0.12233  0.89747   0.9262     F
H       0.1264   0.4906   0.8115     H
C      0.12717  0.48797  0.88071     C
H       0.1273   0.0381   0.8697     H
C      0.12742  0.45222  0.67231     C
H       0.1295   0.1943   0.8274     H
C      0.13038  0.55638  0.60619     C
C      0.13076  0.01016  0.69343     C
C      0.13135  0.91355  0.60703     C
H        0.133   0.3104   0.3829     H
C      0.13369  0.14509  0.63019     C
C       0.1374   0.3018  0.22048     C
H       0.1392   0.3442    0.981     H
H       0.1433   0.7409   0.2239     H
C      0.14509  0.13369  0.13019     C
H       0.1467   0.8987   0.1838     H
H       0.1509   0.3993   0.6975     H
F      0.15454  0.83518  0.64253     F
H       0.1549   0.6017   0.3324     H
C      0.16148  0.39808  0.91362     C
C      0.16188  0.60728  0.56361     C
F      0.16482  0.84546  0.85747     F
C      0.17168  0.19392  0.15438     C
C       0.1753  0.48974  0.83174     C
C      0.17652  0.07312  0.32604     C
H       0.1823   0.1137    0.101     H
H        0.186    0.555   0.8228     H
C       0.1936   0.0342  0.71747     C
N      0.19385  0.47115  0.63611     N
C      0.19392  0.17168  0.65438     C
H       0.1943   0.1295   0.3274     H
F      0.19577  0.94263  0.08671     F
H       0.2125   0.2281   0.6419     H
H       0.2135   0.9973   0.7467     H
C      0.21469  0.91029  0.29525     C
O      0.21652  0.31994  0.20523     O
H       0.2171   0.3333    0.905     H
C      0.22232  0.55292  0.34139     C
H       0.2227   0.0873   0.9538     H
F      0.22311  0.91871  0.58925     F
C      0.22653  0.11461  0.69695     C
H       0.2281   0.2125   0.1419     H
H       0.2335   0.5873   0.5509     H
N      0.23411  0.39387  0.30591     N
H       0.2424   0.3102   0.7878     H
C       0.2438  0.99074   0.2994     C
H       0.2455   0.6229   0.6576     H
H       0.2473   0.6527   0.3745     H
H       0.2591   0.8567   0.2761     H
C      0.26988  0.44672  0.33036     C
H        0.272   0.9124   0.9857     H
C      0.27834  0.58294   0.3659     C
C       0.2792   0.0328  0.93804     C
N      0.27942  0.39498  0.82518     N
C      0.29443  0.31269  0.80312     C
C      0.30069  0.57449  0.67533     C
C       0.3018   0.1374  0.72048     C
H       0.3034   0.6832   0.7109     H
C       0.3091   0.9261  0.95744     C
H       0.3102   0.2424   0.2878     H
H       0.3104    0.133   0.8829     H
C      0.31269  0.29443  0.30312     C
C      0.31313  0.41833  0.63471     C
H       0.3168   0.6966   0.7891     H
H       0.3172   0.4634   0.1929     H
O      0.31994  0.21652  0.70523     O
C      0.33074  0.06154  0.89571     C
H       0.3333   0.2171    0.405     H
C      0.33606  0.61026  0.70668     C
H       0.3377   0.3409   0.6421     H
H       0.3409   0.3377   0.1421     H
H       0.3442   0.1392    0.481     H
H       0.3452    0.432   0.6033     H
O      0.34524  0.07098  0.75409     O
H       0.3473   0.7527   0.1255     H
C      0.34755  0.99251  0.27479     C
C      0.34956  0.46136  0.66996     C
H        0.351   0.0582   0.5513     H
H       0.3534   0.9774   0.6267     H
H       0.3542   0.4986    0.877     H
O       0.3689  0.06724  0.27608     O
C       0.3723  0.37472  0.34272     C
C      0.37472   0.3723  0.84272     C
H       0.3771   0.7545   0.8424     H
H       0.3807   0.5231   0.2451     H
C      0.38495  0.50815  0.37873     C
C      0.38974  0.66394  0.79332     C
C      0.39063  0.43183  0.19617     C
C      0.39272  0.83812  0.93639     C
N      0.39387  0.23411  0.80591     N
N      0.39498  0.27942  0.32518     N
C      0.39808  0.16148  0.41362     C
H       0.3983   0.8451   0.1676     H
H       0.3993   0.1509   0.1975     H
C      0.40361  0.43141  0.86804     C
C      0.40501  0.11281  0.45937     C
O      0.41029  0.90835  0.25412     O
H       0.4127   0.7665   0.9491     H
C      0.41484  0.97544  0.87414     C
C      0.41567  0.00187  0.55973     C
C      0.41569  0.95489  0.60565     C
C      0.41706  0.72166   0.1341     C
C      0.41833  0.31313  0.13471     C
C      0.42218   0.5372  0.73292     C
H       0.4223   0.5313   0.3944     H
C      0.42551  0.69931  0.82467     C
C      0.42889  0.46769  0.22754     C
C      0.43141  0.40361  0.36804     C
C      0.43183  0.39063  0.69617     C
H        0.432   0.3452   0.1033     H
C      0.44362  0.86962  0.89381     C
H        0.445    0.814   0.6772     H
C      0.44672  0.26988  0.83036     C
C      0.44708  0.77768  0.15861     C
C      0.45222  0.12742  0.17231     C
Zn     0.45467  0.09343  0.77771    Zn
C      0.46136  0.34956  0.16996     C
C       0.4628  0.57782  0.76708     C
H       0.4634   0.3172   0.6929     H
C      0.46769  0.42889  0.72754     C
H       0.4687   0.5777   0.1056     H
N      0.47115  0.19385  0.13611     N
H       0.4769   0.6193   0.2549     H
N      0.48157  0.97595  0.83225     N
C      0.48797  0.12717  0.38071     C
C      0.48974   0.1753  0.33174     C
H       0.4906   0.1264   0.3115     H
C      0.49185  0.61505  0.12127     C
C      0.49727  0.02667  0.47511     C
H       0.4986   0.3542    0.377     H
H       0.5014   0.6458    0.623     H
C      0.50273  0.97333  0.52489     C
C      0.50815  0.38495  0.87873     C
H       0.5094   0.8736   0.6885     H
C      0.51026   0.8247  0.66826     C
C      0.51203  0.87283  0.61929     C
N      0.51843  0.02405  0.16775     N
H       0.5231   0.3807   0.7451     H
N      0.52885  0.80615  0.86389     N
H       0.5313   0.4223   0.8944     H
C      0.53231  0.57111  0.27246     C
H       0.5366   0.6828   0.3071     H
C       0.5372  0.42218  0.23292     C
C      0.53864  0.65044  0.83004     C
Zn     0.54533  0.90657  0.22229    Zn
C      0.54778  0.87258  0.82769     C
C      0.55292  0.22232  0.84139     C
C      0.55328  0.73012  0.16964     C
H        0.555    0.186   0.3228     H
C      0.55638  0.13038  0.10619     C
H        0.568   0.6548   0.8967     H
C      0.56817  0.60937  0.30383     C
C      0.56859  0.59639  0.63196     C
C      0.57111  0.53231  0.77246     C
C      0.57449  0.30069  0.17533     C
H       0.5777   0.4687   0.6056     H
C      0.57782   0.4628  0.26708     C
C      0.58167  0.68687  0.86529     C
C      0.58294  0.27834   0.8659     C
C      0.58431  0.04511  0.39435     C
C      0.58433  0.99813  0.44027     C
C      0.58516  0.02456  0.12586     C
H       0.5873   0.2335   0.0509     H
O      0.58971  0.09165  0.74588     O
C      0.59499  0.88719  0.54063     C
C      0.59639  0.56859  0.13196     C
H       0.6007   0.8491   0.8025     H
H       0.6017   0.1549   0.8324     H
C      0.60192  0.83852  0.58638     C
N      0.60502  0.72058  0.67482     N
N      0.60613  0.76589  0.19409     N
C      0.60728  0.16188  0.06361     C
C      0.60937  0.56817  0.80383     C
C      0.61026  0.33606  0.20668     C
C      0.61505  0.49185  0.62127     C
H       0.6193   0.4769   0.7549     H
H       0.6229   0.2455   0.1576     H
C      0.62528   0.6277  0.15728     C
C       0.6277  0.62528  0.65728     C
O       0.6311  0.93276  0.72392     O
H       0.6458   0.5014    0.123     H
H       0.6466   0.0226   0.3733     H
H        0.649   0.9418   0.4487     H
C      0.65044  0.53864  0.33004     C
C      0.65245  0.00749  0.72521     C
H       0.6527   0.2473   0.8745     H
O      0.65476  0.92902  0.24591     O
H       0.6548    0.568   0.3967     H
H       0.6558   0.8608    0.519     H
H       0.6591   0.6623   0.8579     H
H       0.6623   0.6591   0.3579     H
C      0.66394  0.38974  0.29332     C
H       0.6667   0.7829    0.595     H
C      0.66926  0.93846  0.10429     C
O      0.68006  0.78348  0.29477     O
H       0.6828   0.5366   0.8071     H
H       0.6832   0.3034   0.2109     H
C      0.68687  0.58167  0.36529     C
C      0.68731  0.70557  0.69688     C
H       0.6896    0.867   0.1171     H
H       0.6898   0.7576   0.7122     H
C       0.6909   0.0739  0.04256     C
H       0.6966   0.3168   0.2891     H
C       0.6982   0.8626  0.27952     C
C      0.69931  0.42551  0.32467     C
C      0.70557  0.68731  0.19688     C
N      0.72058  0.60502  0.17482     N
C       0.7208   0.9672  0.06196     C
C      0.72166  0.41706   0.6341     C
H        0.728   0.0876   0.0143     H
C      0.73012  0.55328  0.66964     C
H       0.7409   0.1433   0.7239     H
H       0.7527   0.3473   0.6255     H
H       0.7545   0.3771   0.3424     H
C       0.7562  0.00926   0.7006     C
H       0.7576   0.6898   0.2122     H
N      0.76589  0.60613  0.69409     N
H       0.7665   0.4127   0.4491     H
H       0.7719   0.7875   0.8581     H
C      0.77347  0.88539  0.30305     C
F      0.77689  0.08129  0.41075     F
H       0.7773   0.9127   0.0462     H
C      0.77768  0.44708  0.65861     C
H       0.7829   0.6667    0.095     H
O      0.78348  0.68006  0.79477     O
C      0.78531  0.08971  0.70475     C
H       0.7865   0.0027   0.2533     H
H       0.7875   0.7719   0.3581     H
F      0.80423  0.05737  0.91329     F
H       0.8057   0.8705   0.6726     H
C      0.80608  0.82832  0.34562     C
N      0.80615  0.52885  0.36389     N
C       0.8064   0.9658  0.28253     C
H        0.814    0.445   0.1772     H
H       0.8177   0.8863    0.899     H
C      0.82348  0.92688  0.67396     C
C       0.8247  0.51026  0.16826     C
C      0.82832  0.80608  0.84562     C
F      0.83518  0.15454  0.14253     F
C      0.83812  0.39272  0.43639     C
C      0.83852  0.60192  0.08638     C
H       0.8451   0.3983   0.6676     H
F      0.84546  0.16482  0.35747     F
H       0.8491   0.6007   0.3025     H
H       0.8533   0.1013   0.8162     H
C      0.85491  0.86631  0.86981     C
H       0.8567   0.2591   0.7761     H
H       0.8608   0.6558    0.019     H
C       0.8626   0.6982  0.77952     C
C      0.86631  0.85491  0.36981     C
H        0.867   0.6896   0.6171     H
C      0.86865  0.08645  0.39297     C
C      0.86924  0.98984  0.30657     C
C      0.86962  0.44362  0.39381     C
H       0.8705   0.8057   0.1726     H
C      0.87258  0.54778  0.32769     C
H       0.8727   0.9619   0.1303     H
C      0.87283  0.51203  0.11929     C
H       0.8736   0.5094   0.1885     H
F      0.87767  0.10253   0.0738     F
C      0.88011  0.09193  0.68078     C
C      0.88539  0.77347  0.80305     C
H       0.8863   0.8177    0.399     H
C      0.88719  0.59499  0.04063     C
H       0.8931   0.0419   0.2928     H
C      0.89716  0.93756  0.35061     C
F      0.89747  0.12233   0.4262     F
H       0.8987   0.1467   0.6838     H
F      0.90102  0.91632  0.95533     F
C      0.90525  0.99485  0.92319     C
Zn     0.90657  0.54533  0.72229    Zn
C      0.90807  0.11989  0.81922     C
O      0.90835  0.41029  0.75412     O
C      0.91029  0.21469  0.79525     C
H       0.9124    0.272   0.4857     H
H       0.9127   0.7773   0.5462     H
C      0.91355  0.13135  0.10703     C
F      0.91632  0.90102  0.45533     F
C      0.91798  0.92758  0.64898     C
F      0.91871  0.22311  0.08925     F
C       0.9261   0.3091  0.45744     C
C      0.92688  0.82348  0.17396     C
C      0.92758  0.91798  0.14898     C
O      0.92902  0.65476  0.74591     O
O      0.93276   0.6311  0.22392     O
F      0.93567  0.05329  0.94318     F
C      0.93756  0.89716  0.85061     C
C      0.93846  0.66926  0.60429     C
H       0.9418    0.649   0.9487     H
F      0.94263  0.19577  0.58671     F
F      0.94671  0.06433  0.55682     F
C       0.9478  0.01016  0.65176     C
C      0.95328  0.98126  0.37788     C
C      0.95489  0.41569  0.10565     C
H       0.9581   0.1069   0.2072     H
H       0.9619   0.8727   0.6303     H
C       0.9658   0.8064  0.78253     C
C       0.9672   0.7208  0.56196     C
C      0.97333  0.50273  0.02489     C
C      0.97544  0.41484  0.37414     C
N      0.97595  0.48157  0.33225     N
H       0.9774   0.3534   0.1267     H
C      0.98126  0.95328  0.87788     C
C      0.98984   0.0522  0.84824     C
C      0.98984  0.86924  0.80657     C
C      0.99074   0.2438   0.7994     C
C      0.99251  0.34755  0.77479     C
C      0.99485  0.90525  0.42319     C
H       0.9973   0.2135   0.2467     H
C      0.99813  0.58433  0.94027     C
