data_I
_chemical_name_common  '/home/zhangsd/repos/MofS-CGCNN/ML/data/WS24/clean_cifs/OTARAD'
_cell_length_a  7.43020
_cell_length_b 13.23250
_cell_length_c 25.07700
_cell_angle_alpha 90.00000
_cell_angle_beta  90.00000
_cell_angle_gamma 102.19300
_space_group_name_H-M_alt      'P 1'


loop_
_space_group_symop_operation_xyz
  'x, y, z' 

loop_
_atom_site_label
_atom_site_fract_x
_atom_site_fract_y
_atom_site_fract_z
_atom_site_type_symbol
H       0.0044   0.8289   0.5982     H
C       0.0045   0.3819    0.571     C
C       0.0072   0.5249   0.7909     C
F       0.0188    0.765   0.7174     F
C       0.0208   0.8222   0.1592     C
O       0.0243   0.9939  0.94252     O
H       0.0279     0.24   0.0084     H
H       0.0302   0.7914   0.8159     H
C       0.0313   0.9147   0.1344     C
O       0.0327    0.533  0.44076     O
C       0.0384   0.7649   0.3652     C
H        0.046   0.6042   0.0282     H
C       0.0477   0.3323   0.2645     C
C       0.0526   0.9379   0.5393     C
C       0.0638   0.1043   0.4999     C
H       0.0658   0.6608   0.5678     H
H       0.0659   0.2348   0.8524     H
H       0.0703   0.2197    0.622     H
C       0.0761   0.7567   0.0116     C
F       0.0823   0.4541   0.1655     F
H       0.0844   0.8765   0.3099     H
C       0.0851   0.0747   0.9128     C
C       0.0991   0.6244   0.7631     C
C       0.1019   0.6837   0.3871     C
H       0.1091   0.1754   0.5006     H
F       0.1116   0.3851   0.3081     F
C       0.1122   0.8699   0.5809     C
C        0.116   0.0426   0.5389     C
C       0.1166   0.6709   0.0314     C
F        0.119   0.5373    0.239     F
H       0.1226   0.7466   0.2172     H
F       0.1243   0.4692    0.807     F
C       0.1318   0.8234   0.3249     C
C       0.1343   0.8108   0.2008     C
O       0.1365   0.3518  0.54964     O
H       0.1372   0.4531    0.706     H
C       0.1401   0.7766   0.8281     C
C       0.1619   0.9985   0.1528     C
H       0.1713   0.0625   0.1365     H
C       0.1722   0.7001   0.5527     C
H       0.1854   0.9127   0.6078     H
F         0.19   0.3248   0.2342     F
H       0.1919   0.8913   0.8819     H
H       0.1963   0.0731   0.5656     H
C       0.2024   0.6964   0.8064     C
N       0.2119    0.839  0.02536     N
N       0.2204   0.8013   0.5571     N
C       0.2226   0.5107   0.6943     C
O       0.2251   0.1376  0.92292     O
C       0.2331   0.6057   0.7187     C
C       0.2369   0.8364   0.8679     C
Cd     0.24748  0.00601 0.002338    Cd
Cd     0.25252  0.49399 0.502338    Cd
C       0.2631   0.6636   0.3679     C
C       0.2669   0.8943   0.2187     C
O       0.2749   0.3624  0.42292     O
C       0.2774   0.9893   0.1943     C
N       0.2796   0.6987   0.0571     N
N       0.2881    0.661  0.52536     N
C       0.2976   0.8036   0.3064     C
H       0.3037   0.4269   0.0656     H
H       0.3081   0.6087   0.3819     H
F         0.31   0.1752   0.7342     F
H       0.3146   0.5873   0.1078     H
C       0.3278   0.7999   0.0527     C
H       0.3287   0.4375   0.6365     H
C       0.3381   0.5015   0.6528     C
C       0.3599   0.7234   0.3281     C
H       0.3628   0.0469    0.206     H
O       0.3635   0.1482  0.04964     O
C       0.3657   0.6892   0.7008     C
C       0.3682   0.6766   0.8249     C
F       0.3757   0.0308    0.307     F
H       0.3774   0.7534   0.7172     H
F        0.381   0.9627    0.739     F
C       0.3834   0.8291   0.5314     C
C        0.384   0.4574   0.0389     C
C       0.3878   0.6301   0.0809     C
F       0.3884   0.1149   0.8081     F
H       0.3909   0.3246   0.0006     H
C       0.3981   0.8163   0.8871     C
C       0.4009   0.8756   0.2631     C
C       0.4149   0.4253   0.4128     C
H       0.4156   0.6235   0.8099     H
F       0.4177   0.0459   0.6655     F
C       0.4239   0.7433   0.5116     C
H       0.4297   0.2803    0.122     H
H       0.4341   0.2652   0.3524     H
H       0.4342   0.8392   0.0678     H
C       0.4362   0.3957   0.9999     C
C       0.4474   0.5621   0.0393     C
C       0.4523   0.1677   0.7645     C
H        0.454   0.8958   0.5282     H
C       0.4616   0.7351   0.8652     C
O       0.4673    0.967  0.94076     O
C       0.4687   0.5853   0.6344     C
H       0.4698   0.7086   0.3159     H
H       0.4721     0.26   0.5084     H
O       0.4757   0.5061  0.44252     O
C       0.4792   0.6778   0.6592     C
F       0.4812    0.735   0.2174     F
C       0.4928   0.9751   0.2909     C
C       0.4955   0.1181    0.071     C
H       0.4956   0.6711   0.0982     H
H       0.5044   0.3289   0.9018     H
C       0.5045   0.8819    0.929     C
C       0.5072   0.0249   0.7091     C
F       0.5188    0.265   0.7826     F
C       0.5208   0.3222   0.3408     C
O       0.5243   0.4939  0.55748     O
H       0.5279     0.74   0.4916     H
H       0.5302   0.2914   0.6841     H
C       0.5313   0.4147   0.3656     C
O       0.5327    0.033  0.05924     O
C       0.5384   0.2649   0.1348     C
H        0.546   0.1042   0.4718     H
C       0.5477   0.8323   0.2355     C
C       0.5526   0.4379   0.9607     C
C       0.5638   0.6043   0.0001     C
H       0.5658   0.1608   0.9322     H
H       0.5659   0.7348   0.6476     H
H       0.5703   0.7197    0.878     H
C       0.5761   0.2567   0.4884     C
F       0.5823   0.9541   0.3345     F
H       0.5844   0.3765   0.1901     H
C       0.5851   0.5747   0.5872     C
C       0.5991   0.1244   0.7369     C
C       0.6019   0.1837   0.1129     C
H       0.6091   0.6754   0.9994     H
F       0.6116   0.8851   0.1919     F
C       0.6122   0.3699   0.9191     C
C        0.616   0.5426   0.9611     C
C       0.6166   0.1709   0.4686     C
F        0.619   0.0373    0.261     F
H       0.6226   0.2466   0.2828     H
F       0.6243   0.9692    0.693     F
C       0.6318   0.3234   0.1751     C
C       0.6343   0.3108   0.2992     C
O       0.6365   0.8518  0.95036     O
H       0.6372   0.9531    0.794     H
C       0.6401   0.2766   0.6719     C
C       0.6619   0.4985   0.3472     C
H       0.6713   0.5625   0.3635     H
C       0.6722   0.2001   0.9473     C
H       0.6854   0.4127   0.8922     H
F         0.69   0.8248   0.2658     F
H       0.6919   0.3913   0.6181     H
H       0.6963   0.5731   0.9344     H
C       0.7024   0.1964   0.6936     C
N       0.7119    0.339  0.47464     N
N       0.7204   0.3013   0.9429     N
C       0.7226   0.0107   0.8057     C
O       0.7251   0.6376  0.57708     O
C       0.7331   0.1057   0.7813     C
C       0.7369   0.3364   0.6321     C
Cd     0.74748  0.50601 0.497662    Cd
Cd     0.75252  0.99399 0.997662    Cd
C       0.7631   0.1636   0.1321     C
C       0.7669   0.3943   0.2813     C
O       0.7749   0.8624  0.07708     O
C       0.7774   0.4893   0.3057     C
N       0.7796   0.1987   0.4429     N
N       0.7881    0.161  0.97464     N
C       0.7976   0.3036   0.1936     C
H       0.8037   0.9269   0.4344     H
H       0.8081   0.1087   0.1181     H
F         0.81   0.6752   0.7658     F
H       0.8146   0.0873   0.3922     H
C       0.8278   0.2999   0.4473     C
H       0.8287   0.9375   0.8635     H
C       0.8381   0.0015   0.8472     C
C       0.8599   0.2234   0.1719     C
H       0.8628   0.5469    0.294     H
O       0.8635   0.6482  0.45036     O
C       0.8657   0.1892   0.7992     C
C       0.8682   0.1766   0.6751     C
F       0.8757   0.5308    0.193     F
H       0.8774   0.2534   0.7828     H
F        0.881   0.4627    0.761     F
C       0.8834   0.3291   0.9686     C
C        0.884   0.9574   0.4611     C
C       0.8878   0.1301   0.4191     C
F       0.8884   0.6149   0.6919     F
H       0.8909   0.8246   0.4994     H
C       0.8981   0.3163   0.6129     C
C       0.9009   0.3756   0.2369     C
C       0.9149   0.9253   0.0872     C
H       0.9156   0.1235   0.6901     H
F       0.9177   0.5459   0.8345     F
C       0.9239   0.2433   0.9884     C
H       0.9297   0.7803    0.378     H
H       0.9341   0.7652   0.1476     H
H       0.9342   0.3392   0.4322     H
C       0.9362   0.8957   0.5001     C
C       0.9474   0.0621   0.4607     C
C       0.9523   0.6677   0.7355     C
H        0.954   0.3958   0.9718     H
C       0.9616   0.2351   0.6348     C
O       0.9673    0.467  0.55924     O
C       0.9687   0.0853   0.8656     C
H       0.9698   0.2086   0.1841     H
H       0.9721     0.76   0.9916     H
O       0.9757   0.0061  0.05748     O
C       0.9792   0.1778   0.8408     C
F       0.9812    0.235   0.2826     F
C       0.9928   0.4751   0.2091     C
C       0.9955   0.6181    0.429     C
H       0.9956   0.1711   0.4018     H
