data_I
_chemical_name_common  '/home/zhangsd/repos/MofS-CGCNN/ML/data/WS24/clean_cifs/OTENUX'
_cell_length_a  8.94700
_cell_length_b 11.06200
_cell_length_c 12.64600
_cell_angle_alpha 90.00000
_cell_angle_beta  90.00000
_cell_angle_gamma 108.17000
_space_group_name_H-M_alt      'P 1'


loop_
_space_group_symop_operation_xyz
  'x, y, z' 

loop_
_atom_site_label
_atom_site_fract_x
_atom_site_fract_y
_atom_site_fract_z
_atom_site_type_symbol
O      0.02306  0.14179   0.2122     O
N      0.03106  0.19466  0.71845     N
O      0.03532  0.00511  0.44342     O
N       0.0507  0.37306   0.4121     N
O      0.05825  0.51224   0.7854     O
O        0.061  0.75933  0.14056     O
N       0.0734   0.2596  0.40661     N
O      0.07769  0.55117  0.25277     O
C       0.0868  0.31456  0.74463     C
H       0.0981  0.48479   0.2733     H
O        0.121  0.91272  0.26258     O
C       0.1304  0.86729  0.17246     C
N       0.1587  0.15126  0.71744     N
H        0.159    0.612   0.2696     H
H       0.2329  0.62356  0.99059     H
Gd      0.2337  0.12912  0.31913    Gd
O       0.2395  0.67695  0.94103     O
N       0.2413  0.35171   0.7639     N
H        0.243   0.7898  0.67517     H
C       0.2448  0.95982  0.09793     C
H        0.263  0.74856    0.972     H
N       0.2845  0.24691   0.7437     N
N       0.2995  0.93305  0.00955     N
N       0.3056  0.07929  0.12699     N
O      0.30766  0.77763  0.72011     O
O      0.32261  0.56783  0.60549     O
H       0.3235    0.496   0.5822     H
O      0.34332  0.34897  0.25024     O
Gd    0.344759  0.59476 0.794662    Gd
O      0.35589  0.00155  0.42947     O
H       0.3667  0.85233   0.7345     H
N       0.3871  0.25498  0.47855     N
H       0.3987   0.6211   0.5737     H
N       0.4012   0.0427  0.97679     N
N       0.4012  0.13529  0.04729     N
H       0.4057   0.4251   0.9673     H
O       0.4088  0.50072  0.95204     O
N       0.4379  0.37176   0.5214     N
H       0.4468   0.5433   0.0071     H
C       0.4491  0.05444  0.50111     C
H       0.4519   0.1688   0.7615     H
C       0.4703  0.18875  0.52509     C
C       0.4875  0.39707  0.23946     C
H       0.4941   0.1241  0.85155     H
O      0.52306  0.14179   0.7878     O
N      0.53106  0.19466  0.28155     N
O      0.53532  0.00511  0.55658     O
N       0.5507  0.37306   0.5879     N
O      0.55825  0.51224   0.2146     O
O        0.561  0.75933  0.85944     O
N       0.5734   0.2596  0.59339     N
O      0.57769  0.55117  0.74723     O
C       0.5868  0.31456  0.25537     C
H       0.5981  0.48479   0.7267     H
O        0.621  0.91272  0.73742     O
C       0.6304  0.86729  0.82754     C
N       0.6587  0.15126  0.28256     N
H        0.659    0.612   0.7304     H
H       0.7329  0.62356  0.00941     H
Gd      0.7337  0.12912  0.68087    Gd
O       0.7395  0.67695  0.05897     O
N       0.7413  0.35171   0.2361     N
H        0.743   0.7898  0.32483     H
C       0.7448  0.95982  0.90207     C
H        0.763  0.74856    0.028     H
N       0.7845  0.24691   0.2563     N
N       0.7995  0.93305  0.99045     N
N       0.8056  0.07929  0.87301     N
O      0.80766  0.77763  0.27989     O
O      0.82261  0.56783  0.39451     O
H       0.8235    0.496   0.4178     H
O      0.84332  0.34897  0.74976     O
Gd    0.844759  0.59476 0.205338    Gd
O      0.85589  0.00155  0.57053     O
H       0.8667  0.85233   0.2655     H
N       0.8871  0.25498  0.52145     N
H       0.8987   0.6211   0.4263     H
N       0.9012   0.0427  0.02321     N
N       0.9012  0.13529  0.95271     N
H       0.9057   0.4251   0.0327     H
O       0.9088  0.50072  0.04796     O
N       0.9379  0.37176   0.4786     N
H       0.9468   0.5433   0.9929     H
C       0.9491  0.05444  0.49889     C
H       0.9519   0.1688   0.2385     H
C       0.9703  0.18875  0.47491     C
C       0.9875  0.39707  0.76054     C
H       0.9941   0.1241  0.14845     H
