data_I
_chemical_name_common  '/home/zhangsd/repos/MofS-CGCNN/ML/data/WS24/clean_cifs/OTENOR'
_cell_length_a  8.96500
_cell_length_b 11.05600
_cell_length_c 12.67700
_cell_angle_alpha 90.00000
_cell_angle_beta  90.00000
_cell_angle_gamma 107.98100
_space_group_name_H-M_alt      'P 1'


loop_
_space_group_symop_operation_xyz
  'x, y, z' 

loop_
_atom_site_label
_atom_site_fract_x
_atom_site_fract_y
_atom_site_fract_z
_atom_site_type_symbol
O         0.02  0.14001  0.21078     O
N       0.0307  0.19474  0.71709     N
O       0.0343  0.00439   0.4443     O
N       0.0503  0.37369  0.41226     N
O       0.0581  0.51097  0.78611     O
O       0.0601  0.76006  0.13846     O
H       0.0709   0.4767   0.2703     H
N       0.0724  0.26045  0.40862     N
O       0.0788  0.55326  0.25502     O
C       0.0871   0.3151   0.7445     C
O       0.1211  0.91115  0.26055     O
C       0.1316   0.8667   0.1707     C
N       0.1546   0.1501  0.71703     N
H       0.1609   0.5781   0.2172     H
H       0.2295   0.8074   0.7329     H
Eu    0.233411 0.128978 0.318811    Eu
O       0.2368  0.67769  0.94223     O
H        0.239   0.7548    0.939     H
N       0.2417  0.35206  0.76157     N
C       0.2429   0.9573    0.099     C
H       0.2677   0.6691   0.0043     H
N       0.2795   0.2439   0.7454     N
N        0.296   0.9333   0.0062     N
N       0.3054   0.0789  0.12618     N
O       0.3054  0.77942   0.7194     O
O       0.3255  0.56924  0.60219     O
H        0.333    0.625   0.5548     H
H        0.341   0.5074   0.5687     H
O       0.3432  0.34808  0.24979     O
Eu    0.345157 0.594983 0.794918    Eu
O      0.35371  0.00153  0.43192     O
H       0.3829   0.8447   0.7076     H
N       0.3841  0.25419   0.4783     N
N       0.3955   0.0434   0.9748     N
N       0.4009   0.1323    0.046     N
O       0.4087  0.49925  0.95373     O
H       0.4325   0.5445   0.0089     H
N       0.4372  0.37024   0.5204     N
C       0.4496   0.0543  0.50146     C
C       0.4673   0.1884    0.524     C
H       0.4706   0.0891   0.8369     H
H       0.4727   0.4564   0.9522     H
H       0.4849   0.2028   0.7924     H
C       0.4883   0.3985   0.2395     C
O         0.52  0.14001  0.78922     O
N       0.5307  0.19474  0.28291     N
O       0.5343  0.00439   0.5557     O
N       0.5503  0.37369  0.58774     N
O       0.5581  0.51097  0.21389     O
O       0.5601  0.76006  0.86154     O
H       0.5709   0.4767   0.7297     H
N       0.5724  0.26045  0.59138     N
O       0.5788  0.55326  0.74498     O
C       0.5871   0.3151   0.2555     C
O       0.6211  0.91115  0.73945     O
C       0.6316   0.8667   0.8293     C
N       0.6546   0.1501  0.28297     N
H       0.6609   0.5781   0.7828     H
H       0.7295   0.8074   0.2671     H
Eu    0.733411 0.128978 0.681189    Eu
O       0.7368  0.67769  0.05777     O
H        0.739   0.7548    0.061     H
N       0.7417  0.35206  0.23843     N
C       0.7429   0.9573    0.901     C
H       0.7677   0.6691   0.9957     H
N       0.7795   0.2439   0.2546     N
N        0.796   0.9333   0.9938     N
N       0.8054   0.0789  0.87382     N
O       0.8054  0.77942   0.2806     O
O       0.8255  0.56924  0.39781     O
H        0.833    0.625   0.4452     H
H        0.841   0.5074   0.4313     H
O       0.8432  0.34808  0.75021     O
Eu    0.845157 0.594983 0.205082    Eu
O      0.85371  0.00153  0.56808     O
H       0.8829   0.8447   0.2924     H
N       0.8841  0.25419   0.5217     N
N       0.8955   0.0434   0.0252     N
N       0.9009   0.1323    0.954     N
O       0.9087  0.49925  0.04627     O
H       0.9325   0.5445   0.9911     H
N       0.9372  0.37024   0.4796     N
C       0.9496   0.0543  0.49854     C
C       0.9673   0.1884    0.476     C
H       0.9706   0.0891   0.1631     H
H       0.9727   0.4564   0.0478     H
H       0.9849   0.2028   0.2076     H
C       0.9883   0.3985   0.7605     C
