data_I
_chemical_name_common  '/home/zhangsd/repos/MofS-CGCNN/ML/data/WS24/clean_cifs/OTENIL'
_cell_length_a  9.00140
_cell_length_b 11.07650
_cell_length_c 12.69600
_cell_angle_alpha 90.00000
_cell_angle_beta  90.00000
_cell_angle_gamma 107.98000
_space_group_name_H-M_alt      'P 1'


loop_
_space_group_symop_operation_xyz
  'x, y, z' 

loop_
_atom_site_label
_atom_site_fract_x
_atom_site_fract_y
_atom_site_fract_z
_atom_site_type_symbol
O      0.02293  0.14276  0.20986     O
N      0.02874  0.19504  0.71761     N
O      0.03251  0.00399  0.44409     O
H       0.0401   0.4825   0.2861     H
N      0.04905  0.37334  0.41161     N
O       0.0563  0.51125  0.78454     O
O      0.05977  0.76053    0.138     O
N      0.07087  0.25946  0.40775     N
O      0.08104  0.55204  0.25387     O
C       0.0868  0.31421  0.74397     C
O      0.11702   0.9109  0.26038     O
C       0.1332  0.87009  0.16935     C
H        0.152   0.5385   0.2162     H
N      0.15395  0.14975  0.71764     N
Sm    0.233041  0.12889 0.318736    Sm
O      0.23741  0.67741  0.94381     O
N       0.2401  0.35057  0.76173     N
C      0.24297  0.95753  0.09729     C
H       0.2481  0.75578   0.9523     H
H       0.2507   0.7697  0.66558     H
H       0.2732   0.6564  0.00058     H
N       0.2785  0.24264  0.74557     N
N       0.2965  0.93307   0.0068     N
N      0.30522  0.07869  0.12611     N
O      0.30594  0.78068  0.72094     O
O      0.32123  0.56693  0.60554     O
O      0.34067  0.34855  0.24941     O
H       0.3421  0.50641   0.5739     H
Sm    0.345679  0.59511 0.794677    Sm
O      0.35223  0.00116  0.43187     O
N      0.38223  0.25327  0.47929     N
H       0.3837   0.6333   0.5779     H
N       0.3952  0.04167  0.97542     N
H       0.3952   0.8291   0.7028     H
N       0.3998  0.13258  0.04792     N
O      0.40814   0.4973  0.95398     O
H       0.4134   0.5526   0.0015     H
N      0.43607  0.37055   0.5199     N
C       0.4495  0.05513  0.50157     C
H       0.4598   0.0789   0.8201     H
H       0.4654   0.1794   0.7589     H
C      0.46719  0.18903  0.52318     C
H       0.4748   0.4615   0.9734     H
C       0.4886  0.39776  0.23938     C
O      0.52293  0.14276  0.79014     O
N      0.52874  0.19504  0.28239     N
O      0.53251  0.00399  0.55591     O
H       0.5401   0.4825   0.7139     H
N      0.54905  0.37334  0.58839     N
O       0.5563  0.51125  0.21546     O
O      0.55977  0.76053    0.862     O
N      0.57087  0.25946  0.59225     N
O      0.58104  0.55204  0.74613     O
C       0.5868  0.31421  0.25603     C
O      0.61702   0.9109  0.73962     O
C       0.6332  0.87009  0.83065     C
H        0.652   0.5385   0.7838     H
N      0.65395  0.14975  0.28236     N
Sm    0.733041  0.12889 0.681264    Sm
O      0.73741  0.67741  0.05619     O
N       0.7401  0.35057  0.23827     N
C      0.74297  0.95753  0.90271     C
H       0.7481  0.75578   0.0477     H
H       0.7507   0.7697  0.33442     H
H       0.7732   0.6564  0.99942     H
N       0.7785  0.24264  0.25443     N
N       0.7965  0.93307   0.9932     N
N      0.80522  0.07869  0.87389     N
O      0.80594  0.78068  0.27906     O
O      0.82123  0.56693  0.39446     O
O      0.84067  0.34855  0.75059     O
H       0.8421  0.50641   0.4261     H
Sm    0.845679  0.59511 0.205323    Sm
O      0.85223  0.00116  0.56813     O
N      0.88223  0.25327  0.52071     N
H       0.8837   0.6333   0.4221     H
N       0.8952  0.04167  0.02458     N
H       0.8952   0.8291   0.2972     H
N       0.8998  0.13258  0.95208     N
O      0.90814   0.4973  0.04602     O
H       0.9134   0.5526   0.9985     H
N      0.93607  0.37055   0.4801     N
C       0.9495  0.05513  0.49843     C
H       0.9598   0.0789   0.1799     H
H       0.9654   0.1794   0.2411     H
C      0.96719  0.18903  0.47682     C
H       0.9748   0.4615   0.0266     H
C       0.9886  0.39776  0.76062     C
