data_I
_chemical_name_common  '/home/zhangsd/repos/MofS-CGCNN/ML/data/WS24/clean_cifs/OTEPAF'
_cell_length_a  8.90550
_cell_length_b 11.06530
_cell_length_c 12.60790
_cell_angle_alpha 90.00000
_cell_angle_beta  90.00000
_cell_angle_gamma 108.35000
_space_group_name_H-M_alt      'P 1'


loop_
_space_group_symop_operation_xyz
  'x, y, z' 

loop_
_atom_site_label
_atom_site_fract_x
_atom_site_fract_y
_atom_site_fract_z
_atom_site_type_symbol
O       0.0217  0.63886  0.21342     O
N      0.03005  0.69472  0.71663     N
O      0.03573  0.50504  0.44503     O
N      0.05047  0.87389  0.41147     N
O      0.05708  0.25891  0.14017     O
O      0.05758  0.01166  0.78427     O
N      0.07382   0.7596  0.40865     N
O      0.07726  0.05246  0.25361     O
C      0.08679  0.81553  0.74534     C
H       0.1001  0.00453  0.29926     H
O      0.11953  0.41211  0.26333     O
C      0.12939  0.36723    0.172     C
N      0.15554  0.65064  0.71766     N
H       0.1654   0.0997   0.2301     H
H      0.22192   0.2997   0.7103     H
Tb    0.233869  0.62912 0.319341    Tb
O      0.23878  0.17857  0.94088     O
N      0.24144  0.85136  0.76317     N
C      0.24333  0.45826  0.09978     C
H       0.2551  0.25677   0.9551     H
N       0.2799  0.74433  0.74529     N
H       0.2899   0.1541  0.98888     H
N       0.2968  0.43387  0.00643     N
O      0.30386  0.27715  0.71878     O
N      0.30487  0.58065  0.12612     N
O      0.32479    0.069  0.60574     O
H       0.3321   0.9411   0.9776     H
O      0.33927  0.84613  0.24973     O
Tb    0.344552   0.0948 0.794418    Tb
H       0.3497  0.00732   0.5789     H
O      0.35453  0.50036  0.42992     O
H       0.3806   0.3408   0.6991     H
N      0.38385   0.7533  0.47776     N
H       0.3942   0.1345   0.5809     H
N      0.39627  0.54428  0.97699     N
N      0.39957  0.63301  0.04702     N
O      0.40826  0.00147  0.95231     O
N      0.43956  0.87087  0.52011     N
H       0.4404   0.0521  0.00411     H
H       0.4503   0.6718   0.7718     H
C      0.45057  0.55415  0.50037     C
C      0.46921  0.68909  0.52305     C
C       0.4853  0.89723  0.24016     C
H       0.4871   0.5918  0.84004     H
O       0.5217  0.63886  0.78658     O
N      0.53005  0.69472  0.28337     N
O      0.53573  0.50504  0.55497     O
N      0.55047  0.87389  0.58853     N
O      0.55708  0.25891  0.85983     O
O      0.55758  0.01166  0.21573     O
N      0.57382   0.7596  0.59135     N
O      0.57726  0.05246  0.74639     O
C      0.58679  0.81553  0.25466     C
H       0.6001  0.00453  0.70074     H
O      0.61953  0.41211  0.73667     O
C      0.62939  0.36723    0.828     C
N      0.65554  0.65064  0.28234     N
H       0.6654   0.0997   0.7699     H
H      0.72192   0.2997   0.2897     H
Tb    0.733869  0.62912 0.680659    Tb
O      0.73878  0.17857  0.05912     O
N      0.74144  0.85136  0.23683     N
C      0.74333  0.45826  0.90022     C
H       0.7551  0.25677   0.0449     H
N       0.7799  0.74433  0.25471     N
H       0.7899   0.1541  0.01112     H
N       0.7968  0.43387  0.99357     N
O      0.80386  0.27715  0.28122     O
N      0.80487  0.58065  0.87388     N
O      0.82479    0.069  0.39426     O
H       0.8321   0.9411   0.0224     H
O      0.83927  0.84613  0.75027     O
Tb    0.844552   0.0948 0.205582    Tb
H       0.8497  0.00732   0.4211     H
O      0.85453  0.50036  0.57008     O
H       0.8806   0.3408   0.3009     H
N      0.88385   0.7533  0.52224     N
H       0.8942   0.1345   0.4191     H
N      0.89627  0.54428  0.02301     N
N      0.89957  0.63301  0.95298     N
O      0.90826  0.00147  0.04769     O
N      0.93956  0.87087  0.47989     N
H       0.9404   0.0521  0.99589     H
H       0.9503   0.6718   0.2282     H
C      0.95057  0.55415  0.49963     C
C      0.96921  0.68909  0.47695     C
C       0.9853  0.89723  0.75984     C
H       0.9871   0.5918  0.15996     H
