data_I
_chemical_name_common  '/home/zhangsd/repos/MofS-CGCNN/ML/data/WS24/clean_cifs/OTODOS'
_cell_length_a 12.97500
_cell_length_b 23.05000
_cell_length_c 13.15500
_cell_angle_alpha 90.00000
_cell_angle_beta  91.81900
_cell_angle_gamma 90.00000
_space_group_name_H-M_alt      'P 1'


loop_
_space_group_symop_operation_xyz
  'x, y, z' 

loop_
_atom_site_label
_atom_site_fract_x
_atom_site_fract_y
_atom_site_fract_z
_atom_site_type_symbol
Ag         0.0  0.44523     0.25    Ag
Ag         0.0  0.55477     0.75    Ag
C       0.0077  0.46662   0.5871     C
C       0.0077  0.53338   0.0871     C
H       0.0128   0.4435   0.6468     H
H       0.0128   0.5565   0.1468     H
C       0.0347   0.3041   0.9638     C
C       0.0347   0.6959   0.4638     C
C       0.0392   0.2347   0.0908     C
C       0.0392   0.7653   0.5908     C
C       0.0627   0.2455   0.3892     C
C       0.0627   0.7545   0.8892     C
C       0.0651   0.3168   0.5199     C
C       0.0651   0.6832   0.0199     C
H       0.0681    0.324   0.9108     H
H       0.0681    0.676   0.4108     H
H        0.075   0.2055   0.1287     H
H        0.075   0.7945   0.6287     H
C       0.0801  0.46326   0.9747     C
C       0.0801  0.53674   0.4747     C
C       0.0893  0.49662   0.0634     C
C       0.0893  0.50338   0.5634     C
N       0.0899   0.2644   0.0189     N
N       0.0899   0.7356   0.5189     N
H       0.0958   0.2235   0.3386     H
H       0.0958   0.7765   0.8386     H
H       0.0997   0.3452   0.5608     H
H       0.0997   0.6548   0.0608     H
H       0.1004   0.3384   0.2622     H
H       0.1004   0.6616   0.7622     H
C       0.1178   0.2885   0.4427     C
C       0.1178   0.7115   0.9427     C
H       0.1342   0.4097   0.3998     H
H       0.1342   0.5903   0.8998     H
H       0.1347   0.4381   0.9568     H
H       0.1347   0.5619   0.4568     H
H        0.152   0.3795    0.107     H
H        0.152   0.6205    0.607     H
N       0.1642  0.44502   0.2116     N
N       0.1642  0.55498   0.7116     N
C       0.1748   0.3402   0.2481     C
C       0.1748   0.6598   0.7481     C
C       0.1813    0.492   0.1354     C
C       0.1813    0.508   0.6354     C
H       0.1923   0.4706    0.671     H
H       0.1923   0.5294    0.171     H
C       0.1934   0.3875   0.1699     C
C       0.1934   0.6125   0.6699     C
H       0.1956   0.3022   0.2203     H
H       0.1956   0.6978   0.7203     H
H       0.1962   0.0457   0.7118     H
H       0.1962   0.9543   0.2118     H
C       0.2079   0.4085   0.3828     C
C       0.2079   0.5915   0.8828     C
H       0.2148    0.494   0.3339     H
H       0.2148    0.506   0.8339     H
C       0.2253    0.304    0.416     C
C       0.2253    0.696    0.916     C
C       0.2301   0.4553   0.3053     C
C       0.2301   0.5447   0.8053     C
H       0.2329   0.1121   0.8474     H
N       0.2329  0.35166   0.3416     N
N       0.2329  0.64834   0.8416     N
H       0.2329   0.8879   0.3474     H
H        0.236   0.1848    0.521     H
H        0.236   0.8152    0.021     H
H        0.241   0.2308   0.6118     H
H        0.241   0.7692   0.1118     H
H       0.2437   0.4832   0.0968     H
H       0.2437   0.5168   0.5968     H
H       0.2496   0.4155   0.4459     H
H       0.2496   0.5845   0.9459     H
Ag        0.25     0.25      0.0    Ag
Ag        0.25     0.75      0.5    Ag
H       0.2504   0.0845   0.5541     H
H       0.2504   0.9155   0.0541     H
H       0.2563   0.0168   0.9032     H
H       0.2563   0.9832   0.4032     H
H        0.259   0.2692   0.3882     H
H        0.259   0.7308   0.8882     H
H        0.264   0.3152    0.479     H
H        0.264   0.6848    0.979     H
N       0.2671  0.14834   0.6584     N
H       0.2671   0.3879   0.1526     H
H       0.2671   0.6121   0.6526     H
N       0.2671  0.85166   0.1584     N
C       0.2699   0.0447   0.6947     C
C       0.2699   0.9553   0.1947     C
C       0.2747    0.196    0.584     C
C       0.2747    0.804    0.084     C
H       0.2852    0.006   0.6661     H
H       0.2852    0.994   0.1661     H
C       0.2921   0.0915   0.6172     C
C       0.2921   0.9085   0.1172     C
H       0.3038   0.4543   0.2882     H
H       0.3038   0.5457   0.7882     H
H       0.3044   0.1978   0.7797     H
H       0.3044   0.8022   0.2797     H
C       0.3066   0.1125   0.8301     C
C       0.3066   0.8875   0.3301     C
H       0.3077   0.0294    0.329     H
H       0.3077   0.9706    0.829     H
C       0.3187    0.008   0.8646     C
C       0.3187    0.992   0.3646     C
C       0.3252   0.1598   0.7519     C
C       0.3252   0.8402   0.2519     C
N       0.3358  0.05498   0.7884     N
N       0.3358  0.94502   0.2884     N
H        0.348   0.1205    0.893     H
H        0.348   0.8795    0.393     H
H       0.3653   0.0619   0.0432     H
H       0.3653   0.9381   0.5432     H
H       0.3658   0.0903   0.6002     H
H       0.3658   0.9097   0.1002     H
C       0.3822   0.2115   0.5573     C
C       0.3822   0.7885   0.0573     C
H       0.3996   0.1616   0.7378     H
H       0.3996   0.8384   0.2378     H
H       0.4003   0.1548   0.4392     H
H       0.4003   0.8452   0.9392     H
H       0.4042   0.2765   0.6614     H
H       0.4042   0.7235   0.1614     H
N       0.4101   0.2356   0.9811     N
N       0.4101   0.7644   0.4811     N
C       0.4107  0.00338   0.9366     C
C       0.4107  0.99662   0.4366     C
C       0.4199  0.03674   0.0253     C
C       0.4199  0.96326   0.5253     C
H        0.425   0.2945   0.8713     H
H        0.425   0.7055   0.3713     H
H       0.4319    0.176   0.0892     H
H       0.4319    0.824   0.5892     H
C       0.4349   0.1832   0.4801     C
C       0.4349   0.8168   0.9801     C
C       0.4373   0.2545   0.6108     C
C       0.4373   0.7455   0.1108     C
C       0.4608   0.2653   0.9092     C
C       0.4608   0.7347   0.4092     C
C       0.4653   0.1959   0.0362     C
C       0.4653   0.8041   0.5362     C
H       0.4872   0.0565   0.3532     H
H       0.4872   0.9435   0.8532     H
C       0.4923  0.03338   0.4129     C
C       0.4923  0.96662   0.9129     C
Ag         0.5  0.05477     0.75    Ag
Ag         0.5  0.94523     0.25    Ag
C       0.5077  0.03338   0.0871     C
C       0.5077  0.96662   0.5871     C
H       0.5128   0.0565   0.1468     H
H       0.5128   0.9435   0.6468     H
C       0.5347   0.1959   0.4638     C
C       0.5347   0.8041   0.9638     C
C       0.5392   0.2653   0.5908     C
C       0.5392   0.7347   0.0908     C
C       0.5627   0.2545   0.8892     C
C       0.5627   0.7455   0.3892     C
C       0.5651   0.1832   0.0199     C
C       0.5651   0.8168   0.5199     C
H       0.5681    0.176   0.4108     H
H       0.5681    0.824   0.9108     H
H        0.575   0.2945   0.6287     H
H        0.575   0.7055   0.1287     H
C       0.5801  0.03674   0.4747     C
C       0.5801  0.96326   0.9747     C
C       0.5893  0.00338   0.5634     C
C       0.5893  0.99662   0.0634     C
N       0.5899   0.2356   0.5189     N
N       0.5899   0.7644   0.0189     N
H       0.5958   0.2765   0.8386     H
H       0.5958   0.7235   0.3386     H
H       0.5997   0.1548   0.0608     H
H       0.5997   0.8452   0.5608     H
H       0.6004   0.1616   0.7622     H
H       0.6004   0.8384   0.2622     H
C       0.6178   0.2115   0.9427     C
C       0.6178   0.7885   0.4427     C
H       0.6342   0.0903   0.8998     H
H       0.6342   0.9097   0.3998     H
H       0.6347   0.0619   0.4568     H
H       0.6347   0.9381   0.9568     H
H        0.652   0.1205    0.607     H
H        0.652   0.8795    0.107     H
N       0.6642  0.05498   0.7116     N
N       0.6642  0.94502   0.2116     N
C       0.6748   0.1598   0.7481     C
C       0.6748   0.8402   0.2481     C
C       0.6813    0.008   0.6354     C
C       0.6813    0.992   0.1354     C
H       0.6923   0.0294    0.171     H
H       0.6923   0.9706    0.671     H
C       0.6934   0.1125   0.6699     C
C       0.6934   0.8875   0.1699     C
H       0.6956   0.1978   0.7203     H
H       0.6956   0.8022   0.2203     H
H       0.6962   0.4543   0.2118     H
H       0.6962   0.5457   0.7118     H
C       0.7079   0.0915   0.8828     C
C       0.7079   0.9085   0.3828     C
H       0.7148    0.006   0.8339     H
H       0.7148    0.994   0.3339     H
C       0.7253    0.196    0.916     C
C       0.7253    0.804    0.416     C
C       0.7301   0.0447   0.8053     C
C       0.7301   0.9553   0.3053     C
N       0.7329  0.14834   0.8416     N
H       0.7329   0.3879   0.3474     H
H       0.7329   0.6121   0.8474     H
N       0.7329  0.85166   0.3416     N
H        0.736   0.3152    0.021     H
H        0.736   0.6848    0.521     H
H        0.741   0.2692   0.1118     H
H        0.741   0.7308   0.6118     H
H       0.7437   0.0168   0.5968     H
H       0.7437   0.9832   0.0968     H
H       0.7496   0.0845   0.9459     H
H       0.7496   0.9155   0.4459     H
Ag        0.75     0.25      0.5    Ag
Ag        0.75     0.75      0.0    Ag
H       0.7504   0.4155   0.0541     H
H       0.7504   0.5845   0.5541     H
H       0.7563   0.4832   0.4032     H
H       0.7563   0.5168   0.9032     H
H        0.759   0.2308   0.8882     H
H        0.759   0.7692   0.3882     H
H        0.764   0.1848    0.979     H
H        0.764   0.8152    0.479     H
H       0.7671   0.1121   0.6526     H
N       0.7671  0.35166   0.1584     N
N       0.7671  0.64834   0.6584     N
H       0.7671   0.8879   0.1526     H
C       0.7699   0.4553   0.1947     C
C       0.7699   0.5447   0.6947     C
C       0.7747    0.304    0.084     C
C       0.7747    0.696    0.584     C
H       0.7852    0.494   0.1661     H
H       0.7852    0.506   0.6661     H
C       0.7921   0.4085   0.1172     C
C       0.7921   0.5915   0.6172     C
H       0.8038   0.0457   0.7882     H
H       0.8038   0.9543   0.2882     H
H       0.8044   0.3022   0.2797     H
H       0.8044   0.6978   0.7797     H
C       0.8066   0.3875   0.3301     C
C       0.8066   0.6125   0.8301     C
H       0.8077   0.4706    0.829     H
H       0.8077   0.5294    0.329     H
C       0.8187    0.492   0.3646     C
C       0.8187    0.508   0.8646     C
C       0.8252   0.3402   0.2519     C
C       0.8252   0.6598   0.7519     C
N       0.8358  0.44502   0.2884     N
N       0.8358  0.55498   0.7884     N
H        0.848   0.3795    0.393     H
H        0.848   0.6205    0.893     H
H       0.8653   0.4381   0.5432     H
H       0.8653   0.5619   0.0432     H
H       0.8658   0.4097   0.1002     H
H       0.8658   0.5903   0.6002     H
C       0.8822   0.2885   0.0573     C
C       0.8822   0.7115   0.5573     C
H       0.8996   0.3384   0.2378     H
H       0.8996   0.6616   0.7378     H
H       0.9003   0.3452   0.9392     H
H       0.9003   0.6548   0.4392     H
H       0.9042   0.2235   0.1614     H
H       0.9042   0.7765   0.6614     H
N       0.9101   0.2644   0.4811     N
N       0.9101   0.7356   0.9811     N
C       0.9107  0.49662   0.4366     C
C       0.9107  0.50338   0.9366     C
C       0.9199  0.46326   0.5253     C
C       0.9199  0.53674   0.0253     C
H        0.925   0.2055   0.3713     H
H        0.925   0.7945   0.8713     H
H       0.9319    0.324   0.5892     H
H       0.9319    0.676   0.0892     H
C       0.9349   0.3168   0.9801     C
C       0.9349   0.6832   0.4801     C
C       0.9373   0.2455   0.1108     C
C       0.9373   0.7545   0.6108     C
C       0.9608   0.2347   0.4092     C
C       0.9608   0.7653   0.9092     C
C       0.9653   0.3041   0.5362     C
C       0.9653   0.6959   0.0362     C
H       0.9872   0.4435   0.8532     H
H       0.9872   0.5565   0.3532     H
C       0.9923  0.46662   0.9129     C
C       0.9923  0.53338   0.4129     C
