data_I
_chemical_name_common  '/home/zhangsd/repos/MofS-CGCNN/ML/data/WS24/clean_cifs/OVIDED'
_cell_length_a  7.97150
_cell_length_b 11.70100
_cell_length_c 15.03800
_cell_angle_alpha 72.37500
_cell_angle_beta  82.93100
_cell_angle_gamma 75.44200
_space_group_name_H-M_alt      'P 1'


loop_
_space_group_symop_operation_xyz
  'x, y, z' 

loop_
_atom_site_label
_atom_site_fract_x
_atom_site_fract_y
_atom_site_fract_z
_atom_site_type_symbol
N       0.0013   0.2909   0.7197     N
C       0.0083   0.1916    0.791     C
H       0.0113   0.1512    0.453     H
N       0.0312   0.5662   0.6662     N
C       0.0316    0.217   0.4031     C
C       0.0518    0.665   0.5977     C
C       0.0812   0.4131   0.2651     C
H       0.0987   0.1687    0.831     H
H       0.0993   0.4807   0.2163     H
H       0.1007   0.9496   0.1395     H
C       0.1119   0.8801   0.1908     C
H       0.1273   0.6536   0.5472     H
C       0.1279   0.6815   0.3372     C
H       0.1353   0.6128    0.389     H
C       0.1465   0.1955   0.3295     C
H       0.1499   0.0158   0.3475     H
O        0.153   0.3542   0.8846     O
S      0.16311  0.73591  0.86774     S
H       0.1656   0.6476   0.0622     H
C       0.1733   0.2984   0.2609     C
Zn     0.18459  0.39226  0.68199    Zn
H       0.2164   0.0944   0.1871     H
C       0.2335   0.0672   0.3259     C
S       0.2353  0.86698  0.75813     S
C       0.2478     0.85   0.2474     C
C       0.2519   0.7512   0.3222     C
H       0.2539   0.2905   0.2116     H
C       0.2767     0.66   0.0432     C
O       0.2827   0.4598   0.5201     O
H       0.2883    0.299   0.0365     H
C       0.3035   0.3584   0.8553     C
C       0.3072   0.0569   0.2313     C
C       0.3244   0.7006     0.95     C
H       0.3264   0.0349    0.369     H
O       0.3298    0.278   0.6065     O
H       0.3387   0.7291   0.3643     H
C        0.343   0.3528   0.5307     C
O       0.3547   0.3752   0.7698     O
C       0.3648   0.7876   0.6816     C
H       0.3676   0.6115   0.1705     H
C       0.3826   0.9262   0.2279     C
H       0.3851   0.6111   0.7563     H
H       0.3973   0.1031   0.2116     H
C       0.3973   0.6384   0.1071     C
C       0.4005   0.3077    0.016     C
N       0.4064   0.8663   0.6024     N
C       0.4143    0.663   0.6993     C
C       0.4376   0.3439   0.9213     C
H       0.4383   0.9275   0.1666     H
C       0.4455    0.306   0.4526     C
H       0.4575   0.4689   0.3611     H
H       0.4666   0.1275    0.517     H
H       0.4708   0.8874   0.2735     H
N       0.4843   0.7157   0.9194     N
C       0.4906   0.3842   0.3703     C
C       0.4991   0.1815   0.4619     C
C       0.5009   0.8185   0.5381     C
C       0.5094   0.6158   0.6297     C
N       0.5157   0.2843   0.0806     N
H       0.5292   0.1126   0.7265     H
H       0.5334   0.8725    0.483     H
H       0.5425   0.5311   0.6389     H
C       0.5545    0.694   0.5474     C
H       0.5617   0.0725   0.8334     H
C       0.5624   0.6561   0.0787     C
C       0.5857    0.337   0.3007     C
N       0.5936   0.1337   0.3976     N
C       0.5995   0.6923    0.984     C
C       0.6027   0.3616   0.8929     C
H       0.6027   0.8969   0.7884     H
H       0.6149   0.3889   0.2437     H
C       0.6174   0.0738   0.7721     C
H       0.6324   0.3885   0.8295     H
C       0.6352   0.2124   0.3184     C
O       0.6453   0.6248   0.2302     O
C        0.657   0.6472   0.4693     C
H       0.6613   0.2709   0.6357     H
O       0.6702    0.722   0.3935     O
H       0.6736   0.9651    0.631     H
C       0.6756   0.2994     0.05     C
C       0.6928   0.9431   0.7687     C
C       0.6965   0.6416   0.1447     C
H       0.7117    0.701   0.9635     H
O       0.7173   0.5402   0.4799     O
C       0.7233     0.34   0.9568     C
H       0.7461   0.7095   0.7884     H
C       0.7481   0.2488   0.6778     C
C       0.7522     0.15   0.7526     C
S       0.7647  0.13302  0.24187     S
C       0.7665   0.9328   0.6741     C
H       0.7836   0.9056   0.8129     H
Zn     0.81541  0.60774  0.31801    Zn
C       0.8267   0.7016   0.7391     C
H       0.8344   0.3524   0.9378     H
S      0.83689  0.26409  0.13226     S
O        0.847   0.6458   0.1154     O
H       0.8501   0.9842   0.6525     H
C       0.8535   0.8045   0.6705     C
H       0.8647   0.3872    0.611     H
C       0.8721   0.3185   0.6628     C
H       0.8727   0.3464   0.4528     H
C       0.8881   0.1199   0.8092     C
H       0.8993   0.0504   0.8605     H
H       0.9007   0.5193   0.7837     H
H       0.9013   0.8313    0.169     H
C       0.9188   0.5869   0.7349     C
C       0.9482    0.335   0.4023     C
C       0.9684    0.783   0.5969     C
N       0.9688   0.4338   0.3338     N
H       0.9887   0.8488    0.547     H
C       0.9917   0.8084    0.209     C
N       0.9987   0.7091   0.2803     N
