data_I
_chemical_name_common  '/home/zhangsd/repos/MofS-CGCNN/ML/data/WS24/clean_cifs/OVIDIH'
_cell_length_a 12.69998
_cell_length_b 12.69998
_cell_length_c 21.74250
_cell_angle_alpha 96.93139
_cell_angle_beta  102.93572
_cell_angle_gamma 114.21402
_space_group_name_H-M_alt      'P 1'


loop_
_space_group_symop_operation_xyz
  'x, y, z' 

loop_
_atom_site_label
_atom_site_fract_x
_atom_site_fract_y
_atom_site_fract_z
_atom_site_type_symbol
H       0.0025   0.2078   0.4047     H
C        0.006   0.1365   0.0405     C
C       0.0089      0.6   0.9289     C
C        0.012   0.1678   0.9772     C
N       0.0123   0.9174   0.8389     N
C       0.0194   0.5082   0.3716     C
H       0.0205   0.5103    0.153     H
H       0.0235   0.7101   0.0718     H
H       0.0242   0.2831   0.6793     H
C       0.0286   0.3388   0.6546     C
C       0.0315   0.7322   0.0313     C
C       0.0322   0.5969   0.3383     C
Cd     0.03385  0.94281   0.7355    Cd
H       0.0394   0.9024    0.058     H
C       0.0439   0.3794   0.0257     C
C       0.0441   0.8673   0.5902     C
H       0.0462   0.7128   0.7776     H
C       0.0521   0.5113   0.5892     C
C       0.0584   0.4946   0.1236     C
H       0.0598   0.4624    0.367     H
H       0.0646   0.8078   0.5084     H
H        0.066   0.5735   0.5685     H
O       0.0667   0.1439   0.7624     O
N       0.0706   0.9616   0.6344     N
C       0.0827    0.877   0.5377     C
C       0.0888   0.1355   0.1487     C
H       0.0896   0.6499   0.9337     H
H       0.0945   0.1965   0.9754     H
N       0.0966   0.3522   0.6128     N
C       0.1032   0.1638    0.092     C
H       0.1038   0.3449   0.8207     H
C        0.104   0.4364    0.581     C
C       0.1052   0.9234   0.9476     C
C       0.1079   0.9447   0.8896     C
C       0.1151   0.6208   0.2957     C
H       0.1162   0.7637   0.0335     H
O       0.1185   0.6957   0.2624     O
C       0.1196   0.7424   0.7684     C
O       0.1223   0.2711   0.3256     O
C        0.129   0.0652   0.6236     C
H       0.1383   0.9517   0.4282     H
H       0.1427   0.1325    0.653     H
C       0.1463   0.9818   0.5257     C
N       0.1537   0.8406   0.7467     N
H       0.1591   0.1564   0.1821     H
C       0.1607    0.455   0.0377     C
H       0.1638   0.6151   0.7945     H
C       0.1711     0.08   0.5711     C
N       0.1728   0.5638   0.1344     N
C       0.1749   0.1806   0.7957     C
O       0.1753   0.1258   0.3117     O
O       0.1763   0.5636   0.2951     O
H       0.1772   0.9483   0.9805     H
S      0.17756   0.4506  0.51736     S
H       0.1808   0.2022   0.0884     H
H       0.1839   0.9823   0.8838     H
C       0.1842    0.374   0.8454     C
C       0.1893   0.6824   0.7779     C
C     0.19953333   0.2322 0.33333333     C
H       0.2006   0.4438   0.0084     H
C       0.2009   0.0002   0.4687     C
H       0.2162   0.1559   0.5663     H
C       0.2229   0.5461   0.0902     C
H       0.2302   0.0827   0.4665     H
O       0.2315   0.1188   0.7951     O
N       0.2394   0.4838   0.8872     N
C       0.2414   0.3061   0.8383     C
C       0.2588    0.881   0.7342     C
H       0.2691   0.4343     0.22     H
H       0.2789   0.8809   0.4754     H
H       0.2857   0.9509     0.72     H
Cd     0.29269  0.70165   0.2355    Cd
C       0.2952   0.7222    0.763     C
S       0.2956   0.3873   0.5359     S
H        0.301   0.5424   0.6976     H
H       0.3012   0.4618   0.3734     H
H       0.3031   0.5978   0.0953     H
C       0.3094   0.9652   0.4772     C
O       0.3141   0.8636   0.1883     O
H       0.3206   0.3693   0.7055     H
H       0.3235   0.0159   0.1224     H
C       0.3278   0.3167   0.3705     C
C       0.3295    0.822   0.7417     C
H       0.3444   0.9814    0.442     H
H       0.3448   0.6034   0.8024     H
S       0.3514   0.7597   0.9641     S
C       0.3532   0.4754   0.2342     C
C       0.3554    0.523    0.919     C
C       0.3619   0.4383    0.385     C
C       0.3634   0.3522   0.8716     C
C       0.3755   0.6586   0.7761     C
H       0.3795   0.3295   0.2318     H
C       0.3825   0.5994   0.7239     C
H       0.3862   0.9076   0.5884     H
N       0.3892   0.9378   0.9146     N
H       0.3935   0.2011   0.3776     H
C       0.3944   0.0258    0.113     C
H       0.3953   0.6447   0.5644     H
C     0.39886667   0.8662 0.16666667     C
H       0.4015   0.6999   0.3838     H
H       0.4023   0.8523   0.7318     H
C        0.404   0.0345   0.5405     C
C       0.4045   0.4114   0.7221     C
H       0.4046   0.3072    0.867     H
N       0.4061    0.593   0.2467     N
H       0.4116   0.0722   0.8734     H
C       0.4128   0.2814    0.387     C
H       0.4159   0.6551   0.6984     H
H       0.4197   0.1691   0.0644     H
C       0.4197   0.4122   0.2417     C
N       0.4215   0.8266   0.3389     N
C       0.4221   0.4629   0.9108     C
C       0.4282   0.9888    0.592     C
S      0.43324   0.6602  0.98264     S
H       0.4352   0.2686   0.7224     H
C        0.444    0.874    0.929     C
C       0.4449   0.7817   0.3896     C
C        0.445    0.515    0.571     C
O       0.4455   0.7967   0.1744     O
C       0.4462   0.9573   0.1295     C
C       0.4467   0.0231    0.885     C
C       0.4528     0.12   0.0788     C
H       0.4567   0.7175   0.8016     H
C       0.4588    0.626   0.5788     C
C       0.4592   0.5322    0.737     C
H       0.4678   0.1967   0.5195     H
C        0.474   0.3512   0.7316     C
H       0.4743    0.977   0.3179     H
C       0.4758   0.1576   0.5524     C
N       0.4768   0.5254   0.4146     N
C       0.4868   0.9401   0.3513     C
H        0.495   0.5025   0.0685     H
H        0.505   0.4975   0.9315     H
C       0.5132   0.0599   0.6487     C
N       0.5232   0.4746   0.5854     N
C       0.5242   0.8424   0.4476     C
H       0.5257    0.023   0.6821     H
C        0.526   0.6488   0.2684     C
H       0.5322   0.8033   0.4805     H
C       0.5408   0.4678    0.263     C
C       0.5412    0.374   0.4212     C
H       0.5433   0.2825   0.1984     H
C       0.5472     0.88   0.9212     C
C       0.5533   0.9769    0.115     C
C       0.5538   0.0427   0.8705     C
O       0.5545   0.2033   0.8256     O
C        0.555    0.485    0.429     C
C       0.5551   0.2183   0.6104     C
C        0.556    0.126    0.071     C
H       0.5648   0.7314   0.2776     H
S      0.56676   0.3398  0.01736     S
C       0.5718   0.0112    0.408     C
C       0.5779   0.5371   0.0892     C
N       0.5785   0.1734   0.6611     N
C       0.5803   0.5878   0.7583     C
H       0.5803   0.8309   0.9356     H
H       0.5841   0.3449   0.3016     H
C       0.5872   0.7186    0.613     C
H       0.5884   0.9278   0.1266     H
N       0.5939    0.407   0.7533     N
H       0.5954   0.6928    0.133     H
C       0.5955   0.5886   0.2779     C
C        0.596   0.9655   0.4595     C
H       0.5977   0.1477   0.2682     H
H       0.5985   0.3001   0.6162     H
C     0.60113333   0.1338 0.83333333     C
H       0.6047   0.3553   0.4356     H
C       0.6056   0.9742    0.887     C
H       0.6065   0.7989   0.6224     H
N       0.6108   0.0622   0.0854     N
H       0.6138   0.0924   0.4116     H
C       0.6175   0.4006   0.2761     C
H       0.6205   0.6705   0.7682     H
C       0.6245   0.3414   0.2239     C
C       0.6366   0.6478   0.1284     C
C       0.6381   0.5617    0.615     C
C       0.6446    0.477    0.081     C
C       0.6468   0.5246   0.7658     C
S       0.6486   0.2403   0.0359     S
H       0.6552   0.3966   0.1976     H
H       0.6556   0.0186    0.558     H
C       0.6705    0.178   0.2583     C
C       0.6722   0.6833   0.6295     C
H       0.6765   0.9841   0.8776     H
H       0.6794   0.6307   0.2945     H
O       0.6859   0.1364   0.8117     O
C       0.6906   0.0348   0.5228     C
H       0.6969   0.4022   0.9047     H
H       0.6988   0.5382   0.6266     H
H        0.699   0.4576   0.3024     H
S       0.7044   0.6127   0.4641     S
C       0.7048   0.2778    0.237     C
Cd     0.70731  0.29835   0.7645    Cd
H       0.7143   0.0491     0.28     H
H       0.7211   0.1191   0.5246     H
H       0.7309   0.5657     0.78     H
C       0.7412    0.119   0.2658     C
C       0.7586   0.6939   0.1617     C
N       0.7606   0.5162   0.1128     N
O       0.7685   0.8812   0.2049     O
H       0.7698   0.9173   0.5335     H
C       0.7771   0.4539   0.9098     C
H       0.7838   0.8441   0.4337     H
C       0.7991   0.9998   0.5313     C
H       0.7994   0.5562   0.9916     H
C     0.80046667   0.7678 0.66666667     C
C       0.8107   0.3176   0.2221     C
C       0.8158    0.626   0.1546     C
H       0.8161   0.0177   0.1162     H
H       0.8192   0.7978   0.9116     H
S      0.82244   0.5494  0.48264     S
H       0.8228   0.0517   0.0195     H
O       0.8237   0.4364   0.7049     O
O       0.8247   0.8742   0.6883     O
C       0.8251   0.8194   0.2043     C
N       0.8272   0.4362   0.8656     N
C       0.8289     0.92   0.4289     C
H       0.8362   0.3849   0.2055     H
C       0.8393    0.545   0.9623     C
H       0.8409   0.8436   0.8179     H
N       0.8463   0.1594   0.2533     N
C       0.8537   0.0182   0.4743     C
H       0.8573   0.8675    0.347     H
H       0.8617   0.0483   0.5718     H
C        0.871   0.9348   0.3764     C
O       0.8777   0.7289   0.6744     O
C       0.8804   0.2576   0.2316     C
O       0.8815   0.3043   0.7376     O
H       0.8838   0.2363   0.9665     H
C       0.8849   0.3792   0.7043     C
C       0.8921   0.0553   0.1104     C
C       0.8948   0.0766   0.0524     C
C        0.896   0.5636    0.419     C
H       0.8962   0.6551   0.1793     H
C       0.8968   0.8362    0.908     C
N       0.9034   0.6478   0.3872     N
H       0.9055   0.8035   0.0246     H
H       0.9104   0.3501   0.0663     H
C       0.9112   0.8645   0.8513     C
C       0.9173    0.123   0.4623     C
N       0.9294   0.0384   0.3656     N
O       0.9333   0.8561   0.2376     O
H        0.934   0.4265   0.4315     H
H       0.9354   0.1922   0.4916     H
H       0.9402   0.5376    0.633     H
C       0.9416   0.5054   0.8764     C
C       0.9479   0.4887   0.4108     C
H       0.9538   0.2872   0.2224     H
C       0.9559   0.1327   0.4098     C
C       0.9561   0.6206   0.9743     C
H       0.9606   0.0976    0.942     H
Cd     0.96615  0.05719   0.2645    Cd
C       0.9678   0.4031   0.6617     C
C       0.9685   0.2678   0.9687     C
C       0.9714   0.6612   0.3454     C
H       0.9758   0.7169   0.3207     H
H       0.9765   0.2899   0.9282     H
H       0.9795   0.4897    0.847     H
C       0.9806   0.4918   0.6284     C
N       0.9877   0.0826   0.1611     N
C        0.988   0.8322   0.0228     C
C       0.9911      0.4   0.0711     C
C        0.994   0.8635   0.9595     C
H       0.9975   0.7922   0.5953     H
