data_I
_chemical_name_common  '/home/zhangsd/repos/MofS-CGCNN/ML/data/WS24/clean_cifs/OVIDAZ'
_cell_length_a  8.33000
_cell_length_b 10.65200
_cell_length_c 12.04500
_cell_angle_alpha 69.42400
_cell_angle_beta  76.87000
_cell_angle_gamma 79.89700
_space_group_name_H-M_alt      'P 1'


loop_
_space_group_symop_operation_xyz
  'x, y, z' 

loop_
_atom_site_label
_atom_site_fract_x
_atom_site_fract_y
_atom_site_fract_z
_atom_site_type_symbol
N       0.0129   0.9046   0.7216     N
C       0.0245   0.2039   0.4479     C
H       0.0287    0.636   0.9643     H
H        0.037   0.2416   0.5039     H
C        0.049     0.55   0.1965     C
H       0.0563   0.4037   0.8066     H
C        0.068    0.541   0.9892     C
H       0.0731   0.5707   0.3528     H
C       0.1228   0.7643   0.5973     C
C       0.1266    0.066   0.3254     C
C       0.1281   0.5326    0.294     C
C        0.129    0.499   0.1071     C
C       0.1353   0.8201   0.6806     C
C       0.1503   0.1187   0.4113     C
H       0.1564   0.5237   0.9266     H
H       0.1608   0.9195   0.9385     H
H       0.2085   0.0766    0.751     H
S       0.2105   0.8905   0.1669     S
C        0.211   0.9959   0.9266     C
O       0.2304    0.597    0.503     O
H       0.2331   0.7992   0.7113     H
C       0.2408    0.088   0.8156     C
H       0.2481   0.0963   0.4422     H
C       0.2548   0.0163    0.023     C
C        0.261   0.6676   0.5595     C
N       0.2768   0.4645   0.3063     N
C        0.278    0.416   0.1278     C
S       0.2952   0.9556   0.2803     S
O        0.299   0.3057   0.5908     O
C       0.3213   0.2013   0.7978     C
N       0.3237   0.1234   0.0124     N
H       0.3337   0.3724   0.0733     H
C        0.341      0.4   0.2276     C
C        0.361    0.211   0.8975     C
C       0.3651   0.3052   0.6754     C
Zn     0.38947  0.45796  0.44132    Zn
O       0.4014   0.6649   0.5878     O
H       0.4174   0.2833    0.887     H
H       0.4356   0.3402   0.2413     H
O       0.4637   0.3823   0.6691     O
O       0.5363   0.6177   0.3309     O
H       0.5644   0.6598   0.7587     H
H       0.5826   0.7167    0.113     H
O       0.5986   0.3351   0.4122     O
Zn     0.61053  0.54204  0.55868    Zn
C       0.6349   0.6948   0.3246     C
C        0.639    0.789   0.1025     C
C        0.659      0.6   0.7724     C
H       0.6663   0.6276   0.9267     H
N       0.6763   0.8766   0.9876     N
C       0.6787   0.7987   0.2022     C
O        0.701   0.6943   0.4092     O
S       0.7048   0.0444   0.7197     S
C        0.722    0.584   0.8722     C
N       0.7232   0.5355   0.6937     N
C        0.739   0.3324   0.4405     C
C       0.7452   0.9837    0.977     C
H       0.7519   0.9037   0.5578     H
C       0.7592    0.912   0.1844     C
H       0.7669   0.2008   0.2887     H
O       0.7696    0.403    0.497     O
C        0.789   0.0041   0.0734     C
S       0.7895   0.1095   0.8331     S
H       0.7915   0.9234    0.249     H
H       0.8392   0.0805   0.0615     H
H       0.8436   0.4763   0.0734     H
C       0.8497   0.8813   0.5887     C
C       0.8647   0.1799   0.3194     C
C        0.871    0.501   0.8929     C
C       0.8719   0.4674    0.706     C
C       0.8734    0.934   0.6746     C
C       0.8772   0.2357   0.4027     C
H       0.9269   0.4293   0.6472     H
C        0.932    0.459   0.0108     C
H       0.9437   0.5963   0.1934     H
C        0.951     0.45   0.8035     C
H        0.963   0.7584   0.4961     H
H       0.9713    0.364   0.0357     H
C       0.9755   0.7961   0.5521     C
N       0.9871   0.0954   0.2784     N
