data_I
_chemical_name_common  '/home/zhangsd/repos/MofS-CGCNN/ML/data/WS24/clean_cifs/OWUHIZ'
_cell_length_a 12.68550
_cell_length_b 13.43340
_cell_length_c 15.26370
_cell_angle_alpha 77.18000
_cell_angle_beta  89.96400
_cell_angle_gamma 65.37000
_space_group_name_H-M_alt      'P 1'


loop_
_space_group_symop_operation_xyz
  'x, y, z' 

loop_
_atom_site_label
_atom_site_fract_x
_atom_site_fract_y
_atom_site_fract_z
_atom_site_type_symbol
H       0.0064   0.4091   0.0638     H
C       0.0142   0.6311   0.9698     C
C       0.0394   0.2434   0.9306     C
C        0.067   0.3048   0.9802     C
C       0.0703   0.7526   0.0684     C
H       0.0864    0.159   0.8304     H
H       0.0905   0.7932   0.1019     H
H        0.095    0.944   0.4532     H
H       0.1045   0.1398   0.5694     H
H       0.1114   0.0085   0.0015     H
H       0.1249   0.7708   0.5393     H
C       0.1251   0.6265   0.9697     C
C       0.1275   0.1741   0.8756     C
H       0.1292   0.2425   0.6636     H
H       0.1409   0.3033   0.9803     H
H       0.1476   0.0961    0.408     H
C        0.151     0.69    0.019     C
C       0.1644   0.9003   0.4904     C
C       0.1659   0.1608   0.5638     C
H       0.1663   0.2183   0.8442     H
O        0.179   0.5151    0.863     O
C       0.1808   0.2221   0.6205     C
C       0.1824   0.7962   0.5421     C
C       0.1893   0.9892   0.9927     C
C       0.2148   0.5564   0.9175     C
O       0.2153   0.3533  0.72904     O
C        0.218   0.0639   0.9311     C
O       0.2211   0.5873   0.6563     O
H       0.2242   0.6902   0.0186     H
C       0.2261   0.0585   0.4387     C
C       0.2411     0.13   0.4989     C
C       0.2473    0.942   0.4923     C
H       0.2508   0.8383   0.0823     H
C       0.2719   0.2531   0.6134     C
C       0.2733   0.8867   0.0416     C
H       0.2802   0.0521    0.393     H
C       0.2845    0.728   0.5985     C
C       0.2921   0.3153   0.6783     C
C       0.2988   0.6195   0.6595     C
O       0.3174   0.5412   0.9301     O
C       0.3293   0.1646   0.4907     C
C       0.3346   0.0314   0.9206     C
Cd     0.33748  0.42469  0.79425    Cd
C       0.3457    0.225   0.5473     C
C       0.3502   0.8733   0.5464     C
H       0.3569   0.0794   0.8793     H
C        0.368   0.7689   0.5982     C
H        0.379   0.1469    0.446     H
O       0.3866   0.3233   0.6805     O
O       0.3876   0.5664   0.7163     O
C       0.3893   0.8553   0.0308     C
H       0.4064   0.2468   0.5411     H
H       0.4086   0.8979   0.5478     H
O       0.4153   0.2625   0.9091     O
C       0.4194   0.9295   0.9697     C
H       0.4383   0.7244   0.6342     H
O       0.4533   0.6734   0.1303     O
C       0.4822   0.7471   0.0877     C
H       0.4974   0.9107   0.9615     H
H       0.5026   0.0893   0.0385     H
C       0.5178   0.2529   0.9123     C
O       0.5467   0.3266   0.8697     O
H       0.5617   0.2756   0.3658     H
C       0.5806   0.0705   0.0303     C
O       0.5847   0.7375   0.0909     O
H       0.5914   0.1021   0.4522     H
H       0.5936   0.7532   0.4589     H
C       0.6107   0.1447   0.9692     C
O       0.6124   0.4336   0.2837     O
O       0.6134   0.6767   0.3195     O
H        0.621   0.8531    0.554     H
C        0.632   0.2311   0.4018     C
H       0.6431   0.9206   0.1207     H
C       0.6498   0.1267   0.4536     C
C       0.6543    0.775   0.4527     C
Cd     0.66252  0.57531  0.20575    Cd
C       0.6654   0.9686   0.0794     C
C       0.6707   0.8354   0.5093     C
O       0.6826   0.4588   0.0699     O
C       0.7012   0.3805   0.3405     C
C       0.7079   0.6847   0.3217     C
C       0.7155    0.272   0.4015     C
H       0.7198   0.9479    0.607     H
C       0.7267   0.1133   0.9584     C
C       0.7281   0.7469   0.3866     C
H       0.7492   0.1617   0.9177     H
C       0.7527    0.058   0.5077     C
C       0.7589     0.87   0.5011     C
C       0.7739   0.9415   0.5613     C
H       0.7758   0.3098   0.9814     H
O       0.7789   0.4127   0.3437     O
C        0.782   0.9361   0.0689     C
O       0.7847   0.6467  0.27096     O
C       0.7852   0.4436   0.0825     C
C       0.8107   0.0108   0.0073     C
C       0.8176   0.2038   0.4579     C
C       0.8192   0.7779   0.3795     C
O        0.821   0.4849    0.137     O
H       0.8337   0.7817   0.1558     H
C       0.8341   0.8392   0.4362     C
C       0.8356   0.0997   0.5096     C
C        0.849     0.31    0.981     C
H       0.8524   0.9039    0.592     H
H       0.8591   0.6967   0.0197     H
H       0.8708   0.7575   0.3364     H
C       0.8725   0.8259   0.1244     C
C       0.8749   0.3735   0.0303     C
H       0.8751   0.2292   0.4607     H
H       0.8886   0.9915   0.9985     H
H       0.8955   0.8602   0.4306     H
H        0.905    0.056   0.5468     H
H       0.9095   0.2068   0.8981     H
H       0.9136    0.841   0.1696     H
C       0.9297   0.2474   0.9316     C
C        0.933   0.6952   0.0198     C
C       0.9606   0.7566   0.0694     C
C       0.9858   0.3689   0.0302     C
H       0.9936   0.5909   0.9362     H
