data_I
_chemical_name_common  '/home/zhangsd/repos/MofS-CGCNN/ML/data/WS24/clean_cifs/OYIXIE'
_cell_length_a 18.07294
_cell_length_b 18.07294
_cell_length_c 18.07294
_cell_angle_alpha 60.00000
_cell_angle_beta  60.00000
_cell_angle_gamma 60.00000
_space_group_name_H-M_alt      'P 1'


loop_
_space_group_symop_operation_xyz
  'x, y, z' 

loop_
_atom_site_label
_atom_site_fract_x
_atom_site_fract_y
_atom_site_fract_z
_atom_site_type_symbol
C       0.0391   0.4873   0.5533     C
C       0.0391   0.4873   0.9203     C
C       0.0391   0.5533   0.4873     C
C       0.0391   0.5533   0.9203     C
C       0.0391   0.9203   0.4873     C
C       0.0391   0.9203   0.5533     C
C       0.0524   0.0524   0.4476     C
C       0.0524   0.4476   0.0524     C
C       0.0524   0.4476   0.4476     C
H       0.0688   0.4632   0.5944     H
H       0.0688   0.4632   0.8736     H
H       0.0688   0.5944   0.4632     H
H       0.0688   0.5944   0.8736     H
H       0.0688   0.8736   0.4632     H
H       0.0688   0.8736   0.5944     H
S        0.069    0.464   0.6426     S
S        0.069    0.464   0.8244     S
S        0.069   0.6426    0.464     S
S        0.069   0.6426   0.8244     S
S        0.069   0.8244    0.464     S
S        0.069   0.8244   0.6426     S
O       0.0742    0.197   0.3644     O
O       0.0742   0.3644    0.197     O
O       0.0742   0.3644   0.3644     O
C       0.0797   0.4467   0.5127     C
C       0.0797   0.4467   0.9609     C
C       0.0797   0.5127   0.4467     C
C       0.0797   0.5127   0.9609     C
C       0.0797   0.9609   0.4467     C
C       0.0797   0.9609   0.5127     C
H       0.0896   0.5126   0.5546     H
H       0.0896   0.5126   0.8432     H
H       0.0896   0.5546   0.5126     H
H       0.0896   0.5546   0.8432     H
H       0.0896   0.8432   0.5126     H
H       0.0896   0.8432   0.5546     H
S       0.1045   0.5319   0.5797     S
S       0.1045   0.5319   0.7839     S
S       0.1045   0.7839   0.5319     S
C       0.1137   0.1137   0.3863     C
C       0.1137   0.3863   0.1137     C
C       0.1137   0.3863   0.3863     C
Zn      0.1192   0.2936   0.2936    Zn
H       0.1264   0.4056   0.5368     H
H       0.1264   0.4056   0.9312     H
H       0.1264   0.5368   0.4056     H
H       0.1264   0.5368   0.9312     H
H       0.1264   0.9312   0.4056     H
H       0.1264   0.9312   0.5368     H
H       0.1568   0.4454   0.4874     H
H       0.1568   0.4454   0.9104     H
H       0.1568   0.4874   0.4454     H
H       0.1568   0.4874   0.9104     H
H       0.1568   0.9104   0.4454     H
H       0.1568   0.9104   0.4874     H
S       0.1756   0.3574    0.536     S
S       0.1756   0.3574    0.931     S
S       0.1756    0.536   0.3574     S
S       0.1756    0.536    0.931     S
S       0.1756    0.931   0.3574     S
S       0.1756    0.931    0.536     S
O        0.197   0.0742   0.3644     O
O        0.197   0.3644   0.0742     O
O        0.197   0.3644   0.3644     O
S       0.2161   0.4203   0.4681     S
S       0.2161   0.4203   0.8955     S
S       0.2161   0.8955   0.4203     S
O         0.25     0.25     0.25     O
Zn      0.2936   0.1192   0.2936    Zn
Zn      0.2936   0.2936   0.1192    Zn
Zn      0.2936   0.2936   0.2936    Zn
S       0.3574   0.1756    0.536     S
S       0.3574   0.1756    0.931     S
S       0.3574    0.536   0.1756     S
S       0.3574    0.536    0.931     S
S       0.3574    0.931   0.1756     S
S       0.3574    0.931    0.536     S
O       0.3644   0.0742    0.197     O
O       0.3644   0.0742   0.3644     O
O       0.3644    0.197   0.0742     O
O       0.3644    0.197   0.3644     O
O       0.3644   0.3644   0.0742     O
O       0.3644   0.3644    0.197     O
C       0.3863   0.1137   0.1137     C
C       0.3863   0.1137   0.3863     C
C       0.3863   0.3863   0.1137     C
H       0.4056   0.1264   0.5368     H
H       0.4056   0.1264   0.9312     H
H       0.4056   0.5368   0.1264     H
H       0.4056   0.5368   0.9312     H
H       0.4056   0.9312   0.1264     H
H       0.4056   0.9312   0.5368     H
S       0.4203   0.2161   0.4681     S
S       0.4203   0.2161   0.8955     S
S       0.4203   0.4681   0.2161     S
S       0.4203   0.4681   0.8955     S
S       0.4203   0.8955   0.2161     S
S       0.4203   0.8955   0.4681     S
H       0.4454   0.1568   0.4874     H
H       0.4454   0.1568   0.9104     H
H       0.4454   0.4874   0.1568     H
H       0.4454   0.4874   0.9104     H
H       0.4454   0.9104   0.1568     H
H       0.4454   0.9104   0.4874     H
C       0.4467   0.0797   0.5127     C
C       0.4467   0.0797   0.9609     C
C       0.4467   0.5127   0.0797     C
C       0.4467   0.5127   0.9609     C
C       0.4467   0.9609   0.0797     C
C       0.4467   0.9609   0.5127     C
C       0.4476   0.0524   0.0524     C
C       0.4476   0.0524   0.4476     C
C       0.4476   0.4476   0.0524     C
H       0.4632   0.0688   0.5944     H
H       0.4632   0.0688   0.8736     H
H       0.4632   0.5944   0.0688     H
H       0.4632   0.5944   0.8736     H
H       0.4632   0.8736   0.0688     H
H       0.4632   0.8736   0.5944     H
S        0.464    0.069   0.6426     S
S        0.464    0.069   0.8244     S
S        0.464   0.6426    0.069     S
S        0.464   0.6426   0.8244     S
S        0.464   0.8244    0.069     S
S        0.464   0.8244   0.6426     S
C       0.4873   0.0391   0.5533     C
C       0.4873   0.0391   0.9203     C
C       0.4873   0.5533   0.0391     C
C       0.4873   0.5533   0.9203     C
C       0.4873   0.9203   0.0391     C
C       0.4873   0.9203   0.5533     C
H       0.4874   0.1568   0.4454     H
H       0.4874   0.1568   0.9104     H
H       0.4874   0.4454   0.1568     H
H       0.4874   0.4454   0.9104     H
H       0.4874   0.9104   0.1568     H
H       0.4874   0.9104   0.4454     H
H       0.5126   0.0896   0.5546     H
H       0.5126   0.0896   0.8432     H
H       0.5126   0.5546   0.0896     H
H       0.5126   0.5546   0.8432     H
H       0.5126   0.8432   0.0896     H
H       0.5126   0.8432   0.5546     H
S       0.5319   0.1045   0.5797     S
S       0.5319   0.1045   0.7839     S
S       0.5319   0.5797   0.1045     S
S       0.5319   0.5797   0.7839     S
S       0.5319   0.7839   0.1045     S
S       0.5319   0.7839   0.5797     S
S        0.536   0.1756   0.3574     S
S        0.536   0.1756    0.931     S
S        0.536   0.3574   0.1756     S
S        0.536   0.3574    0.931     S
S        0.536    0.931   0.1756     S
S        0.536    0.931   0.3574     S
H       0.5368   0.1264   0.4056     H
H       0.5368   0.1264   0.9312     H
H       0.5368   0.4056   0.1264     H
H       0.5368   0.4056   0.9312     H
H       0.5368   0.9312   0.1264     H
H       0.5368   0.9312   0.4056     H
C       0.5524   0.5524   0.9476     C
C       0.5524   0.9476   0.5524     C
C       0.5524   0.9476   0.9476     C
H       0.5546   0.0896   0.5126     H
H       0.5546   0.0896   0.8432     H
H       0.5546   0.5126   0.0896     H
H       0.5546   0.5126   0.8432     H
H       0.5546   0.8432   0.0896     H
H       0.5546   0.8432   0.5126     H
H       0.5944   0.0688   0.4632     H
H       0.5944   0.0688   0.8736     H
H       0.5944   0.4632   0.0688     H
H       0.5944   0.4632   0.8736     H
H       0.5944   0.8736   0.0688     H
H       0.5944   0.8736   0.4632     H
C       0.6137   0.6137   0.8863     C
C       0.6137   0.8863   0.6137     C
C       0.6137   0.8863   0.8863     C
O       0.6356   0.6356    0.803     O
O       0.6356   0.6356   0.9258     O
O       0.6356    0.803   0.6356     O
O       0.6356    0.803   0.9258     O
O       0.6356   0.9258   0.6356     O
O       0.6356   0.9258    0.803     O
S       0.6426    0.069    0.464     S
S       0.6426    0.069   0.8244     S
S       0.6426    0.464    0.069     S
S       0.6426    0.464   0.8244     S
S       0.6426   0.8244    0.069     S
S       0.6426   0.8244    0.464     S
Zn      0.7064   0.7064   0.7064    Zn
Zn      0.7064   0.7064   0.8808    Zn
Zn      0.7064   0.8808   0.7064    Zn
O         0.75     0.75     0.75     O
S       0.7839   0.1045   0.5319     S
S       0.7839   0.5319   0.1045     S
S       0.7839   0.5319   0.5797     S
O        0.803   0.6356   0.6356     O
O        0.803   0.6356   0.9258     O
O        0.803   0.9258   0.6356     O
S       0.8244    0.069    0.464     S
S       0.8244    0.069   0.6426     S
S       0.8244    0.464    0.069     S
S       0.8244    0.464   0.6426     S
S       0.8244   0.6426    0.069     S
S       0.8244   0.6426    0.464     S
H       0.8432   0.0896   0.5126     H
H       0.8432   0.0896   0.5546     H
H       0.8432   0.5126   0.0896     H
H       0.8432   0.5126   0.5546     H
H       0.8432   0.5546   0.0896     H
H       0.8432   0.5546   0.5126     H
H       0.8736   0.0688   0.4632     H
H       0.8736   0.0688   0.5944     H
H       0.8736   0.4632   0.0688     H
H       0.8736   0.4632   0.5944     H
H       0.8736   0.5944   0.0688     H
H       0.8736   0.5944   0.4632     H
Zn      0.8808   0.7064   0.7064    Zn
C       0.8863   0.6137   0.6137     C
C       0.8863   0.6137   0.8863     C
C       0.8863   0.8863   0.6137     C
S       0.8955   0.2161   0.4203     S
S       0.8955   0.4203   0.2161     S
S       0.8955   0.4203   0.4681     S
C       0.8993   0.0449   0.5133     C
C       0.8993   0.5133   0.0449     C
C       0.8993   0.5133   0.5425     C
H       0.9104   0.1568   0.4454     H
H       0.9104   0.1568   0.4874     H
H       0.9104   0.4454   0.1568     H
H       0.9104   0.4454   0.4874     H
H       0.9104   0.4874   0.1568     H
H       0.9104   0.4874   0.4454     H
O       0.9258   0.6356   0.6356     O
O       0.9258   0.6356    0.803     O
O       0.9258    0.803   0.6356     O
S        0.931   0.1756   0.3574     S
S        0.931   0.1756    0.536     S
S        0.931   0.3574   0.1756     S
S        0.931   0.3574    0.536     S
S        0.931    0.536   0.1756     S
S        0.931    0.536   0.3574     S
H       0.9312   0.1264   0.4056     H
H       0.9312   0.1264   0.5368     H
H       0.9312   0.4056   0.1264     H
H       0.9312   0.4056   0.5368     H
H       0.9312   0.5368   0.1264     H
H       0.9312   0.5368   0.4056     H
C       0.9476   0.5524   0.5524     C
C       0.9476   0.5524   0.9476     C
C       0.9476   0.9476   0.5524     C
C       0.9551   0.1007   0.4575     C
C       0.9551   0.4575   0.1007     C
C       0.9551   0.4575   0.4867     C
