data_I
_chemical_name_common  '/home/zhangsd/repos/MofS-CGCNN/ML/data/WS24/clean_cifs/Pb2_PTPTP_2_H2O_2'
_cell_length_a  7.67751
_cell_length_b 20.70940
_cell_length_c 12.06740
_cell_angle_alpha 90.00000
_cell_angle_beta  114.98200
_cell_angle_gamma 90.00000
_space_group_name_H-M_alt      'P 1'


loop_
_space_group_symop_operation_xyz
  'x, y, z' 

loop_
_atom_site_label
_atom_site_fract_x
_atom_site_fract_y
_atom_site_fract_z
_atom_site_type_symbol
H       0.0029   0.1522   0.9292     H
H       0.0029   0.3478   0.4292     H
C     0.003313  0.73534  0.65827     C
C     0.003313  0.76474  0.15827     C
N      0.00709  0.12604  0.47757     N
N      0.00709  0.37404  0.97757     N
C     0.008011  0.66894  0.64497     C
C     0.008011  0.83114  0.14497     C
H       0.0091   0.2382    0.407     H
H       0.0091   0.2618    0.907     H
N      0.01621  0.73784  0.26187     N
N      0.01621  0.76224  0.76187     N
N      0.02798  0.62774  0.73665     N
N      0.02798  0.87234  0.23665     N
C     0.033213  0.72214  0.85108     C
C     0.033213  0.77794  0.35108     C
Pb    0.034804 0.02006212 0.224572    Pb
Pb    0.034804 0.47993812 0.724572    Pb
C      0.03781  0.65514  0.83937     C
C      0.03781  0.84494  0.33937     C
H       0.0425   0.7392   0.9245     H
H       0.0425   0.7608   0.4245     H
N      0.06519  0.58064  0.11105     N
N      0.06519  0.91944  0.61105     N
C      0.07021  0.61374  0.94417     C
C      0.07021  0.88634  0.44417     C
O      0.13867  0.61692  0.38155     O
O      0.13867  0.88312  0.88155     O
C      0.18271  0.54404  0.08097     C
C      0.18271  0.95604  0.58097     C
N      0.18998  0.56174  0.97595     N
N      0.18998  0.93834  0.47595     N
N      0.22259  0.03254  0.97385     N
N      0.22259  0.46754  0.47385     N
N      0.22658  0.05344  0.08225     N
N      0.22658  0.44664  0.58225     N
N      0.28159  0.01584  0.76535     N
N      0.28159  0.48424  0.26535     N
H       0.2967   0.1501   0.4528     H
H       0.2967   0.3499   0.9528     H
C      0.30011  0.00714  0.66057     C
C      0.30011  0.49294  0.16057     C
N      0.31778  0.12104  0.30385     N
N      0.31778  0.37904  0.80385     N
C     0.358611  0.15844  0.40277     C
C     0.358611  0.34164  0.90277     C
C      0.35871  0.06694  0.95687     C
C      0.35871  0.43314  0.45687     C
C      0.36651  0.09804  0.12337     C
C      0.36651  0.40204  0.62337     C
H       0.3821   0.6912   0.2763     H
H       0.3821   0.8088   0.7763     H
C      0.38781  0.06114  0.84477     C
C      0.38781  0.43894  0.34477     C
H       0.3907   0.6189   0.8092     H
H       0.3907   0.8811   0.3092     H
C      0.41341  0.13524  0.23587     C
C      0.41341  0.36484  0.73587     C
H       0.4145   0.6329   0.6247     H
H       0.4145   0.8671   0.1247     H
N      0.41511  0.72254  0.13417     N
N      0.41511  0.77754  0.63417     N
C     0.424511  0.04434  0.63087     C
C     0.424511  0.45574  0.13087     C
H       0.4375    0.037   0.5586     H
H       0.4375    0.463   0.0586     H
C     0.451013  0.68454  0.22998     C
C     0.451013  0.81554  0.72998     C
N      0.45448  0.10824  0.04905     N
N      0.45448  0.39184  0.54905     N
C     0.471111  0.59245  0.78947     C
C     0.471111  0.90765  0.28947     C
C     0.486013  0.60134  0.68007     C
C     0.486013  0.89874  0.18007     C
C     0.487711  0.20834  0.43277     C
C     0.487711  0.29174  0.93277     C
H       0.4914    0.733   0.9985     H
H       0.4914    0.767   0.4985     H
H       0.5086    0.233   0.5015     H
H       0.5086    0.267   0.0015     H
C     0.512311  0.70834  0.06737     C
C     0.512311  0.79174  0.56737     C
C     0.514013  0.10134  0.82007     C
C     0.514013  0.39874  0.32007     C
C     0.528911  0.09245  0.71067     C
C     0.528911  0.40765  0.21067     C
N      0.54568  0.60824  0.45105     N
N      0.54568  0.89184  0.95105     N
C     0.549013  0.18454  0.27018     C
C     0.549013  0.31554  0.77018     C
H       0.5625    0.537   0.9414     H
H       0.5625    0.963   0.4414     H
C     0.575511  0.54434  0.86927     C
C     0.575511  0.95574  0.36927     C
N      0.58491  0.22254  0.36597     N
N      0.58491  0.27754  0.86597     N
H       0.5855   0.1329   0.8753     H
H       0.5855   0.3671   0.3753     H
C      0.58661  0.63524  0.26427     C
C      0.58661  0.86484  0.76427     C
H       0.6093   0.1189   0.6908     H
H       0.6093   0.3811   0.1908     H
C      0.61221  0.56114  0.65537     C
C      0.61221  0.93894  0.15537     C
H       0.6179   0.1912   0.2237     H
H       0.6179   0.3088   0.7237     H
C      0.63351  0.59804  0.37677     C
C      0.63351  0.90204  0.87677     C
C      0.64131  0.56694  0.54327     C
C      0.64131  0.93314  0.04327     C
C     0.641411  0.65844  0.09737     C
C     0.641411  0.84164  0.59737     C
N      0.68238  0.62104  0.19625     N
N      0.68238  0.87904  0.69625     N
C      0.69991  0.50714  0.83957     C
C      0.69991  0.99294  0.33957     C
H       0.7033   0.6501   0.0472     H
H       0.7033   0.8499   0.5472     H
N      0.71859  0.51584  0.73475     N
N      0.71859  0.98424  0.23475     N
N      0.77358  0.55344  0.41785     N
N      0.77358  0.94664  0.91785     N
N      0.77759  0.53254  0.52625     N
N      0.77759  0.96754  0.02625     N
N      0.81018  0.06174  0.52415     N
N      0.81018  0.43834  0.02415     N
C      0.81731  0.04404  0.41917     C
C      0.81731  0.45604  0.91917     C
O      0.86147  0.11692  0.11855     O
O      0.86147  0.38312  0.61855     O
C      0.92981  0.11374  0.55597     C
C      0.92981  0.38634  0.05597     C
N      0.93499  0.08064  0.38905     N
N      0.93499  0.41944  0.88905     N
H       0.9575   0.2392   0.5755     H
H       0.9575   0.2608   0.0755     H
C      0.96221  0.15514  0.66077     C
C      0.96221  0.34494  0.16077     C
Pb    0.965204 0.52006212 0.275432    Pb
Pb    0.965204 0.97993812 0.775432    Pb
C     0.966813  0.22214  0.64908     C
C     0.966813  0.27794  0.14908     C
N      0.97218  0.12774  0.76345     N
N      0.97218  0.37234  0.26345     N
N      0.98381  0.23784  0.23827     N
N      0.98381  0.26224  0.73827     N
H       0.9909   0.7382    0.093     H
H       0.9909   0.7618    0.593     H
C     0.992011  0.16894  0.85517     C
C     0.992011  0.33114  0.35517     C
N      0.99309  0.62604  0.02257     N
N      0.99309  0.87404  0.52257     N
C     0.996713  0.23534  0.84187     C
C     0.996713  0.26474  0.34187     C
H       0.9971   0.6522   0.5708     H
H       0.9971   0.8478   0.0708     H
