data_I
_chemical_name_common  '/home/zhangsd/repos/MofS-CGCNN/ML/data/WS24/clean_cifs/PCMOF-5'
_cell_length_a  6.03014
_cell_length_b 18.34701
_cell_length_c 19.04011
_cell_angle_alpha 90.00000
_cell_angle_beta  95.54140
_cell_angle_gamma 90.00000
_space_group_name_H-M_alt      'P 1'


loop_
_space_group_symop_operation_xyz
  'x, y, z' 

loop_
_atom_site_label
_atom_site_fract_x
_atom_site_fract_y
_atom_site_fract_z
_atom_site_type_symbol
O      0.00028  0.71372  0.89422     O
O      0.00028  0.78632  0.39422     O
H       0.0232   0.6673   0.1603     H
H       0.0232   0.8327   0.6603     H
P      0.03794 0.027388 0.896418     P
P      0.03794 0.472628 0.396418     P
C     0.058711  0.69424  0.68624     C
C     0.058711  0.80584  0.18624     C
O      0.06008  0.02834  0.64552     O
O      0.06008  0.47174  0.14552     O
H        0.071   0.2063   0.8439     H
H        0.071   0.2937   0.3439     H
O      0.07487  0.08362  0.95402     O
O      0.07487  0.41642  0.45402     O
C     0.080311  0.62334  0.71214     C
C     0.080311  0.87674  0.21214     C
La    0.088116 0.66659218 0.46494317    La
La    0.088116 0.83340818 0.96494317    La
C     0.097211  0.06754  0.81374     C
C     0.097211  0.43254  0.31374     C
H       0.1032   0.0286   0.7779     H
H       0.1032   0.4714   0.2779     H
O      0.17058  0.54272  0.40732     O
O      0.17058  0.95732  0.90732     O
C     0.184613  0.67804  0.16804     C
C     0.184613  0.82204  0.66804     C
P      0.19844 0.520729 0.873638     P
P      0.19844 0.979289 0.373638     P
C     0.217811  0.74814  0.70214     C
C     0.217811  0.75194  0.20214     C
O      0.21887  0.50662  0.61202     O
O      0.21887  0.99342  0.11202     O
O      0.22019  0.60124  0.05052     O
O      0.22019  0.89884  0.55052     O
H       0.2347   0.0066   0.2562     H
H       0.2347   0.4934   0.7562     H
O      0.23637  0.13372  0.12072     O
O      0.23637  0.36632  0.62072     O
O      0.24139  0.73954  0.04142     O
O      0.24139  0.76054  0.54142     O
H       0.2447   0.0916   0.8198     H
H       0.2447   0.4084   0.3198     H
O      0.25279  0.05324  0.40404     O
O      0.25279  0.44684  0.90404     O
H       0.2549   0.6404   0.2001     H
H       0.2549   0.8596   0.7001     H
O      0.25988  0.23124  0.99624     O
O      0.25988  0.26884  0.49624     O
C     0.267811  0.60564  0.75714     C
C     0.267811  0.89444  0.25714     C
H       0.2697   0.2443    0.216     H
H       0.2697   0.2557    0.716     H
O      0.28148  0.58274  0.92092     O
O      0.28148  0.91734  0.42092     O
P      0.30324 0.673958 0.085039     P
P      0.30324 0.826058 0.585039     P
C     0.306513  0.53024  0.78914     C
C     0.306513  0.96984  0.28914     C
H       0.3819   0.1842   0.2688     H
H       0.3819   0.3158   0.7688     H
O      0.40247  0.69822  0.39602     O
O      0.40247  0.80182  0.89602     O
C     0.404511  0.73014  0.74744     C
C     0.404511  0.76994  0.24744     C
O      0.40528  0.59332  0.31152     O
O      0.40528  0.90672  0.81152     O
C      0.40811  0.21634  0.22864     C
C      0.40811  0.28374  0.72864     C
C     0.424113  0.65944  0.77374     C
C     0.424113  0.84064  0.27374     C
O      0.42998  0.60844  0.53564     O
O      0.42998  0.89164  0.03564     O
O      0.43908  0.17042  0.39954     O
O      0.43908  0.32962  0.89954     O
H       0.4481   0.1475   0.6953     H
H       0.4481   0.3525   0.1953     H
P      0.46064 0.160538 0.155298     P
P      0.46064 0.339478 0.655298     P
H       0.4685     0.52   0.7946     H
H       0.4685     0.98   0.2946     H
H       0.5315     0.02   0.7054     H
H       0.5315     0.48   0.2054     H
P      0.53944 0.660538 0.344718     P
P      0.53944 0.839478 0.844718     P
H       0.5519   0.6475   0.8047     H
H       0.5519   0.8525   0.3047     H
O      0.56108  0.67042  0.10054     O
O      0.56108  0.82962  0.60054     O
O      0.57018  0.10844  0.96444     O
O      0.57018  0.39164  0.46444     O
C     0.575913  0.15944  0.72634     C
C     0.575913  0.34064  0.22634     C
C      0.59191  0.71634  0.27144     C
C      0.59191  0.78374  0.77144     C
O      0.59488  0.09332  0.18852     O
O      0.59488  0.40672  0.68852     O
C     0.595511  0.23014  0.75264     C
C     0.595511  0.26994  0.25264     C
O      0.59767  0.19822  0.10402     O
O      0.59767  0.30182  0.60402     O
H       0.6181   0.6842   0.2312     H
H       0.6181   0.8158   0.7312     H
C     0.693513  0.03024  0.71094     C
C     0.693513  0.46984  0.21094     C
P      0.69684 0.173958 0.414979     P
P      0.69684 0.326058 0.914979     P
O      0.71868  0.08274  0.57912     O
O      0.71868  0.41734  0.07912     O
H       0.7303   0.7443    0.284     H
H       0.7303   0.7557    0.784     H
C     0.732211  0.10564  0.74294     C
C     0.732211  0.39444  0.24294     C
O      0.74028  0.73124  0.50384     O
O      0.74028  0.76884  0.00384     O
H       0.7451   0.1404   0.2999     H
H       0.7451   0.3596   0.7999     H
O      0.74739  0.55324  0.09604     O
O      0.74739  0.94684  0.59604     O
H       0.7553   0.5916   0.6802     H
H       0.7553   0.9084   0.1802     H
O      0.75879  0.23954  0.45862     O
O      0.75879  0.26054  0.95862     O
O      0.76377  0.63372  0.37932     O
O      0.76377  0.86632  0.87932     O
H       0.7653   0.5066   0.2438     H
H       0.7653   0.9934   0.7438     H
O      0.77999  0.10124  0.44952     O
O      0.77999  0.39884  0.94952     O
O      0.78127  0.00662  0.88802     O
O      0.78127  0.49342  0.38802     O
C     0.782211  0.24814  0.79794     C
C     0.782211  0.25194  0.29794     C
P      0.80164 0.020729 0.626378     P
P      0.80164 0.479289 0.126378     P
C     0.815413  0.17804  0.33204     C
C     0.815413  0.32204  0.83204     C
O      0.82958  0.04272  0.09272     O
O      0.82958  0.45732  0.59272     O
H       0.8968   0.5286   0.7221     H
H       0.8968   0.9714   0.2221     H
C     0.902811  0.56754  0.68634     C
C     0.902811  0.93254  0.18634     C
La    0.911896 0.16659218 0.03505717    La
La    0.911896 0.33340818 0.53505717    La
C     0.919711  0.12334  0.78794     C
C     0.919711  0.37674  0.28794     C
O      0.92527  0.58362  0.54602     O
O      0.92527  0.91642  0.04602     O
H        0.929   0.7063   0.6561     H
H        0.929   0.7937   0.1561     H
O      0.94008  0.52834  0.85452     O
O      0.94008  0.97174  0.35452     O
C     0.941311  0.19424  0.81384     C
C     0.941311  0.30584  0.31384     C
P      0.96214 0.527388 0.603598     P
P      0.96214 0.972628 0.103598     P
H       0.9768   0.1673   0.3397     H
H       0.9768   0.3327   0.8397     H
O      0.99988  0.21372  0.60582     O
O      0.99988  0.28632  0.10582     O
