data_I
_chemical_name_common  '/home/zhangsd/repos/MofS-CGCNN/ML/data/WS24/clean_cifs/PEHQID'
_cell_length_a  9.57740
_cell_length_b  9.71820
_cell_length_c 25.39600
_cell_angle_alpha 90.00000
_cell_angle_beta  90.00000
_cell_angle_gamma 119.52200
_space_group_name_H-M_alt      'P 1'


loop_
_space_group_symop_operation_xyz
  'x, y, z' 

loop_
_atom_site_label
_atom_site_fract_x
_atom_site_fract_y
_atom_site_fract_z
_atom_site_type_symbol
O       0.0053   0.1464   0.3808     O
H       0.0108   0.6466   0.9338     H
C       0.0441   0.6604   0.0769     C
C       0.0558   0.4186   0.0811     C
H       0.0559   0.6396   0.5706     H
H       0.0579   0.4222   0.1193     H
O       0.0606   0.3932   0.6091     O
O       0.0643    0.955   0.5668     O
Cd     0.06449   0.1713  0.89211    Cd
C       0.0662    0.158   0.0867     C
O       0.0664   0.6786    0.377     O
O       0.0734   0.7844    0.062     O
N       0.0735   0.1822   0.8016     N
C       0.0738   0.8936   0.2184     C
H       0.0799   0.9666   0.7138     H
C       0.0841   0.9244   0.2792     C
C       0.0852    0.667   0.4222     C
O       0.0872   0.7594   0.4617     O
C       0.0918    0.158   0.4133     C
H       0.0928   0.4062   0.3822     H
C       0.0982   0.4062   0.4203     C
H       0.1011   0.3996   0.7873     H
Cd     0.10681   0.1713  0.60789    Cd
N       0.1087   0.1822   0.6984     N
O       0.1093    0.045   0.4332     O
H       0.1133   0.0334   0.2862     H
H       0.1146   0.8224   0.2103     H
H       0.1169   0.5748   0.0234     H
C       0.1221   0.5808    0.062     C
H       0.1344   0.3098   0.0244     H
H       0.1385   0.4034   0.7035     H
C       0.1392   0.3192   0.0629     C
H         0.14   0.9926   0.2001     H
O       0.1411   0.1464   0.1192     O
H       0.1474   0.0074   0.7999     H
C       0.1597   0.0756   0.7208     C
C       0.1609   0.3454   0.7796     C
H       0.1647   0.9042   0.2948     H
H       0.1754   0.3098   0.4756     H
C         0.18   0.3192   0.4371     C
C       0.1802   0.1064   0.7816     C
C       0.1845   0.3454   0.7204     C
C       0.1899   0.5832    0.441     C
H       0.1906    0.581   0.4796     H
Cd      0.2322     -0.0      0.5    Cd
H       0.2605   0.0958   0.7052     H
H       0.2649   0.4034   0.7965     H
O        0.289   0.2156    0.938     O
H       0.2922   0.1776   0.7897     H
H       0.2985   0.3996   0.7127     H
C        0.308   0.4062   0.0797     C
C       0.3103   0.6688   0.0775     C
H       0.3134   0.4062   0.1178     H
H       0.3203   0.6796   0.1155     H
O       0.3278   0.2406   0.5383     O
O       0.3326   0.3932   0.8909     O
C       0.3585   0.6688   0.4225     C
H       0.3593   0.6796   0.3845     H
C       0.3628   0.4186   0.4189     C
H       0.3628   0.7742   0.0625     H
H       0.3642   0.3534   0.0662     H
H       0.3643   0.4222   0.3807     H
O       0.3804   0.9068   0.5428     O
C       0.3837   0.3396   0.9231     C
O       0.3878   0.3214    0.623     O
H       0.3904    0.581   0.0204     H
C       0.3933   0.5832    0.059     C
H       0.4114   0.7742   0.4375     H
H       0.4163   0.3604   0.4294     H
C       0.4182    0.333   0.5778     C
H       0.4579   0.5748   0.4766     H
C       0.4587   0.5808    0.438     C
O       0.4736   0.0932   0.4572     O
O       0.5264   0.9068   0.9572     O
C       0.5413   0.4192    0.938     C
H       0.5421   0.4252   0.9766     H
C       0.5818    0.667   0.0778     C
H       0.5837   0.6396   0.9294     H
H       0.5886   0.2258   0.9375     H
C       0.6067   0.4168    0.559     C
H       0.6096    0.419   0.5204     H
O       0.6122   0.6786    0.123     O
C       0.6163   0.6604   0.4231     C
O       0.6196   0.0932   0.0428     O
H       0.6357   0.5778   0.8807     H
H       0.6358   0.6466   0.5662     H
H       0.6372   0.2258   0.5625     H
C       0.6372   0.5814   0.9189     C
H       0.6407   0.3204   0.8845     H
C       0.6415   0.3312   0.9225     C
O       0.6674   0.6068   0.3909     O
O       0.6722   0.7594   0.0383     O
H       0.6797   0.3204   0.6155     H
H       0.6866   0.5938   0.6178     H
C       0.6897   0.3312   0.5775     C
C        0.692   0.5938   0.5797     C
H       0.7015   0.6004   0.2127     H
H       0.7078   0.8224   0.2897     H
O        0.711   0.7844    0.438     O
H       0.7351   0.5966   0.2965     H
H       0.7395   0.9042   0.2052     H
Cd      0.7678     -0.0      0.0    Cd
H       0.8094    0.419   0.9796     H
C       0.8101   0.4168    0.941     C
C       0.8155   0.6546   0.2204     C
C       0.8198   0.8936   0.2816     C
C         0.82   0.6808   0.9371     C
H       0.8246   0.6902   0.9756     H
H       0.8353   0.0958   0.7948     H
C       0.8391   0.6546   0.2796     C
C       0.8403   0.9244   0.2208     C
H       0.8526   0.9926   0.2999     H
O       0.8589   0.8536   0.6192     O
H         0.86   0.0074   0.7001     H
C       0.8608   0.6808   0.5629     C
H       0.8615   0.5966   0.2035     H
H       0.8656   0.6902   0.5244     H
C       0.8779   0.4192    0.562     C
H       0.8831   0.4252   0.5234     H
H       0.8854   0.1776   0.7103     H
H       0.8867   0.9666   0.7862     H
O       0.8907    0.955   0.9332     O
N       0.8913   0.8178   0.1984     N
Cd     0.89319   0.8287  0.10789    Cd
H       0.8989   0.6004   0.2873     H
C       0.9018   0.5938   0.9203     C
H       0.9072   0.5938   0.8822     H
C       0.9082    0.842   0.9133     C
O       0.9128   0.2406   0.9617     O
C       0.9148    0.333   0.9222     C
C       0.9159   0.0756   0.7792     C
H       0.9201   0.0334   0.2138     H
C       0.9262   0.1064   0.7184     C
N       0.9265   0.8178   0.3016     N
O       0.9266   0.2156    0.562     O
O       0.9336   0.3214    0.877     O
C       0.9338    0.842   0.5867     C
Cd     0.93551   0.8287  0.39211    Cd
O       0.9357    0.045   0.0668     O
O       0.9394   0.6068   0.1091     O
H       0.9421   0.5778   0.6193     H
H       0.9441   0.3604   0.0706     H
C       0.9442   0.5814   0.5811     C
C       0.9559   0.3396   0.5769     C
H       0.9892   0.3534   0.4338     H
O       0.9947   0.8536   0.8808     O
