data_I
_chemical_name_common  '/home/zhangsd/repos/MofS-CGCNN/ML/data/WS24/clean_cifs/PETXAP'
_cell_length_a 27.45260
_cell_length_b 27.45260
_cell_length_c 27.45260
_cell_angle_alpha 90.00000
_cell_angle_beta  90.00000
_cell_angle_gamma 90.00000
_space_group_name_H-M_alt      'P 1'


loop_
_space_group_symop_operation_xyz
  'x, y, z' 

loop_
_atom_site_label
_atom_site_fract_x
_atom_site_fract_y
_atom_site_fract_z
_atom_site_type_symbol
U          0.0      0.0  0.40113     U
U          0.0      0.0  0.59887     U
O          0.0   0.0762   0.3647     O
O          0.0   0.0762   0.6353     O
U          0.0  0.09887      0.5     U
C          0.0   0.1197   0.3803     C
C          0.0   0.1197   0.6197     C
O          0.0   0.1353   0.4238     O
O          0.0   0.1353   0.5762     O
C          0.0   0.1588   0.3412     C
C          0.0   0.1588   0.6588     C
C          0.0   0.2304   0.2696     C
C          0.0   0.2304   0.7304     C
C          0.0   0.2696   0.2304     C
C          0.0   0.2696   0.7696     C
C          0.0   0.3412   0.1588     C
C          0.0   0.3412   0.8412     C
O          0.0   0.3647   0.0762     O
O          0.0   0.3647   0.9238     O
C          0.0   0.3803   0.1197     C
C          0.0   0.3803   0.8803     C
U          0.0  0.40113      0.0     U
O          0.0   0.4238   0.1353     O
O          0.0   0.4238   0.8647     O
U          0.0      0.5  0.09887     U
U          0.0      0.5  0.90113     U
O          0.0   0.5762   0.1353     O
O          0.0   0.5762   0.8647     O
U          0.0  0.59887      0.0     U
C          0.0   0.6197   0.1197     C
C          0.0   0.6197   0.8803     C
O          0.0   0.6353   0.0762     O
O          0.0   0.6353   0.9238     O
C          0.0   0.6588   0.1588     C
C          0.0   0.6588   0.8412     C
C          0.0   0.7304   0.2304     C
C          0.0   0.7304   0.7696     C
C          0.0   0.7696   0.2696     C
C          0.0   0.7696   0.7304     C
C          0.0   0.8412   0.3412     C
C          0.0   0.8412   0.6588     C
O          0.0   0.8647   0.4238     O
O          0.0   0.8647   0.5762     O
C          0.0   0.8803   0.3803     C
C          0.0   0.8803   0.6197     C
U          0.0  0.90113      0.5     U
O          0.0   0.9238   0.3647     O
O          0.0   0.9238   0.6353     O
C       0.0151   0.1831   0.2584     C
C       0.0151   0.1831   0.7416     C
C       0.0151   0.2416   0.3169     C
C       0.0151   0.2416   0.6831     C
C       0.0151   0.2584   0.1831     C
C       0.0151   0.2584   0.8169     C
C       0.0151   0.3169   0.2416     C
C       0.0151   0.3169   0.7584     C
C       0.0151   0.6831   0.2416     C
C       0.0151   0.6831   0.7584     C
C       0.0151   0.7416   0.1831     C
C       0.0151   0.7416   0.8169     C
C       0.0151   0.7584   0.3169     C
C       0.0151   0.7584   0.6831     C
C       0.0151   0.8169   0.2584     C
C       0.0151   0.8169   0.7416     C
C       0.0167    0.148   0.2945     C
C       0.0167    0.148   0.7055     C
C       0.0167   0.2055    0.352     C
C       0.0167   0.2055    0.648     C
C       0.0167   0.2945    0.148     C
C       0.0167   0.2945    0.852     C
C       0.0167    0.352   0.2055     C
C       0.0167    0.352   0.7945     C
C       0.0167    0.648   0.2055     C
C       0.0167    0.648   0.7945     C
C       0.0167   0.7055    0.148     C
C       0.0167   0.7055    0.852     C
C       0.0167   0.7945    0.352     C
C       0.0167   0.7945    0.648     C
C       0.0167    0.852   0.2945     C
C       0.0167    0.852   0.7055     C
O       0.0482   0.0482   0.4518     O
O       0.0482   0.0482   0.5482     O
O       0.0482   0.4518   0.0482     O
O       0.0482   0.4518   0.9518     O
O       0.0482   0.5482   0.0482     O
O       0.0482   0.5482   0.9518     O
O       0.0482   0.9518   0.4518     O
O       0.0482   0.9518   0.5482     O
O       0.0762      0.0   0.3647     O
O       0.0762      0.0   0.6353     O
O       0.0762   0.1353      0.5     O
O       0.0762   0.3647      0.0     O
O       0.0762      0.5   0.1353     O
O       0.0762      0.5   0.8647     O
O       0.0762   0.6353      0.0     O
O       0.0762   0.8647      0.5     O
U      0.09887      0.0      0.5     U
U      0.09887      0.5      0.0     U
C       0.1197      0.0   0.3803     C
C       0.1197      0.0   0.6197     C
C       0.1197   0.1197      0.5     C
C       0.1197   0.3803      0.0     C
C       0.1197      0.5   0.1197     C
C       0.1197      0.5   0.8803     C
C       0.1197   0.6197      0.0     C
C       0.1197   0.8803      0.5     C
O       0.1353      0.0   0.4238     O
O       0.1353      0.0   0.5762     O
O       0.1353   0.0762      0.5     O
O       0.1353   0.4238      0.0     O
O       0.1353      0.5   0.0762     O
O       0.1353      0.5   0.9238     O
O       0.1353   0.5762      0.0     O
O       0.1353   0.9238      0.5     O
C        0.148   0.0167   0.2945     C
C        0.148   0.0167   0.7055     C
C        0.148   0.2055   0.4833     C
C        0.148   0.2055   0.5167     C
C        0.148   0.2945   0.0167     C
C        0.148   0.2945   0.9833     C
C        0.148   0.4833   0.2055     C
C        0.148   0.4833   0.7945     C
C        0.148   0.5167   0.2055     C
C        0.148   0.5167   0.7945     C
C        0.148   0.7055   0.0167     C
C        0.148   0.7055   0.9833     C
C        0.148   0.7945   0.4833     C
C        0.148   0.7945   0.5167     C
C        0.148   0.9833   0.2945     C
C        0.148   0.9833   0.7055     C
C       0.1588      0.0   0.3412     C
C       0.1588      0.0   0.6588     C
C       0.1588   0.1588      0.5     C
C       0.1588   0.3412      0.0     C
C       0.1588      0.5   0.1588     C
C       0.1588      0.5   0.8412     C
C       0.1588   0.6588      0.0     C
C       0.1588   0.8412      0.5     C
C       0.1831   0.0151   0.2584     C
C       0.1831   0.0151   0.7416     C
C       0.1831   0.2416   0.4849     C
C       0.1831   0.2416   0.5151     C
C       0.1831   0.2584   0.0151     C
C       0.1831   0.2584   0.9849     C
C       0.1831   0.4849   0.2416     C
C       0.1831   0.4849   0.7584     C
C       0.1831   0.5151   0.2416     C
C       0.1831   0.5151   0.7584     C
C       0.1831   0.7416   0.0151     C
C       0.1831   0.7416   0.9849     C
C       0.1831   0.7584   0.4849     C
C       0.1831   0.7584   0.5151     C
C       0.1831   0.9849   0.2584     C
C       0.1831   0.9849   0.7416     C
C       0.2055   0.0167    0.352     C
C       0.2055   0.0167    0.648     C
C       0.2055    0.148   0.4833     C
C       0.2055    0.148   0.5167     C
C       0.2055    0.352   0.0167     C
C       0.2055    0.352   0.9833     C
C       0.2055   0.4833    0.148     C
C       0.2055   0.4833    0.852     C
C       0.2055   0.5167    0.148     C
C       0.2055   0.5167    0.852     C
C       0.2055    0.648   0.0167     C
C       0.2055    0.648   0.9833     C
C       0.2055    0.852   0.4833     C
C       0.2055    0.852   0.5167     C
C       0.2055   0.9833    0.352     C
C       0.2055   0.9833    0.648     C
C       0.2304      0.0   0.2696     C
C       0.2304      0.0   0.7304     C
C       0.2304   0.2304      0.5     C
C       0.2304   0.2696      0.0     C
C       0.2304      0.5   0.2304     C
C       0.2304      0.5   0.7696     C
C       0.2304   0.7304      0.0     C
C       0.2304   0.7696      0.5     C
C       0.2416   0.0151   0.3169     C
C       0.2416   0.0151   0.6831     C
C       0.2416   0.1831   0.4849     C
C       0.2416   0.1831   0.5151     C
C       0.2416   0.3169   0.0151     C
C       0.2416   0.3169   0.9849     C
C       0.2416   0.4849   0.1831     C
C       0.2416   0.4849   0.8169     C
C       0.2416   0.5151   0.1831     C
C       0.2416   0.5151   0.8169     C
C       0.2416   0.6831   0.0151     C
C       0.2416   0.6831   0.9849     C
C       0.2416   0.8169   0.4849     C
C       0.2416   0.8169   0.5151     C
C       0.2416   0.9849   0.3169     C
C       0.2416   0.9849   0.6831     C
C       0.2584   0.0151   0.1831     C
C       0.2584   0.0151   0.8169     C
C       0.2584   0.1831   0.0151     C
C       0.2584   0.1831   0.9849     C
C       0.2584   0.3169   0.4849     C
C       0.2584   0.3169   0.5151     C
C       0.2584   0.4849   0.3169     C
C       0.2584   0.4849   0.6831     C
C       0.2584   0.5151   0.3169     C
C       0.2584   0.5151   0.6831     C
C       0.2584   0.6831   0.4849     C
C       0.2584   0.6831   0.5151     C
C       0.2584   0.8169   0.0151     C
C       0.2584   0.8169   0.9849     C
C       0.2584   0.9849   0.1831     C
C       0.2584   0.9849   0.8169     C
C       0.2696      0.0   0.2304     C
C       0.2696      0.0   0.7696     C
C       0.2696   0.2304      0.0     C
C       0.2696   0.2696      0.5     C
C       0.2696      0.5   0.2696     C
C       0.2696      0.5   0.7304     C
C       0.2696   0.7304      0.5     C
C       0.2696   0.7696      0.0     C
C       0.2945   0.0167    0.148     C
C       0.2945   0.0167    0.852     C
C       0.2945    0.148   0.0167     C
C       0.2945    0.148   0.9833     C
C       0.2945    0.352   0.4833     C
C       0.2945    0.352   0.5167     C
C       0.2945   0.4833    0.352     C
C       0.2945   0.4833    0.648     C
C       0.2945   0.5167    0.352     C
C       0.2945   0.5167    0.648     C
C       0.2945    0.648   0.4833     C
C       0.2945    0.648   0.5167     C
C       0.2945    0.852   0.0167     C
C       0.2945    0.852   0.9833     C
C       0.2945   0.9833    0.148     C
C       0.2945   0.9833    0.852     C
C       0.3169   0.0151   0.2416     C
C       0.3169   0.0151   0.7584     C
C       0.3169   0.2416   0.0151     C
C       0.3169   0.2416   0.9849     C
C       0.3169   0.2584   0.4849     C
C       0.3169   0.2584   0.5151     C
C       0.3169   0.4849   0.2584     C
C       0.3169   0.4849   0.7416     C
C       0.3169   0.5151   0.2584     C
C       0.3169   0.5151   0.7416     C
C       0.3169   0.7416   0.4849     C
C       0.3169   0.7416   0.5151     C
C       0.3169   0.7584   0.0151     C
C       0.3169   0.7584   0.9849     C
C       0.3169   0.9849   0.2416     C
C       0.3169   0.9849   0.7584     C
C       0.3412      0.0   0.1588     C
C       0.3412      0.0   0.8412     C
C       0.3412   0.1588      0.0     C
C       0.3412   0.3412      0.5     C
C       0.3412      0.5   0.3412     C
C       0.3412      0.5   0.6588     C
C       0.3412   0.6588      0.5     C
C       0.3412   0.8412      0.0     C
C        0.352   0.0167   0.2055     C
C        0.352   0.0167   0.7945     C
C        0.352   0.2055   0.0167     C
C        0.352   0.2055   0.9833     C
C        0.352   0.2945   0.4833     C
C        0.352   0.2945   0.5167     C
C        0.352   0.4833   0.2945     C
C        0.352   0.4833   0.7055     C
C        0.352   0.5167   0.2945     C
C        0.352   0.5167   0.7055     C
C        0.352   0.7055   0.4833     C
C        0.352   0.7055   0.5167     C
C        0.352   0.7945   0.0167     C
C        0.352   0.7945   0.9833     C
C        0.352   0.9833   0.2055     C
C        0.352   0.9833   0.7945     C
O       0.3647      0.0   0.0762     O
O       0.3647      0.0   0.9238     O
O       0.3647   0.0762      0.0     O
O       0.3647   0.4238      0.5     O
O       0.3647      0.5   0.4238     O
O       0.3647      0.5   0.5762     O
O       0.3647   0.5762      0.5     O
O       0.3647   0.9238      0.0     O
C       0.3803      0.0   0.1197     C
C       0.3803      0.0   0.8803     C
C       0.3803   0.1197      0.0     C
C       0.3803   0.3803      0.5     C
C       0.3803      0.5   0.3803     C
C       0.3803      0.5   0.6197     C
C       0.3803   0.6197      0.5     C
C       0.3803   0.8803      0.0     C
U      0.40113      0.0      0.0     U
U      0.40113      0.5      0.5     U
O       0.4238      0.0   0.1353     O
O       0.4238      0.0   0.8647     O
O       0.4238   0.1353      0.0     O
O       0.4238   0.3647      0.5     O
O       0.4238      0.5   0.3647     O
O       0.4238      0.5   0.6353     O
O       0.4238   0.6353      0.5     O
O       0.4238   0.8647      0.0     O
O       0.4518   0.0482   0.0482     O
O       0.4518   0.0482   0.9518     O
O       0.4518   0.4518   0.4518     O
O       0.4518   0.4518   0.5482     O
O       0.4518   0.5482   0.4518     O
O       0.4518   0.5482   0.5482     O
O       0.4518   0.9518   0.0482     O
O       0.4518   0.9518   0.9518     O
C       0.4833    0.148   0.2055     C
C       0.4833    0.148   0.7945     C
C       0.4833   0.2055    0.148     C
C       0.4833   0.2055    0.852     C
C       0.4833   0.2945    0.352     C
C       0.4833   0.2945    0.648     C
C       0.4833    0.352   0.2945     C
C       0.4833    0.352   0.7055     C
C       0.4833    0.648   0.2945     C
C       0.4833    0.648   0.7055     C
C       0.4833   0.7055    0.352     C
C       0.4833   0.7055    0.648     C
C       0.4833   0.7945    0.148     C
C       0.4833   0.7945    0.852     C
C       0.4833    0.852   0.2055     C
C       0.4833    0.852   0.7945     C
C       0.4849   0.1831   0.2416     C
C       0.4849   0.1831   0.7584     C
C       0.4849   0.2416   0.1831     C
C       0.4849   0.2416   0.8169     C
C       0.4849   0.2584   0.3169     C
C       0.4849   0.2584   0.6831     C
C       0.4849   0.3169   0.2584     C
C       0.4849   0.3169   0.7416     C
C       0.4849   0.6831   0.2584     C
C       0.4849   0.6831   0.7416     C
C       0.4849   0.7416   0.3169     C
C       0.4849   0.7416   0.6831     C
C       0.4849   0.7584   0.1831     C
C       0.4849   0.7584   0.8169     C
C       0.4849   0.8169   0.2416     C
C       0.4849   0.8169   0.7584     C
U          0.5      0.0  0.09887     U
U          0.5      0.0  0.90113     U
O          0.5   0.0762   0.1353     O
O          0.5   0.0762   0.8647     O
U          0.5  0.09887      0.0     U
C          0.5   0.1197   0.1197     C
C          0.5   0.1197   0.8803     C
O          0.5   0.1353   0.0762     O
O          0.5   0.1353   0.9238     O
C          0.5   0.1588   0.1588     C
C          0.5   0.1588   0.8412     C
C          0.5   0.2304   0.2304     C
C          0.5   0.2304   0.7696     C
C          0.5   0.2696   0.2696     C
C          0.5   0.2696   0.7304     C
C          0.5   0.3412   0.3412     C
C          0.5   0.3412   0.6588     C
O          0.5   0.3647   0.4238     O
O          0.5   0.3647   0.5762     O
C          0.5   0.3803   0.3803     C
C          0.5   0.3803   0.6197     C
U          0.5  0.40113      0.5     U
O          0.5   0.4238   0.3647     O
O          0.5   0.4238   0.6353     O
U          0.5      0.5  0.40113     U
U          0.5      0.5  0.59887     U
O          0.5   0.5762   0.3647     O
O          0.5   0.5762   0.6353     O
U          0.5  0.59887      0.5     U
C          0.5   0.6197   0.3803     C
C          0.5   0.6197   0.6197     C
O          0.5   0.6353   0.4238     O
O          0.5   0.6353   0.5762     O
C          0.5   0.6588   0.3412     C
C          0.5   0.6588   0.6588     C
C          0.5   0.7304   0.2696     C
C          0.5   0.7304   0.7304     C
C          0.5   0.7696   0.2304     C
C          0.5   0.7696   0.7696     C
C          0.5   0.8412   0.1588     C
C          0.5   0.8412   0.8412     C
O          0.5   0.8647   0.0762     O
O          0.5   0.8647   0.9238     O
C          0.5   0.8803   0.1197     C
C          0.5   0.8803   0.8803     C
U          0.5  0.90113      0.0     U
O          0.5   0.9238   0.1353     O
O          0.5   0.9238   0.8647     O
C       0.5151   0.1831   0.2416     C
C       0.5151   0.1831   0.7584     C
C       0.5151   0.2416   0.1831     C
C       0.5151   0.2416   0.8169     C
C       0.5151   0.2584   0.3169     C
C       0.5151   0.2584   0.6831     C
C       0.5151   0.3169   0.2584     C
C       0.5151   0.3169   0.7416     C
C       0.5151   0.6831   0.2584     C
C       0.5151   0.6831   0.7416     C
C       0.5151   0.7416   0.3169     C
C       0.5151   0.7416   0.6831     C
C       0.5151   0.7584   0.1831     C
C       0.5151   0.7584   0.8169     C
C       0.5151   0.8169   0.2416     C
C       0.5151   0.8169   0.7584     C
C       0.5167    0.148   0.2055     C
C       0.5167    0.148   0.7945     C
C       0.5167   0.2055    0.148     C
C       0.5167   0.2055    0.852     C
C       0.5167   0.2945    0.352     C
C       0.5167   0.2945    0.648     C
C       0.5167    0.352   0.2945     C
C       0.5167    0.352   0.7055     C
C       0.5167    0.648   0.2945     C
C       0.5167    0.648   0.7055     C
C       0.5167   0.7055    0.352     C
C       0.5167   0.7055    0.648     C
C       0.5167   0.7945    0.148     C
C       0.5167   0.7945    0.852     C
C       0.5167    0.852   0.2055     C
C       0.5167    0.852   0.7945     C
O       0.5482   0.0482   0.0482     O
O       0.5482   0.0482   0.9518     O
O       0.5482   0.4518   0.4518     O
O       0.5482   0.4518   0.5482     O
O       0.5482   0.5482   0.4518     O
O       0.5482   0.5482   0.5482     O
O       0.5482   0.9518   0.0482     O
O       0.5482   0.9518   0.9518     O
O       0.5762      0.0   0.1353     O
O       0.5762      0.0   0.8647     O
O       0.5762   0.1353      0.0     O
O       0.5762   0.3647      0.5     O
O       0.5762      0.5   0.3647     O
O       0.5762      0.5   0.6353     O
O       0.5762   0.6353      0.5     O
O       0.5762   0.8647      0.0     O
U      0.59887      0.0      0.0     U
U      0.59887      0.5      0.5     U
C       0.6197      0.0   0.1197     C
C       0.6197      0.0   0.8803     C
C       0.6197   0.1197      0.0     C
C       0.6197   0.3803      0.5     C
C       0.6197      0.5   0.3803     C
C       0.6197      0.5   0.6197     C
C       0.6197   0.6197      0.5     C
C       0.6197   0.8803      0.0     C
O       0.6353      0.0   0.0762     O
O       0.6353      0.0   0.9238     O
O       0.6353   0.0762      0.0     O
O       0.6353   0.4238      0.5     O
O       0.6353      0.5   0.4238     O
O       0.6353      0.5   0.5762     O
O       0.6353   0.5762      0.5     O
O       0.6353   0.9238      0.0     O
C        0.648   0.0167   0.2055     C
C        0.648   0.0167   0.7945     C
C        0.648   0.2055   0.0167     C
C        0.648   0.2055   0.9833     C
C        0.648   0.2945   0.4833     C
C        0.648   0.2945   0.5167     C
C        0.648   0.4833   0.2945     C
C        0.648   0.4833   0.7055     C
C        0.648   0.5167   0.2945     C
C        0.648   0.5167   0.7055     C
C        0.648   0.7055   0.4833     C
C        0.648   0.7055   0.5167     C
C        0.648   0.7945   0.0167     C
C        0.648   0.7945   0.9833     C
C        0.648   0.9833   0.2055     C
C        0.648   0.9833   0.7945     C
C       0.6588      0.0   0.1588     C
C       0.6588      0.0   0.8412     C
C       0.6588   0.1588      0.0     C
C       0.6588   0.3412      0.5     C
C       0.6588      0.5   0.3412     C
C       0.6588      0.5   0.6588     C
C       0.6588   0.6588      0.5     C
C       0.6588   0.8412      0.0     C
C       0.6831   0.0151   0.2416     C
C       0.6831   0.0151   0.7584     C
C       0.6831   0.2416   0.0151     C
C       0.6831   0.2416   0.9849     C
C       0.6831   0.2584   0.4849     C
C       0.6831   0.2584   0.5151     C
C       0.6831   0.4849   0.2584     C
C       0.6831   0.4849   0.7416     C
C       0.6831   0.5151   0.2584     C
C       0.6831   0.5151   0.7416     C
C       0.6831   0.7416   0.4849     C
C       0.6831   0.7416   0.5151     C
C       0.6831   0.7584   0.0151     C
C       0.6831   0.7584   0.9849     C
C       0.6831   0.9849   0.2416     C
C       0.6831   0.9849   0.7584     C
C       0.7055   0.0167    0.148     C
C       0.7055   0.0167    0.852     C
C       0.7055    0.148   0.0167     C
C       0.7055    0.148   0.9833     C
C       0.7055    0.352   0.4833     C
C       0.7055    0.352   0.5167     C
C       0.7055   0.4833    0.352     C
C       0.7055   0.4833    0.648     C
C       0.7055   0.5167    0.352     C
C       0.7055   0.5167    0.648     C
C       0.7055    0.648   0.4833     C
C       0.7055    0.648   0.5167     C
C       0.7055    0.852   0.0167     C
C       0.7055    0.852   0.9833     C
C       0.7055   0.9833    0.148     C
C       0.7055   0.9833    0.852     C
C       0.7304      0.0   0.2304     C
C       0.7304      0.0   0.7696     C
C       0.7304   0.2304      0.0     C
C       0.7304   0.2696      0.5     C
C       0.7304      0.5   0.2696     C
C       0.7304      0.5   0.7304     C
C       0.7304   0.7304      0.5     C
C       0.7304   0.7696      0.0     C
C       0.7416   0.0151   0.1831     C
C       0.7416   0.0151   0.8169     C
C       0.7416   0.1831   0.0151     C
C       0.7416   0.1831   0.9849     C
C       0.7416   0.3169   0.4849     C
C       0.7416   0.3169   0.5151     C
C       0.7416   0.4849   0.3169     C
C       0.7416   0.4849   0.6831     C
C       0.7416   0.5151   0.3169     C
C       0.7416   0.5151   0.6831     C
C       0.7416   0.6831   0.4849     C
C       0.7416   0.6831   0.5151     C
C       0.7416   0.8169   0.0151     C
C       0.7416   0.8169   0.9849     C
C       0.7416   0.9849   0.1831     C
C       0.7416   0.9849   0.8169     C
C       0.7584   0.0151   0.3169     C
C       0.7584   0.0151   0.6831     C
C       0.7584   0.1831   0.4849     C
C       0.7584   0.1831   0.5151     C
C       0.7584   0.3169   0.0151     C
C       0.7584   0.3169   0.9849     C
C       0.7584   0.4849   0.1831     C
C       0.7584   0.4849   0.8169     C
C       0.7584   0.5151   0.1831     C
C       0.7584   0.5151   0.8169     C
C       0.7584   0.6831   0.0151     C
C       0.7584   0.6831   0.9849     C
C       0.7584   0.8169   0.4849     C
C       0.7584   0.8169   0.5151     C
C       0.7584   0.9849   0.3169     C
C       0.7584   0.9849   0.6831     C
C       0.7696      0.0   0.2696     C
C       0.7696      0.0   0.7304     C
C       0.7696   0.2304      0.5     C
C       0.7696   0.2696      0.0     C
C       0.7696      0.5   0.2304     C
C       0.7696      0.5   0.7696     C
C       0.7696   0.7304      0.0     C
C       0.7696   0.7696      0.5     C
C       0.7945   0.0167    0.352     C
C       0.7945   0.0167    0.648     C
C       0.7945    0.148   0.4833     C
C       0.7945    0.148   0.5167     C
C       0.7945    0.352   0.0167     C
C       0.7945    0.352   0.9833     C
C       0.7945   0.4833    0.148     C
C       0.7945   0.4833    0.852     C
C       0.7945   0.5167    0.148     C
C       0.7945   0.5167    0.852     C
C       0.7945    0.648   0.0167     C
C       0.7945    0.648   0.9833     C
C       0.7945    0.852   0.4833     C
C       0.7945    0.852   0.5167     C
C       0.7945   0.9833    0.352     C
C       0.7945   0.9833    0.648     C
C       0.8169   0.0151   0.2584     C
C       0.8169   0.0151   0.7416     C
C       0.8169   0.2416   0.4849     C
C       0.8169   0.2416   0.5151     C
C       0.8169   0.2584   0.0151     C
C       0.8169   0.2584   0.9849     C
C       0.8169   0.4849   0.2416     C
C       0.8169   0.4849   0.7584     C
C       0.8169   0.5151   0.2416     C
C       0.8169   0.5151   0.7584     C
C       0.8169   0.7416   0.0151     C
C       0.8169   0.7416   0.9849     C
C       0.8169   0.7584   0.4849     C
C       0.8169   0.7584   0.5151     C
C       0.8169   0.9849   0.2584     C
C       0.8169   0.9849   0.7416     C
C       0.8412      0.0   0.3412     C
C       0.8412      0.0   0.6588     C
C       0.8412   0.1588      0.5     C
C       0.8412   0.3412      0.0     C
C       0.8412      0.5   0.1588     C
C       0.8412      0.5   0.8412     C
C       0.8412   0.6588      0.0     C
C       0.8412   0.8412      0.5     C
C        0.852   0.0167   0.2945     C
C        0.852   0.0167   0.7055     C
C        0.852   0.2055   0.4833     C
C        0.852   0.2055   0.5167     C
C        0.852   0.2945   0.0167     C
C        0.852   0.2945   0.9833     C
C        0.852   0.4833   0.2055     C
C        0.852   0.4833   0.7945     C
C        0.852   0.5167   0.2055     C
C        0.852   0.5167   0.7945     C
C        0.852   0.7055   0.0167     C
C        0.852   0.7055   0.9833     C
C        0.852   0.7945   0.4833     C
C        0.852   0.7945   0.5167     C
C        0.852   0.9833   0.2945     C
C        0.852   0.9833   0.7055     C
O       0.8647      0.0   0.4238     O
O       0.8647      0.0   0.5762     O
O       0.8647   0.0762      0.5     O
O       0.8647   0.4238      0.0     O
O       0.8647      0.5   0.0762     O
O       0.8647      0.5   0.9238     O
O       0.8647   0.5762      0.0     O
O       0.8647   0.9238      0.5     O
C       0.8803      0.0   0.3803     C
C       0.8803      0.0   0.6197     C
C       0.8803   0.1197      0.5     C
C       0.8803   0.3803      0.0     C
C       0.8803      0.5   0.1197     C
C       0.8803      0.5   0.8803     C
C       0.8803   0.6197      0.0     C
C       0.8803   0.8803      0.5     C
U      0.90113      0.0      0.5     U
U      0.90113      0.5      0.0     U
O       0.9238      0.0   0.3647     O
O       0.9238      0.0   0.6353     O
O       0.9238   0.1353      0.5     O
O       0.9238   0.3647      0.0     O
O       0.9238      0.5   0.1353     O
O       0.9238      0.5   0.8647     O
O       0.9238   0.6353      0.0     O
O       0.9238   0.8647      0.5     O
O       0.9518   0.0482   0.4518     O
O       0.9518   0.0482   0.5482     O
O       0.9518   0.4518   0.0482     O
O       0.9518   0.4518   0.9518     O
O       0.9518   0.5482   0.0482     O
O       0.9518   0.5482   0.9518     O
O       0.9518   0.9518   0.4518     O
O       0.9518   0.9518   0.5482     O
C       0.9833    0.148   0.2945     C
C       0.9833    0.148   0.7055     C
C       0.9833   0.2055    0.352     C
C       0.9833   0.2055    0.648     C
C       0.9833   0.2945    0.148     C
C       0.9833   0.2945    0.852     C
C       0.9833    0.352   0.2055     C
C       0.9833    0.352   0.7945     C
C       0.9833    0.648   0.2055     C
C       0.9833    0.648   0.7945     C
C       0.9833   0.7055    0.148     C
C       0.9833   0.7055    0.852     C
C       0.9833   0.7945    0.352     C
C       0.9833   0.7945    0.648     C
C       0.9833    0.852   0.2945     C
C       0.9833    0.852   0.7055     C
C       0.9849   0.1831   0.2584     C
C       0.9849   0.1831   0.7416     C
C       0.9849   0.2416   0.3169     C
C       0.9849   0.2416   0.6831     C
C       0.9849   0.2584   0.1831     C
C       0.9849   0.2584   0.8169     C
C       0.9849   0.3169   0.2416     C
C       0.9849   0.3169   0.7584     C
C       0.9849   0.6831   0.2416     C
C       0.9849   0.6831   0.7584     C
C       0.9849   0.7416   0.1831     C
C       0.9849   0.7416   0.8169     C
C       0.9849   0.7584   0.3169     C
C       0.9849   0.7584   0.6831     C
C       0.9849   0.8169   0.2584     C
C       0.9849   0.8169   0.7416     C
