data_I
_chemical_name_common  '/home/zhangsd/repos/MofS-CGCNN/ML/data/WS24/clean_cifs/PEWKUZ'
_cell_length_a  8.70830
_cell_length_b 10.16600
_cell_length_c 14.81290
_cell_angle_alpha 74.99500
_cell_angle_beta  89.91500
_cell_angle_gamma 72.97000
_space_group_name_H-M_alt      'P 1'


loop_
_space_group_symop_operation_xyz
  'x, y, z' 

loop_
_atom_site_label
_atom_site_fract_x
_atom_site_fract_y
_atom_site_fract_z
_atom_site_type_symbol
O       0.0101   0.2613  0.36227     O
Br     0.01118  0.72377  0.91013    Br
H       0.0194   0.2082   0.7817     H
C       0.0218   0.0053   0.8388     C
C       0.0349   0.8478   0.1795     C
H       0.0407   0.8851   0.6353     H
O       0.0436    0.574  0.55832     O
C       0.0596   0.0759   0.1047     C
C       0.0612   0.6838   0.5767     C
O        0.075   0.9502   0.6403     O
H       0.0946   0.3727   0.6133     H
H       0.1141   0.9621    0.813     H
O       0.1172   0.2828  0.63767     O
Cd     0.13629  0.55316 0.400566    Cd
H       0.1384   0.2118   0.6153     H
C       0.1719   0.7827   0.1407     C
C       0.1781   0.7459   0.5222     C
C       0.1877   0.9587   0.5856     C
C        0.192   0.0146    0.062     C
Br      0.2191  0.35936  0.89382    Br
N       0.2298    0.544  0.25534     N
C       0.2356   0.8561   0.5287     C
C        0.241   0.6268   0.1709     C
H       0.2441   0.0716   0.0223     H
C       0.2467   0.8672    0.079     C
N       0.2552   0.6884   0.4547     N
O       0.2568   0.0519  0.57817     O
O       0.3138    0.329  0.42187     O
H       0.3215   0.5271   0.7286     H
C       0.3252   0.4076   0.2586     C
H       0.3337    0.825   0.0488     H
N       0.3376   0.5474   0.1206     N
C        0.348   0.3198    0.795     C
N       0.3495   0.8669   0.4665     N
C       0.3558   0.2938   0.3493     C
C       0.3572   0.7651   0.4229     C
H        0.361   0.5789   0.0643     H
C       0.3693   0.4335   0.7263     C
C       0.3922   0.4083   0.1742     C
H       0.3985   0.1069   0.8387     H
C       0.4159   0.1814   0.7924     C
O       0.4317   0.1667  0.34753     O
H       0.4432   0.9408   0.2812     H
O       0.4474    0.833   0.8101     O
O       0.4524    0.669   0.9418     O
C       0.4633   0.4048   0.6539     C
C       0.4635   0.7359   0.3486     C
H       0.4777   0.4798   0.6068     H
H       0.4785   0.8344   0.7576     H
C       0.4897   0.8468   0.2793     C
C       0.4961   0.7009   0.8643     C
Cd         0.5      0.0      0.5    Cd
C       0.5039   0.2991   0.1357     C
C       0.5103   0.1532   0.7207     C
H       0.5215   0.1656   0.2424     H
H       0.5223   0.5202   0.3932     H
C       0.5365   0.2641   0.6514     C
C       0.5367   0.5952   0.3461     C
O       0.5476    0.331   0.0582     O
O       0.5526    0.167   0.1899     O
H       0.5568   0.0592   0.7188     H
O       0.5683   0.8333  0.65247     O
C       0.5841   0.8186   0.2076     C
H       0.6015   0.8931   0.1613     H
C       0.6078   0.5917   0.8258     C
C       0.6307   0.5665   0.2737     C
H        0.639   0.4211   0.9357     H
C       0.6428   0.2349   0.5771     C
C       0.6442   0.7062   0.6507     C
N       0.6505   0.1331   0.5335     N
C        0.652   0.6802    0.205     C
N       0.6624   0.4526   0.8794     N
H       0.6663    0.175   0.9512     H
C       0.6748   0.5924   0.7414     C
H       0.6785   0.4729   0.2714     H
O       0.6862    0.671  0.57813     O
O       0.7432   0.9481  0.42183     O
N       0.7448   0.3116   0.5453     N
C       0.7533   0.1328    0.921     C
H       0.7559   0.9284   0.9777     H
C        0.759   0.3732   0.8291     C
C       0.7644   0.1439   0.4713     C
N       0.7702    0.456  0.74466     N
Br      0.7809  0.64064  0.10618    Br
C        0.808   0.9854    0.938     C
C       0.8123   0.0413   0.4144     C
C       0.8219   0.2541   0.4778     C
C       0.8281   0.2173   0.8593     C
H       0.8616   0.7882   0.3847     H
Cd     0.86371  0.44684 0.599434    Cd
O       0.8828   0.7172  0.36233     O
H       0.8859   0.0379    0.187     H
H       0.9054   0.6273   0.3867     H
O        0.925   0.0498   0.3597     O
C       0.9388   0.3162   0.4233     C
C       0.9404   0.9241   0.8953     C
O       0.9564    0.426  0.44168     O
H       0.9593   0.1149   0.3647     H
C       0.9651   0.1522   0.8205     C
C       0.9782   0.9947   0.1612     C
H       0.9806   0.7918   0.2183     H
Br     0.98882  0.27623  0.08987    Br
O       0.9899   0.7387  0.63773     O
