data_I
_chemical_name_common  '/home/zhangsd/repos/MofS-CGCNN/ML/data/WS24/clean_cifs/PEWKOT'
_cell_length_a 16.55980
_cell_length_b 17.62110
_cell_length_c 17.62110
_cell_angle_alpha 77.24440
_cell_angle_beta  61.97320
_cell_angle_gamma 61.97310
_space_group_name_H-M_alt      'P 1'


loop_
_space_group_symop_operation_xyz
  'x, y, z' 

loop_
_atom_site_label
_atom_site_fract_x
_atom_site_fract_y
_atom_site_fract_z
_atom_site_type_symbol
H       0.0108   0.3403   0.3569     H
C       0.0127   0.2439   0.4425     C
H       0.0136   0.2372   0.7738     H
N      0.01408  0.07129  0.80395     N
C      0.01681  0.67413  0.03165     C
N      0.01942  0.91825  0.30845     N
C      0.02898  0.10018  0.72326     C
C      0.03093   0.7432  0.03874     C
Cd     0.03223  0.90818   0.4313    Cd
O      0.03743  0.01549  0.04355     O
H       0.0437   0.7215   0.5119     H
C       0.0449  0.28152  0.36368     C
C      0.04846  0.96835  0.17413     C
O      0.05292  0.54355  0.98451     O
N       0.0587  0.15961  0.45699     N
Cd     0.05958  0.06871  0.90818    Cd
O      0.06166  0.47073  0.82235     O
N      0.06233  0.19155  0.91825     N
C       0.0648   0.2232   0.7184     C
C      0.06967  0.96126   0.2432     C
C      0.07893  0.01056  0.09038     C
O      0.08098  0.95645  0.51549     O
N      0.08537  0.30395  0.92871     N
C      0.08741  0.15224  0.67734     C
C      0.08949  0.59038  0.98944     C
O      0.10124  0.52074   0.6887     O
H       0.1018    0.321   0.7048     H
O      0.11599  0.82235  0.02927     O
C       0.1176    0.273   0.6778     C
H       0.1176   0.3885   0.2331     H
C      0.12308  0.75354   0.0143     C
C      0.12338   0.4857  0.75354     C
Cd     0.12829  0.40818   0.9313    Cd
C      0.12851  0.23174  0.29384     C
C      0.12916  0.22326  0.89982     C
H        0.134   0.4446   0.0984     H
C      0.13648  0.35347  0.18977     C
C      0.13738   0.9857  0.25354     C
C      0.14192  0.11324  0.39212     C
O      0.14392  0.03877  0.06807     O
O      0.14526  0.97073  0.32235     O
C      0.14728  0.38676  0.10788     C
C      0.15409  0.26826  0.20616     C
C       0.1632   0.1313   0.5955     C
C      0.16931  0.90962  0.51056     C
N       0.1753  0.34039  0.04301     N
H        0.177   0.0554   0.4016     H
H       0.1783   0.0842   0.5674     H
C      0.17972  0.14653  0.31023     C
N      0.18197  0.80395  0.42871     N
O      0.18269  0.56807  0.96123     O
Br     0.18814  0.54303  0.18321    Br
O      0.18932  0.02074   0.1887     O
C       0.1901  0.21848  0.13632     C
H       0.1934   0.7048    0.179     H
C       0.1935     0.25    0.597     C
C       0.1991   0.2561   0.0575     C
C       0.2046   0.6778    0.227     C
H        0.208   0.1597   0.1431     H
C       0.2095    0.597     0.25     C
O      0.21006   0.6887  0.97926     O
O      0.21199  0.93193  0.53877     O
H       0.2126   0.7738   0.2628     H
C       0.2168   0.7184   0.2768     C
C       0.2173   0.1809   0.5549     C
N      0.21831  0.95699  0.84039     N
C      0.22259  0.82587  0.46835     C
H       0.2229   0.2215   0.0119     H
C      0.22587  0.46126   0.7432     C
C       0.2278   0.5549   0.3191     C
H       0.2312   0.4997   0.3329     H
H       0.2324   0.9016   0.9446     H
H       0.2348   0.9881   0.7215     H
C      0.23525  0.67734  0.34776     C
H       0.2392   0.1115   0.2669     H
C      0.23965  0.17734  0.84776     C
C       0.2413   0.5955   0.3687     C
C      0.24776  0.72326  0.39982     C
O      0.24924  0.53877  0.56807     O
H       0.2508   0.2738   0.7628     H
N      0.25388  0.41825  0.80845     N
H       0.2543   0.5674   0.4158     H
C      0.25516  0.89212  0.88676     C
C       0.2566   0.9425   0.7561     C
H       0.2625   0.0674   0.9158     H
Br     0.26883  0.31679  0.54303    Br
H       0.2691   0.1671   0.4997     H
C        0.288   0.2184   0.7768     C
C       0.2945   0.0955   0.8687     C
C      0.30906  0.46835  0.67413     C
C      0.31287   0.7568  0.46126     C
C      0.32013  0.51056  0.59038     C
C      0.32625  0.81023  0.85347     C
C      0.32642  0.86368  0.71848     C
N      0.32787  0.69155  0.41825     N
H       0.3299   0.4158   0.9326     H
H       0.3507   0.7669   0.8885     H
H       0.3511   0.8569   0.6597     H
C      0.35242  0.39982  0.77674     C
C      0.36025  0.79384  0.76826     C
H       0.3677   0.6431   0.8403     H
Br     0.37135  0.81679  0.04303    Br
H       0.3724    0.821   0.2048     H
O      0.37802   0.8113  0.52074     O
N      0.38932  0.42871  0.69605     N
C         0.39   0.3687   0.9045     C
C       0.3906   0.1778    0.727     C
C      0.39092  0.74646   0.4857     C
C       0.3982   0.0549   0.8191     C
O      0.40353  0.51549  0.54355     O
C      0.40858  0.63632  0.78152     C
Br     0.41438  0.95697  0.31679    Br
C      0.41699  0.34776  0.82266     C
H       0.4214   0.4016   0.4446     H
C      0.42235  0.70616  0.73174     C
H       0.4228   0.2048    0.679     H
C       0.4316    0.773   0.1778     C
H       0.4359   0.3329   0.0003     H
H       0.4362   0.9997   0.8329     H
C       0.4435    0.097     0.75     C
H       0.4444   0.5119   0.7785     H
C       0.4531   0.3191   0.9451     C
C       0.4552   0.5575   0.7439     C
C       0.4595     0.75    0.097     C
Cd     0.46352  0.56871  0.40818    Cd
C      0.46596  0.39212  0.38676     C
O      0.46761  0.67765  0.47073     O
H       0.4754   0.7372   0.2738     H
N      0.48431  0.45699  0.34039     N
C      0.48995  0.68977  0.64653     C
C       0.4936   0.7232   0.2184     C
H       0.4939   0.2669   0.3885     H
H       0.5061   0.7331   0.6115     H
C       0.5064   0.2768   0.7816     C
C      0.51005  0.31023  0.35347     C
N      0.51569  0.54301  0.65961     N
H       0.5246   0.2628   0.7262     H
O      0.53239  0.32235  0.52927     O
C      0.53404  0.60788  0.61324     C
Cd     0.53648  0.43129  0.59182    Cd
C       0.5405     0.25    0.903     C
C       0.5448   0.4425   0.2561     C
C       0.5469   0.6809   0.0549     C
H       0.5556   0.4881   0.2215     H
C       0.5565    0.903     0.25     C
H       0.5638   0.0003   0.1671     H
H       0.5641   0.6671   0.9997     H
C       0.5684    0.227   0.8222     C
H       0.5772   0.7952    0.321     H
C      0.57765  0.29384  0.26826     C
H       0.5786   0.5984   0.5554     H
C      0.58301  0.65224  0.17734     C
Br     0.58562  0.04303  0.68321    Br
C      0.59142  0.36368  0.21848     C
O      0.59647  0.48451  0.45645     O
C       0.6018   0.9451   0.1809     C
C      0.60908  0.25354   0.5143     C
C       0.6094   0.8222    0.273     C
C         0.61   0.6313   0.0955     C
N      0.61068  0.57129  0.30395     N
O      0.62198   0.1887  0.47926     O
H       0.6276    0.179   0.7952     H
Br     0.62865  0.18321  0.95697    Br
H       0.6323   0.3569   0.1597     H
C      0.63975  0.20616  0.23174     C
C      0.64758  0.60018  0.22326     C
H       0.6489   0.1431   0.3403     H
H       0.6493   0.2331   0.1115     H
H       0.6701   0.5842   0.0674     H
N      0.67213  0.30845  0.58175     N
C      0.67358  0.13632  0.28152     C
C      0.67375  0.18977  0.14653     C
C      0.67987  0.48944  0.40962     C
C      0.68713   0.2432  0.53874     C
C      0.69094  0.53165  0.32587     C
C       0.7055   0.9045   0.1313     C
C        0.712   0.7816   0.2232     C
H       0.7309   0.8329   0.5003     H
Br     0.73117  0.68321  0.45697    Br
H       0.7375   0.9326   0.0842     H
C       0.7434   0.0575   0.2439     C
C      0.74484  0.10788  0.11324     C
H       0.7457   0.4326   0.5842     H
N      0.74612  0.58175  0.19155     N
H       0.7492   0.7262   0.2372     H
O      0.75076  0.46123  0.43193     O
C      0.75224  0.27674  0.60018     C
C       0.7587   0.4045   0.6313     C
C      0.76035  0.82266  0.15224     C
H       0.7608   0.8885   0.7331     H
C      0.76475  0.32266  0.65224     C
H       0.7652   0.0119   0.2785     H
H       0.7676   0.0984   0.0554     H
H       0.7688   0.5003   0.6671     H
C       0.7722   0.4451   0.6809     C
C      0.77413  0.53874   0.2568     C
H       0.7771   0.7785   0.9881     H
C      0.77741  0.17413  0.53165     C
N      0.78169  0.04301  0.15961     N
C       0.7827   0.8191   0.4451     C
C       0.7832   0.2816   0.7232     C
H       0.7874   0.2262   0.7372     H
O      0.78801  0.06807  0.46123     O
O      0.78994   0.3113  0.02074     O
C       0.7905    0.403     0.75     C
H        0.792   0.8403   0.8569     H
C       0.7954   0.3222    0.773     C
C       0.8009   0.7439   0.9425     C
C       0.8065     0.75    0.403     C
H       0.8066   0.2952    0.821     H
C       0.8099  0.78152  0.86368     C
O      0.81068  0.97926   0.8113     O
Br     0.81186  0.45697  0.81679    Br
O      0.81731  0.43193  0.03877     O
N      0.81803  0.19605  0.57129     N
C      0.82028  0.85347  0.68977     C
H       0.8217   0.9158   0.4326     H
H        0.823   0.9446   0.5984     H
N       0.8247  0.65961  0.95699     N
C      0.83069  0.09038  0.48944     C
C       0.8368   0.8687   0.4045     C
C      0.84591  0.73174  0.79384     C
C      0.85272  0.61324  0.89212     C
O      0.85474  0.02927  0.67765     O
O      0.85608  0.96123  0.93193     O
C      0.85808  0.88676  0.60788     C
C      0.86262   0.0143  0.74646     C
C      0.86352  0.64653  0.81023     C
H        0.866   0.5554   0.9016     H
C      0.87084  0.77674  0.10018     C
C      0.87149  0.76826  0.70616     C
Cd     0.87171  0.59182   0.0687    Cd
C      0.87662   0.5143  0.24646     C
C      0.87692  0.24646   0.9857     C
H       0.8824   0.6115   0.7669     H
C       0.8824    0.727   0.3222     C
O      0.88401  0.17765  0.97073     O
H       0.8982    0.679   0.2952     H
O      0.89876  0.47926   0.3113     O
C      0.91051  0.40962  0.01056     C
C      0.91259  0.84776  0.32266     C
N      0.91463  0.69605  0.07129     N
O      0.91902  0.04355  0.48451     O
C      0.92107  0.98944  0.90962     C
C      0.93033  0.03874   0.7568     C
C       0.9352   0.7768   0.2816     C
N      0.93767  0.80845  0.08175     N
O      0.93834  0.52927  0.17765     O
Cd     0.94042  0.93129  0.09182    Cd
N       0.9413  0.84039  0.54301     N
O      0.94708  0.45645  0.01549     O
C      0.95154  0.03165  0.82587     C
C       0.9551  0.71848  0.63632     C
H       0.9563   0.2785   0.4881     H
O      0.96257  0.98451  0.95645     O
Cd     0.96777  0.09182   0.5687    Cd
C      0.96907   0.2568  0.96126     C
C      0.97102  0.89982  0.27674     C
N      0.98058  0.08175  0.69155     N
C      0.98319  0.32587  0.96835     C
N      0.98592  0.92871  0.19605     N
H       0.9864   0.7628   0.2262     H
C       0.9873   0.7561   0.5575     C
H       0.9892   0.6597   0.6431     H
