data_I
_chemical_name_common  '/home/zhangsd/repos/MofS-CGCNN/ML/data/WS24/clean_cifs/PEWLEK'
_cell_length_a  6.94207
_cell_length_b  6.94207
_cell_length_c 12.89770
_cell_angle_alpha 90.00000
_cell_angle_beta  90.00000
_cell_angle_gamma 107.62717
_space_group_name_H-M_alt      'P 1'


loop_
_space_group_symop_operation_xyz
  'x, y, z' 

loop_
_atom_site_label
_atom_site_fract_x
_atom_site_fract_y
_atom_site_fract_z
_atom_site_type_symbol
C       0.0078    0.481    0.621     C
C       0.0078    0.481    0.879     C
C       0.0127   0.9847   0.6566     C
C       0.0127   0.9847   0.8434     C
C       0.0153   0.9873   0.1566     C
C       0.0153   0.9873   0.3434     C
H       0.0518   0.0552   0.0941     H
H       0.0518   0.0552   0.4059     H
C       0.0654   0.0898     0.25     C
O         0.19   0.5554   0.6535     O
O         0.19   0.5554   0.8465     O
Br     0.19722  0.36994     0.25    Br
C       0.2163   0.0893   0.6576     C
C       0.2163   0.0893   0.8424     C
H       0.2843   0.1229   0.5948     H
H       0.2843   0.1229   0.9052     H
C       0.3235   0.1463     0.75     C
O       0.4446     0.81   0.1535     O
O       0.4446     0.81   0.3465     O
H         0.46     0.52   0.5665     H
H         0.46     0.52   0.9335     H
O       0.4757   0.5243      0.0     O
O       0.4757   0.5243      0.5     O
H         0.48     0.54   0.0665     H
H         0.48     0.54   0.4335     H
C        0.519   0.9922    0.121     C
C        0.519   0.9922    0.379     C
O       0.5347   0.0365   0.0263     O
O       0.5347   0.0365   0.4737     O
C       0.5368   0.2584     0.75     C
C       0.5946   0.1558   0.1965     C
C       0.5946   0.1558   0.3035     C
Br     0.63006  0.80278     0.75    Br
N       0.6524    0.314   0.6624     N
N       0.6524    0.314   0.8376     N
Zn       0.657    0.343      0.0    Zn
Zn       0.657    0.343      0.5    Zn
N        0.686   0.3476   0.1624     N
N        0.686   0.3476   0.3376     N
C       0.7416   0.4632     0.25     C
C       0.8442   0.4054   0.6965     C
C       0.8442   0.4054   0.8035     C
C       0.8537   0.6765     0.25     C
H       0.8771   0.7157   0.0948     H
H       0.8771   0.7157   0.4052     H
C       0.9102   0.9346     0.75     C
C       0.9107   0.7837   0.1576     C
C       0.9107   0.7837   0.3424     C
H       0.9448   0.9482   0.5941     H
H       0.9448   0.9482   0.9059     H
O       0.9635   0.4653   0.5263     O
O       0.9635   0.4653   0.9737     O
