data_I
_chemical_name_common  '/home/zhangsd/repos/MofS-CGCNN/ML/data/WS24/clean_cifs/PEWLAG'
_cell_length_a  9.88240
_cell_length_b  9.97760
_cell_length_c 13.76000
_cell_angle_alpha 90.00000
_cell_angle_beta  90.00000
_cell_angle_gamma 113.22300
_space_group_name_H-M_alt      'P 1'


loop_
_space_group_symop_operation_xyz
  'x, y, z' 

loop_
_atom_site_label
_atom_site_fract_x
_atom_site_fract_y
_atom_site_fract_z
_atom_site_type_symbol
C       0.0114   0.3272  0.02644     C
C       0.0114   0.8272  0.47356     C
H         0.02    0.321    0.094     H
H         0.02    0.821    0.406     H
C       0.0274   0.1564  0.32627     C
C       0.0274   0.6564  0.17373     C
H        0.037     0.15    0.261     H
H        0.037     0.65    0.239     H
C       0.1128   0.3799  0.86378     C
C       0.1128   0.8799  0.63622     C
C       0.1278   0.2067  0.48821     C
C       0.1278   0.7067  0.01179     C
C       0.1295   0.3696  0.96299     C
C       0.1295   0.8696  0.53701     C
C       0.1487   0.2005  0.38845     C
C       0.1487   0.7005  0.11155     C
H        0.193    0.405    0.821     H
H        0.193    0.905    0.679     H
O      0.20465  0.10344  0.83688     O
O      0.20465  0.60344  0.66312     O
H        0.207    0.227   0.5294     H
H        0.207    0.727   0.9706     H
H        0.257    0.195    0.756     H
H        0.257    0.695    0.744     H
H        0.269    0.134    0.226     H
H        0.269    0.634    0.274     H
O      0.29788  0.26097  0.69417     O
O      0.29788  0.76097  0.80583     O
C       0.2983    0.239  0.35261     C
C       0.2983    0.739  0.14739     C
O      0.30087  0.01691  0.95592     O
O      0.30087  0.51691  0.54408     O
C       0.3128  0.09364   0.8821     C
C       0.3128  0.59364   0.6179     C
Br     0.32091  0.41786  0.01456    Br
Br     0.32091  0.91786  0.48544    Br
N      0.33357  0.18756  0.26918     N
N      0.33357  0.68756  0.23082     N
N      0.41995  0.32343  0.40001     N
N      0.41995  0.82343  0.09999     N
C       0.4377   0.3018  0.68571     C
C       0.4377   0.8018  0.81429     C
C       0.4639   0.1779  0.84593     C
C       0.4639   0.6779  0.65407     C
C       0.4842   0.2381   0.2641     C
C       0.4842   0.7381   0.2359     C
O      0.48816  0.12613  0.11669     O
O      0.48816  0.62613  0.38331     O
Co         0.5      0.0      0.0    Co
Co         0.5      0.5      0.5    Co
O      0.51184  0.37387  0.61669     O
O      0.51184  0.87387  0.88331     O
C       0.5158   0.2619   0.7641     C
C       0.5158   0.7619   0.7359     C
C       0.5361   0.3221  0.34593     C
C       0.5361   0.8221  0.15407     C
C       0.5623   0.1982  0.18571     C
C       0.5623   0.6982  0.31429     C
N      0.58005  0.17657  0.90001     N
N      0.58005  0.67657  0.59999     N
N      0.66643  0.31244  0.76918     N
N      0.66643  0.81244  0.73082     N
Br     0.67909  0.08214  0.51456    Br
Br     0.67909  0.58214  0.98544    Br
C       0.6872  0.40636   0.3821     C
C       0.6872  0.90636   0.1179     C
O      0.69913  0.48309  0.45592     O
O      0.69913  0.98309  0.04408     O
C       0.7017    0.261  0.85261     C
C       0.7017    0.761  0.64739     C
O      0.70212  0.23903  0.19417     O
O      0.70212  0.73903  0.30583     O
H        0.731    0.366    0.726     H
H        0.731    0.866    0.774     H
H        0.743    0.305    0.256     H
H        0.743    0.805    0.244     H
H        0.793    0.273   0.0294     H
H        0.793    0.773   0.4706     H
O      0.79535  0.39656  0.33688     O
O      0.79535  0.89656  0.16312     O
H        0.807    0.095    0.321     H
H        0.807    0.595    0.179     H
C       0.8513   0.2995  0.88845     C
C       0.8513   0.7995  0.61155     C
C       0.8705   0.1304  0.46299     C
C       0.8705   0.6304  0.03701     C
C       0.8722   0.2933  0.98821     C
C       0.8722   0.7933  0.51179     C
C       0.8872   0.1201  0.36378     C
C       0.8872   0.6201  0.13622     C
H        0.963     0.35    0.761     H
H        0.963     0.85    0.739     H
C       0.9726   0.3436  0.82627     C
C       0.9726   0.8436  0.67373     C
H         0.98    0.179    0.594     H
H         0.98    0.679    0.906     H
C       0.9886   0.1728  0.52644     C
C       0.9886   0.6728  0.97356     C
