data_I
_chemical_name_common  '/home/zhangsd/repos/MofS-CGCNN/ML/data/WS24/clean_cifs/PEWLOU'
_cell_length_a  6.91020
_cell_length_b 12.92270
_cell_length_c 15.44960
_cell_angle_alpha 102.90800
_cell_angle_beta  90.00000
_cell_angle_gamma 90.00000
_space_group_name_H-M_alt      'P 1'


loop_
_space_group_symop_operation_xyz
  'x, y, z' 

loop_
_atom_site_label
_atom_site_fract_x
_atom_site_fract_y
_atom_site_fract_z
_atom_site_type_symbol
H        0.002    0.268    0.879     H
H        0.004    0.579     0.42     H
C       0.0059   0.9614  0.32293     C
O        0.006  0.20034  0.55785     O
C       0.0081   0.3387   0.8748     C
H        0.026    0.851    0.739     H
C       0.0581   0.5402   0.8473     C
H        0.068    0.609    0.842     H
O       0.0812  0.78489   0.7319     O
N       0.0859    0.019  0.26705     N
H        0.096    0.368     0.29     H
C          0.1   0.5182   0.1898     C
O       0.1105  0.58031  0.44981     O
H        0.122    0.514    0.454     H
C       0.1236   0.6204   0.1761     C
C       0.1363   0.8856  0.33688     C
C       0.1469   0.8183   0.4035     C
Ca     0.15412  0.73279  0.56657    Ca
Br      0.1577  0.84009  0.98019    Br
C        0.161   0.3993   0.9123     C
H        0.186     0.79    0.761     H
C       0.1885   0.4996    0.899     C
O       0.1898  0.28632  0.42138     O
C       0.1931   0.0126  0.64005     C
H        0.195    0.034    0.918     H
O       0.1961  0.58693  0.63566     O
N       0.2043   0.3975   0.2866     N
O       0.2382  0.91581  0.61806     O
H        0.239    0.658    0.195     H
C       0.2393   0.4781  0.24665     C
C       0.2607   0.9781  0.24665     C
H        0.261    0.158    0.195     H
O       0.2618  0.41581  0.61806     O
N       0.2957   0.8975   0.2866     N
O       0.3039  0.08693  0.63566     O
H        0.305    0.534    0.918     H
C       0.3069   0.5126  0.64005     C
O       0.3102  0.78632  0.42138     O
C       0.3115   0.9996    0.899     C
H        0.314     0.29    0.761     H
C        0.339   0.8993   0.9123     C
Br      0.3423  0.34009  0.98019    Br
Ca     0.34588  0.23279  0.56657    Ca
C       0.3531   0.3183   0.4035     C
C       0.3637   0.3856  0.33688     C
C       0.3764   0.1204   0.1761     C
H        0.378    0.014    0.454     H
O       0.3895  0.08031  0.44981     O
C          0.4   0.0182   0.1898     C
H        0.404    0.868     0.29     H
N       0.4141    0.519  0.26705     N
O       0.4188  0.28489   0.7319     O
H        0.432    0.109    0.842     H
C       0.4419   0.0402   0.8473     C
H        0.474    0.351    0.739     H
C       0.4919   0.8387   0.8748     C
O        0.494  0.70034  0.55785     O
C       0.4941   0.4614  0.32293     C
H        0.496    0.079     0.42     H
H        0.498    0.768    0.879     H
H        0.502    0.232    0.121     H
H        0.504    0.921     0.58     H
C       0.5059   0.5386  0.67707     C
O        0.506  0.29966  0.44215     O
C       0.5081   0.1613   0.1252     C
H        0.526    0.649    0.261     H
C       0.5581   0.9598   0.1527     C
H        0.568    0.891    0.158     H
O       0.5812  0.71511   0.2681     O
N       0.5859    0.481  0.73295     N
H        0.596    0.132     0.71     H
C          0.6   0.9818   0.8102     C
O       0.6105  0.91969  0.55019     O
H        0.622    0.986    0.546     H
C       0.6236   0.8796   0.8239     C
C       0.6363   0.6144  0.66312     C
C       0.6469   0.6817   0.5965     C
Ca     0.65412  0.76721  0.43343    Ca
Br      0.6577  0.65991  0.01981    Br
C        0.661   0.1007   0.0877     C
H        0.686     0.71    0.239     H
C       0.6885   0.0004    0.101     C
O       0.6898  0.21368  0.57862     O
C       0.6931   0.4874  0.35995     C
H        0.695    0.466    0.082     H
O       0.6961  0.91307  0.36434     O
N       0.7043   0.1025   0.7134     N
O       0.7382  0.58419  0.38194     O
H        0.739    0.842    0.805     H
C       0.7393   0.0219  0.75335     C
C       0.7607   0.5219  0.75335     C
H        0.761    0.342    0.805     H
O       0.7618  0.08419  0.38194     O
N       0.7957   0.6025   0.7134     N
O       0.8039  0.41307  0.36434     O
H        0.805    0.966    0.082     H
C       0.8069   0.9874  0.35995     C
O       0.8102  0.71368  0.57862     O
C       0.8115   0.5004    0.101     C
H        0.814     0.21    0.239     H
C        0.839   0.6007   0.0877     C
Br      0.8423  0.15991  0.01981    Br
Ca     0.84588  0.26721  0.43343    Ca
C       0.8531   0.1817   0.5965     C
C       0.8637   0.1144  0.66312     C
C       0.8764   0.3796   0.8239     C
H        0.878    0.486    0.546     H
O       0.8895  0.41969  0.55019     O
C          0.9   0.4818   0.8102     C
H        0.904    0.632     0.71     H
N       0.9141    0.981  0.73295     N
O       0.9188  0.21511   0.2681     O
H        0.932    0.391    0.158     H
C       0.9419   0.4598   0.1527     C
H        0.974    0.149    0.261     H
C       0.9919   0.6613   0.1252     C
O        0.994  0.79966  0.44215     O
C       0.9941   0.0386  0.67707     C
H        0.996    0.421     0.58     H
H        0.998    0.732    0.121     H
