data_I
_chemical_name_common  '/home/zhangsd/repos/MofS-CGCNN/ML/data/WS24/clean_cifs/PUQGUE'
_cell_length_a 12.49870
_cell_length_b 13.63360
_cell_length_c 19.16000
_cell_angle_alpha 90.00000
_cell_angle_beta  90.00000
_cell_angle_gamma 111.63300
_space_group_name_H-M_alt      'P 1'


loop_
_space_group_symop_operation_xyz
  'x, y, z' 

loop_
_atom_site_label
_atom_site_fract_x
_atom_site_fract_y
_atom_site_fract_z
_atom_site_type_symbol
C       0.0155   0.4215   0.0905     C
C       0.0155   0.9215   0.4095     C
Co     0.03018  0.20478  0.05253    Co
Co     0.03018  0.70478  0.44747    Co
H       0.0341   0.4606    0.134     H
H       0.0341   0.9606    0.366     H
H       0.0346   0.0527   0.5638     H
H       0.0346   0.5527   0.9362     H
O       0.0426    0.188  0.60501     O
O       0.0426    0.688  0.89499     O
C        0.049   0.2464   0.4113     C
C        0.049   0.7464   0.0887     C
H        0.052   0.2118   0.2738     H
O        0.052    0.312  0.89402     O
H        0.052   0.7118   0.2262     H
O        0.052    0.812  0.60598     O
O       0.0748   0.2961  0.46856     O
O       0.0748   0.7961  0.03144     O
O       0.0942    0.192  0.14899     O
O       0.0942    0.692  0.35101     O
O       0.0973   0.4398  0.57158     O
O       0.0973   0.9398  0.92842     O
H       0.0975     0.44   0.6194     H
H       0.0975     0.94   0.8806     H
H       0.1035   0.1087    0.965     H
H       0.1035   0.6087    0.535     H
H        0.116   0.2304   0.7298     H
H        0.116   0.7304   0.7702     H
C        0.125   0.4394   0.0498     C
C        0.125   0.9394   0.4502     C
C        0.127    0.238   0.2909     C
C        0.127    0.738   0.2091     C
O       0.1438   0.1707  0.99042     O
O       0.1438   0.6707  0.50958     O
C       0.1461   0.2603   0.3613     C
C       0.1461   0.7603   0.1387     C
O       0.1479   0.3586  0.03472     O
O       0.1479   0.8586  0.46528     O
H       0.1523   0.0132   0.1093     H
H       0.1523   0.5132   0.3907     H
C       0.1554   0.2146   0.6294     C
C       0.1554   0.7146   0.8706     C
H       0.1707   0.4534    0.558     H
H       0.1707   0.9534    0.942     H
C       0.1758   0.2341   0.6998     C
C       0.1758   0.7341   0.8002     C
O       0.1843    0.032  0.46535     O
O       0.1843    0.532  0.03465     O
C       0.1971   0.2317   0.1686     C
C       0.1971   0.7317   0.3314     C
Co     0.21089  0.31764  0.93827    Co
Co     0.21089  0.81764  0.56173    Co
O       0.2144   0.0269  0.08191     O
O       0.2144   0.5269  0.41809     O
H       0.2156   0.4666   0.4359     H
H       0.2156   0.9666   0.0641     H
C       0.2185   0.2541   0.2454     C
C       0.2185   0.7541   0.2546     C
O       0.2251   0.2564  0.84195     O
O       0.2251   0.7564  0.65805     O
H       0.2259   0.2066   0.5364     H
H       0.2259   0.7066   0.9636     H
C       0.2421   0.2218   0.5834     C
C       0.2421   0.7218   0.9166     C
C       0.2584   0.2983   0.3876     C
C       0.2584   0.7983   0.1124     C
H       0.2629   0.0137   0.5508     H
H       0.2629   0.5137   0.9492     H
H        0.272   0.3139   0.4348     H
H        0.272   0.8139   0.0652     H
O       0.2841   0.2516   0.1297     O
O       0.2841   0.7516   0.3703     O
O       0.2856   0.4816  0.91399     O
O       0.2856   0.9816  0.58601     O
C       0.2872   0.2594   0.7254     C
C       0.2872   0.7594   0.7746     C
Co     0.29518  0.17769   0.0353    Co
Co     0.29518  0.67769   0.4647    Co
C       0.3105   0.2726   0.8022     C
C       0.3105   0.7726   0.6978     C
O       0.3238   0.4568   0.5378     O
O       0.3238   0.9568   0.9622     O
H       0.3289    0.088   0.4082     H
H       0.3289    0.588   0.0918     H
C       0.3312   0.2918   0.2716     C
C       0.3312   0.7918   0.2284     C
C       0.3492   0.3123   0.3422     C
C       0.3492   0.8123   0.1578     C
O       0.3504   0.1237  0.93902     O
O       0.3504   0.6237  0.56098     O
H       0.3551   0.0895   0.3449     H
C       0.3551   0.2522   0.6079     C
H       0.3551   0.5895   0.1551     H
C       0.3551   0.7522   0.8921     C
H       0.3628   0.0078   0.5871     H
H       0.3628   0.5078   0.9129     H
O       0.3648   0.3193  0.97746     O
O       0.3648   0.8193  0.52254     O
C       0.3768   0.2692   0.6788     C
C       0.3768   0.7692   0.8212     C
C        0.379   0.0441   0.9367     C
C        0.379   0.5441   0.5633     C
O       0.3838   0.0939  0.38321     O
O       0.3838   0.5939  0.11679     O
H       0.3932    0.303   0.2417     H
H       0.3932    0.803   0.2583     H
H       0.4055   0.3736   0.0046     H
H       0.4055   0.8736   0.4954     H
O       0.4127   0.2962   0.8214     O
O       0.4127   0.7962   0.6786     O
O       0.4234   0.2261  0.49785     O
O       0.4234   0.7261  0.00215     O
O       0.4481   0.1859  0.07961     O
O       0.4481   0.6859  0.42039     O
C       0.4513   0.2656   0.5579     C
C       0.4513   0.7656   0.9421     C
H       0.4515   0.2872   0.6954     H
H       0.4515   0.7872   0.8046     H
H        0.454   0.4494   0.4342     H
H        0.454   0.9494   0.0658     H
O       0.4621   0.3429  0.36649     O
O       0.4621   0.8429  0.13351     O
Co     0.47219  0.27355  0.91592    Co
Co     0.47219  0.77355  0.58408    Co
H       0.4776   0.0011    0.866     H
H       0.4776   0.5011    0.634     H
C       0.4912   0.0568   0.9003     C
C       0.4912   0.5568   0.5997     C
C       0.5088   0.4432   0.4003     C
C       0.5088   0.9432   0.0997     C
H       0.5224   0.4989    0.366     H
H       0.5224   0.9989    0.134     H
Co     0.52781  0.22645  0.41592    Co
Co     0.52781  0.72645  0.08408    Co
O       0.5379   0.1571  0.86649     O
O       0.5379   0.6571  0.63351     O
H        0.546   0.0506   0.9342     H
H        0.546   0.5506   0.5658     H
H       0.5485   0.2128   0.1954     H
H       0.5485   0.7128   0.3046     H
C       0.5487   0.2344   0.0579     C
C       0.5487   0.7344   0.4421     C
O       0.5519   0.3141  0.57961     O
O       0.5519   0.8141  0.92039     O
O       0.5766   0.2739  0.99785     O
O       0.5766   0.7739  0.50215     O
O       0.5873   0.2038   0.3214     O
O       0.5873   0.7038   0.1786     O
H       0.5945   0.1264   0.5046     H
H       0.5945   0.6264   0.9954     H
H       0.6068    0.197   0.7417     H
H       0.6068    0.697   0.7583     H
O       0.6162   0.4061  0.88321     O
O       0.6162   0.9061  0.61679     O
C        0.621   0.4559   0.4367     C
C        0.621   0.9559   0.0633     C
C       0.6232   0.2308   0.1788     C
C       0.6232   0.7308   0.3212     C
O       0.6352   0.1807  0.47746     O
O       0.6352   0.6807  0.02254     O
H       0.6372   0.4922   0.0871     H
H       0.6372   0.9922   0.4129     H
C       0.6449   0.2478   0.1079     C
H       0.6449   0.4105   0.8449     H
C       0.6449   0.7478   0.3921     C
H       0.6449   0.9105   0.6551     H
O       0.6496   0.3763  0.43902     O
O       0.6496   0.8763  0.06098     O
C       0.6508   0.1877   0.8422     C
C       0.6508   0.6877   0.6578     C
C       0.6688   0.2082   0.7716     C
C       0.6688   0.7082   0.7284     C
H       0.6711    0.412   0.9082     H
H       0.6711    0.912   0.5918     H
O       0.6762   0.0432   0.0378     O
O       0.6762   0.5432   0.4622     O
C       0.6895   0.2274   0.3022     C
C       0.6895   0.7274   0.1978     C
Co     0.70482  0.32231   0.5353    Co
Co     0.70482  0.82231   0.9647    Co
C       0.7128   0.2406   0.2254     C
C       0.7128   0.7406   0.2746     C
O       0.7144   0.0184  0.41399     O
O       0.7144   0.5184  0.08601     O
O       0.7159   0.2484   0.6297     O
O       0.7159   0.7484   0.8703     O
H        0.728   0.1861   0.9348     H
H        0.728   0.6861   0.5652     H
H       0.7371   0.4863   0.0508     H
H       0.7371   0.9863   0.4492     H
C       0.7416   0.2017   0.8876     C
C       0.7416   0.7017   0.6124     C
C       0.7579   0.2782   0.0834     C
C       0.7579   0.7782   0.4166     C
H       0.7741   0.2934   0.0364     H
H       0.7741   0.7934   0.4636     H
O       0.7749   0.2436  0.34195     O
O       0.7749   0.7436  0.15805     O
C       0.7815   0.2459   0.7454     C
C       0.7815   0.7459   0.7546     C
H       0.7844   0.0334   0.9359     H
H       0.7844   0.5334   0.5641     H
O       0.7856   0.4731  0.58191     O
O       0.7856   0.9731  0.91809     O
Co     0.78911  0.18236  0.43827    Co
Co     0.78911  0.68236  0.06173    Co
C       0.8029   0.2683   0.6686     C
C       0.8029   0.7683   0.8314     C
O       0.8157    0.468  0.96535     O
O       0.8157    0.968  0.53465     O
C       0.8242   0.2659   0.1998     C
C       0.8242   0.7659   0.3002     C
H       0.8293   0.0466    0.058     H
H       0.8293   0.5466    0.442     H
C       0.8446   0.2854   0.1294     C
C       0.8446   0.7854   0.3706     C
H       0.8477   0.4868   0.6093     H
H       0.8477   0.9868   0.8907     H
O       0.8521   0.1414  0.53472     O
O       0.8521   0.6414  0.96528     O
C       0.8539   0.2397   0.8613     C
C       0.8539   0.7397   0.6387     C
O       0.8562   0.3293  0.49042     O
O       0.8562   0.8293  0.00958     O
C        0.873    0.262   0.7909     C
C        0.873    0.762   0.7091     C
C        0.875   0.0606   0.5498     C
C        0.875   0.5606   0.9502     C
H        0.884   0.2696   0.2298     H
H        0.884   0.7696   0.2702     H
H       0.8965   0.3913    0.465     H
H       0.8965   0.8913    0.035     H
H       0.9025     0.06   0.1194     H
H       0.9025     0.56   0.3806     H
O       0.9027   0.0602  0.07158     O
O       0.9027   0.5602  0.42842     O
O       0.9058    0.308  0.64899     O
O       0.9058    0.808  0.85101     O
O       0.9252   0.2039  0.96856     O
O       0.9252   0.7039  0.53144     O
O        0.948    0.188  0.39402     O
H        0.948   0.2882   0.7738     H
O        0.948    0.688  0.10598     O
H        0.948   0.7882   0.7262     H
C        0.951   0.2536   0.9113     C
C        0.951   0.7536   0.5887     C
O       0.9574    0.312  0.10501     O
O       0.9574    0.812  0.39499     O
H       0.9654   0.4473   0.0638     H
H       0.9654   0.9473   0.4362     H
H       0.9659   0.0394    0.634     H
H       0.9659   0.5394    0.866     H
Co     0.96982  0.29522  0.55253    Co
Co     0.96982  0.79522  0.94747    Co
C       0.9845   0.0785   0.5905     C
C       0.9845   0.5785   0.9095     C
