data_I
_chemical_name_common  '/home/zhangsd/repos/MofS-CGCNN/ML/data/WS24/clean_cifs/PURNAT'
_cell_length_a 10.75590
_cell_length_b 25.77090
_cell_length_c 26.09620
_cell_angle_alpha 90.00000
_cell_angle_beta  90.00000
_cell_angle_gamma 95.30600
_space_group_name_H-M_alt      'P 1'


loop_
_space_group_symop_operation_xyz
  'x, y, z' 

loop_
_atom_site_label
_atom_site_fract_x
_atom_site_fract_y
_atom_site_fract_z
_atom_site_type_symbol
H       0.0031   0.3651   0.0706     H
H       0.0031   0.8651   0.4294     H
O       0.0082   0.2144   0.3926     O
O       0.0082   0.7144   0.1074     O
Co     0.00963  0.21812  0.31762    Co
Co     0.00963  0.71812  0.18238    Co
O         0.01   0.3584   0.8162     O
O         0.01   0.8584   0.6838     O
C        0.017   0.4722    0.045     C
C        0.017   0.9722    0.455     C
H       0.0173   0.0289   0.2407     H
H       0.0173   0.5289   0.2593     H
H        0.019   0.0334    0.856     H
H        0.019   0.5334    0.644     H
O       0.0197   0.4999   0.7505     O
O       0.0197   0.9999   0.7495     O
C         0.02    0.478    0.953     C
C         0.02    0.978    0.547     C
C       0.0224   0.3901   0.0958     C
C       0.0224   0.8901   0.4042     C
O       0.0279     0.21   0.8179     O
O       0.0279     0.71   0.6821     O
N       0.0297    0.444    0.089     N
N       0.0297    0.944    0.411     N
O       0.0313   0.1091   0.7791     O
O       0.0313   0.6091   0.7209     O
C       0.0334   0.4509   0.9971     C
C       0.0334   0.9509   0.5029     C
H        0.036   0.4629   0.9215     H
H        0.036   0.9629   0.5785     H
O       0.0465    0.281   0.7459     O
O       0.0465    0.781   0.7541     O
C       0.0492   0.3802    0.147     C
C       0.0492   0.8802    0.353     C
H       0.0509   0.3475    0.162     H
H       0.0509   0.8475    0.338     H
C        0.053   0.0367    0.966     C
C        0.053   0.5367    0.534     C
H       0.0543   0.4168    0.995     H
H       0.0543   0.9168    0.505     H
C        0.061   0.4675   0.1361     C
C        0.061   0.9675   0.3639     C
O       0.0618   0.2445   0.6469     O
O       0.0618   0.7445   0.8531     O
C        0.062   0.4897   0.4553     C
C        0.062   0.9897   0.0447     C
C       0.0664   0.4695   0.3624     C
C       0.0664   0.9695   0.1376     C
H       0.0719   0.0031   0.3576     H
H       0.0719   0.5031   0.1424     H
N       0.0731    0.428   0.1719     N
N       0.0731    0.928   0.3281     N
H       0.0885   0.0619   0.9434     H
H       0.0885   0.5619   0.5566     H
O       0.0892   0.3092   0.9884     O
O       0.0892   0.8092   0.5116     O
H       0.0979   0.4974   0.7487     H
H       0.0979   0.9974   0.7513     H
Co      0.1123  0.44414  0.25007    Co
Co      0.1123  0.94414  0.24993    Co
C        0.114   0.0258   0.0094     C
C        0.114   0.5258   0.4906     C
N       0.1237   0.4819   0.4094     N
N       0.1237   0.9819   0.0906     N
W      0.13156  0.16064  0.79646     W
W      0.13156  0.66064  0.70354     W
O       0.1348   0.4547   0.8352     O
O       0.1348   0.9547   0.6648     O
O        0.136   0.3728   0.9041     O
O        0.136   0.8728   0.5959     O
W       0.1453  0.30323  0.92665     W
W       0.1453  0.80323  0.57335     W
W      0.15662   0.2616  0.69738     W
W      0.15662   0.7616  0.80262     W
O       0.1596    0.198   0.7348     O
O       0.1596    0.698   0.7652     O
N       0.1599   0.4623   0.3266     N
N       0.1599   0.9623   0.1734     N
O       0.1604    0.142   0.8688     O
O       0.1604    0.642   0.6312     O
W      0.16829  0.39277  0.83405     W
W      0.16829  0.89277  0.66595     W
O       0.1811   0.2322   0.9235     O
O       0.1811   0.7322   0.5765     O
O       0.1854    0.227   0.3115     O
O       0.1854    0.727   0.1885     O
H       0.1931   0.0427   0.0158     H
H       0.1931   0.5427   0.4842     H
O       0.1986   0.3045   0.8411     O
O       0.1986   0.8045   0.6589     O
O       0.2114   0.3309   0.6798     O
O       0.2114   0.8309   0.8202     O
O        0.221   0.3877   0.7643     O
O        0.221   0.8877   0.7357     O
H       0.2228   0.0087   0.2969     H
H       0.2228   0.5087   0.2031     H
O       0.2255   0.3834   0.2516     O
O       0.2255   0.8834   0.2484     O
H       0.2308   0.3623   0.2269     H
H       0.2308   0.8623   0.2731     H
C       0.2526   0.4823   0.4027     C
C       0.2526   0.9823   0.0973     C
O        0.253   0.4995   0.2315     O
O        0.253   0.9995   0.2685     O
C        0.275   0.4702   0.3516     C
C        0.275   0.9702   0.1484     C
O       0.2757   0.1412   0.9619     O
O       0.2757   0.6412   0.5381     O
O       0.2811   0.1248   0.7844     O
O       0.2811   0.6248   0.7156     O
H       0.2866     0.38   0.2717     H
H       0.2866     0.88   0.2283     H
W      0.28726  0.17921  0.90817     W
W      0.28726  0.67921  0.59183     W
O       0.2995   0.2165    0.826     O
O       0.2995   0.7165    0.674     O
H        0.313   0.4893   0.4279     H
H        0.313   0.9893   0.0721     H
O       0.3138    0.244   0.6659     O
O       0.3138    0.744   0.8341     O
Si      0.3168   0.2786   0.8151    Si
Si      0.3168   0.7786   0.6849    Si
O       0.3185   0.3176   0.9388     O
O       0.3185   0.8176   0.5612     O
O       0.3228   0.2882   0.7534     O
O       0.3228   0.7882   0.7466     O
H       0.3282   0.0129   0.2669     H
H       0.3282   0.5129   0.2331     H
O       0.3425    0.402   0.8505     O
O       0.3425    0.902   0.6495     O
W       0.3447  0.37207  0.71586     W
W       0.3447  0.87207  0.78414     W
O       0.3449   0.1409   0.3202     O
O       0.3449   0.6409   0.1798     O
H       0.3529   0.4678   0.3367     H
H       0.3529   0.9678   0.1633     H
Co     0.35646  0.21847  0.32197    Co
Co     0.35646  0.71847  0.17803    Co
O       0.3581   0.4261   0.6797     O
O       0.3581   0.9261   0.8203     O
O       0.3584   0.2159   0.3957     O
O       0.3584   0.7159   0.1043     O
O       0.4085   0.2183   0.2495     O
O       0.4085   0.7183   0.2505     O
O       0.4107   0.1439   0.8712     O
O       0.4107   0.6439   0.6288     O
O       0.4198   0.0444    0.344     O
O       0.4198   0.5444    0.156     O
O       0.4219   0.2295   0.9244     O
O       0.4219   0.7295   0.5756     O
O       0.4282   0.2893   0.3214     O
O       0.4282   0.7893   0.1786     O
O       0.4364   0.2575   0.1497     O
O       0.4364   0.7575   0.3503     O
O       0.4416   0.1944   0.7363     O
O       0.4416   0.6944   0.7637     O
O       0.4458   0.3038   0.8417     O
O       0.4458   0.8038   0.6583     O
W      0.44899  0.15943  0.79937     W
W      0.44899  0.65943  0.70063     W
O       0.4557   0.1933   0.4914     O
O       0.4557   0.6933   0.0086     O
O       0.4561   0.3296   0.6813     O
O       0.4561   0.8296   0.8187     O
O       0.4653   0.3884   0.7657     O
O       0.4653   0.8884   0.7343     O
O       0.4671    0.392   0.2855     O
O       0.4671    0.892   0.2145     O
O       0.4699   0.1288   0.4069     O
O       0.4699   0.6288   0.0931     O
W      0.47566  0.25953  0.69998     W
W      0.47566  0.75953  0.80002     W
W      0.48353  0.10742  0.33792     W
W      0.48353  0.60742  0.16208     W
W      0.49304  0.30051  0.92843     W
W      0.49304  0.80051  0.57157     W
W      0.50696  0.19949  0.42843     W
W      0.50696  0.69949  0.07157     W
W      0.51647  0.39258  0.83792     W
W      0.51647  0.89258  0.66208     W
W      0.52434  0.24047  0.19998     W
W      0.52434  0.74047  0.30002     W
O       0.5301   0.3712   0.9069     O
O       0.5301   0.8712   0.5931     O
O       0.5329    0.108   0.7855     O
O       0.5329    0.608   0.7145     O
O       0.5347   0.1116   0.2657     O
O       0.5347   0.6116   0.2343     O
O       0.5439   0.1704   0.1813     O
O       0.5439   0.6704   0.3187     O
O       0.5443   0.3067   0.9914     O
O       0.5443   0.8067   0.5086     O
W      0.55101  0.34057  0.29937     W
W      0.55101  0.84057  0.20063     W
O       0.5542   0.1962   0.3417     O
O       0.5542   0.6962   0.1583     O
O       0.5584   0.3056   0.2363     O
O       0.5584   0.8056   0.2637     O
O       0.5636   0.2425   0.6497     O
O       0.5636   0.7425   0.8503     O
O       0.5718   0.2107   0.8214     O
O       0.5718   0.7107   0.6786     O
O       0.5781   0.2705   0.4244     O
O       0.5781   0.7705   0.0756     O
O       0.5802   0.4556    0.844     O
O       0.5802   0.9556    0.656     O
O       0.5893   0.3561   0.3712     O
O       0.5893   0.8561   0.1288     O
O       0.5915   0.2817   0.7495     O
O       0.5915   0.7817   0.7505     O
O       0.6416   0.2841   0.8957     O
O       0.6416   0.7841   0.6043     O
O       0.6419   0.0739   0.1797     O
O       0.6419   0.5739   0.3203     O
Co     0.64354  0.28153  0.82197    Co
Co     0.64354  0.78153  0.67803    Co
H       0.6471   0.0322   0.8367     H
H       0.6471   0.5322   0.6633     H
O       0.6551   0.3591   0.8202     O
O       0.6551   0.8591   0.6798     O
W       0.6553  0.12793  0.21586     W
W       0.6553  0.62793  0.28414     W
O       0.6575    0.098   0.3505     O
O       0.6575    0.598   0.1495     O
H       0.6718   0.4871   0.7669     H
H       0.6718   0.9871   0.7331     H
O       0.6772   0.2118   0.2534     O
O       0.6772   0.7118   0.2466     O
O       0.6815   0.1824   0.4388     O
O       0.6815   0.6824   0.0612     O
Si      0.6832   0.2214   0.3151    Si
Si      0.6832   0.7214   0.1849    Si
O       0.6862    0.256   0.1659     O
O       0.6862    0.756   0.3341     O
H        0.687   0.0107   0.9279     H
H        0.687   0.5107   0.5721     H
O       0.7005   0.2835    0.326     O
O       0.7005   0.7835    0.174     O
W      0.71274  0.32079  0.40817     W
W      0.71274  0.82079  0.09183     W
H       0.7134     0.12   0.7717     H
H       0.7134     0.62   0.7283     H
O       0.7189   0.3752   0.2844     O
O       0.7189   0.8752   0.2156     O
O       0.7243   0.3588   0.4619     O
O       0.7243   0.8588   0.0381     O
C        0.725   0.0298   0.8516     C
C        0.725   0.5298   0.6484     C
O        0.747   0.0005   0.7315     O
O        0.747   0.5005   0.7685     O
C       0.7474   0.0177   0.9027     C
C       0.7474   0.5177   0.5973     C
H       0.7692   0.1377   0.7269     H
H       0.7692   0.6377   0.7731     H
O       0.7745   0.1166   0.7516     O
O       0.7745   0.6166   0.7484     O
H       0.7772   0.4913   0.7969     H
H       0.7772   0.9913   0.7031     H
O        0.779   0.1123   0.2643     O
O        0.779   0.6123   0.2357     O
O       0.7886   0.1691   0.1798     O
O       0.7886   0.6691   0.3202     O
O       0.8014   0.1955   0.3411     O
O       0.8014   0.6955   0.1589     O
H       0.8069   0.4573   0.5158     H
H       0.8069   0.9573   0.9842     H
O       0.8146    0.273   0.8115     O
O       0.8146    0.773   0.6885     O
O       0.8189   0.2678   0.4235     O
O       0.8189   0.7678   0.0765     O
W      0.83171  0.10723  0.33405     W
W      0.83171  0.60723  0.16595     W
O       0.8396    0.358   0.3688     O
O       0.8396    0.858   0.1312     O
N       0.8401   0.0377   0.8266     N
N       0.8401   0.5377   0.6734     N
O       0.8404    0.302   0.2348     O
O       0.8404    0.802   0.2652     O
W      0.84338   0.2384  0.19738     W
W      0.84338   0.7384  0.30262     W
W       0.8547  0.19677  0.42665     W
W       0.8547  0.69677  0.07335     W
O        0.864   0.1272   0.4041     O
O        0.864   0.6272   0.0959     O
O       0.8652   0.0453   0.3352     O
O       0.8652   0.5453   0.1648     O
W      0.86844  0.33936  0.29646     W
W      0.86844  0.83936  0.20354     W
N       0.8763   0.0181   0.9094     N
N       0.8763   0.5181   0.5906     N
C        0.886   0.4742   0.5094     C
C        0.886   0.9742   0.9906     C
Co      0.8877  0.05586  0.75007    Co
Co      0.8877  0.55586  0.74993    Co
H       0.9021   0.0026   0.2487     H
H       0.9021   0.5026   0.2513     H
O       0.9108   0.1908   0.4884     O
O       0.9108   0.6908   0.0116     O
H       0.9115   0.4381   0.4434     H
H       0.9115   0.9381   0.0566     H
N       0.9269    0.072   0.6719     N
N       0.9269    0.572   0.8281     N
H       0.9281   0.4969   0.8576     H
H       0.9281   0.9969   0.6424     H
C       0.9336   0.0305   0.8624     C
C       0.9336   0.5305   0.6376     C
C        0.938   0.0103   0.9553     C
C        0.938   0.5103   0.5447     C
O       0.9382   0.2555   0.1469     O
O       0.9382   0.7555   0.3531     O
C        0.939   0.0325   0.6361     C
C        0.939   0.5325   0.8639     C
H       0.9457   0.0832    0.495     H
H       0.9457   0.5832    0.005     H
C        0.947   0.4633    0.466     C
C        0.947   0.9633    0.034     C
H       0.9491   0.1525    0.662     H
H       0.9491   0.6525    0.838     H
C       0.9508   0.1198    0.647     C
C       0.9508   0.6198    0.853     C
O       0.9535    0.219   0.2459     O
O       0.9535    0.719   0.2541     O
H        0.964   0.0371   0.4215     H
H        0.964   0.5371   0.0785     H
C       0.9666   0.0491   0.4971     C
C       0.9666   0.5491   0.0029     C
O       0.9687   0.3909   0.2791     O
O       0.9687   0.8909   0.2209     O
N       0.9703    0.056    0.589     N
N       0.9703    0.556    0.911     N
O       0.9721     0.29   0.3179     O
O       0.9721     0.79   0.1821     O
C       0.9776   0.1099   0.5958     C
C       0.9776   0.6099   0.9042     C
C         0.98    0.022    0.453     C
C         0.98    0.522    0.047     C
O       0.9803   0.0001   0.2505     O
O       0.9803   0.5001   0.2495     O
H        0.981   0.4666    0.356     H
H        0.981   0.9666    0.144     H
H       0.9827   0.4711   0.7407     H
H       0.9827   0.9711   0.7593     H
C        0.983   0.0278    0.545     C
C        0.983   0.5278    0.955     C
O         0.99   0.1416   0.3162     O
O         0.99   0.6416   0.1838     O
Co     0.99037  0.28188  0.81762    Co
Co     0.99037  0.78188  0.68238    Co
O       0.9918   0.2856   0.8926     O
O       0.9918   0.7856   0.6074     O
H       0.9969   0.1349   0.5706     H
H       0.9969   0.6349   0.9294     H
