data_I
_chemical_name_common  '/home/zhangsd/repos/MofS-CGCNN/ML/data/WS24/clean_cifs/PUWCEP'
_cell_length_a 13.46770
_cell_length_b 13.46770
_cell_length_c 13.46770
_cell_angle_alpha 90.00000
_cell_angle_beta  90.00000
_cell_angle_gamma 90.00000
_space_group_name_H-M_alt      'P 1'


loop_
_space_group_symop_operation_xyz
  'x, y, z' 

loop_
_atom_site_label
_atom_site_fract_x
_atom_site_fract_y
_atom_site_fract_z
_atom_site_type_symbol
Cd         0.0      0.0      0.5    Cd
Cd         0.0      0.5      0.0    Cd
O       0.0287    0.127    0.384     O
O       0.0287    0.384    0.127     O
O       0.0287    0.616    0.873     O
O       0.0287    0.873    0.616     O
O       0.0568    0.157   0.4398     O
O       0.0568   0.4398    0.157     O
O       0.0568   0.5602    0.843     O
O       0.0568    0.843   0.5602     O
H        0.075   0.2919   0.2919     H
H        0.075   0.7081   0.7081     H
H       0.0751   0.2079   0.2079     H
H       0.0751   0.7921   0.7921     H
C       0.1183   0.2499   0.2499     C
C       0.1183   0.7501   0.7501     C
C       0.1188   0.1188   0.3847     C
C       0.1188   0.3847   0.1188     C
C       0.1188   0.6153   0.8812     C
C       0.1188   0.8812   0.6153     C
O        0.127   0.0287    0.384     O
O        0.127    0.384   0.0287     O
O        0.127    0.616   0.9713     O
O        0.127   0.9713    0.616     O
O        0.157   0.0568   0.4398     O
O        0.157   0.4398   0.0568     O
O        0.157   0.5602   0.9432     O
O        0.157   0.9432   0.5602     O
C       0.1823   0.1823   0.3176     C
C       0.1823   0.3176   0.1823     C
C       0.1823   0.6824   0.8177     C
C       0.1823   0.8177   0.6824     C
H       0.2079   0.0751   0.2079     H
H       0.2079   0.2079   0.0751     H
H       0.2079   0.7921   0.9249     H
H       0.2079   0.9249   0.7921     H
H       0.2094    0.291   0.4223     H
H       0.2094   0.4223    0.291     H
H       0.2094   0.5777    0.709     H
H       0.2094    0.709   0.5777     H
C       0.2499   0.1183   0.2499     C
C       0.2499   0.2499   0.1183     C
C       0.2499   0.7501   0.8817     C
C       0.2499   0.8817   0.7501     C
C       0.2503   0.2503   0.3811     C
C       0.2503   0.3811   0.2503     C
C       0.2503   0.6189   0.7497     C
C       0.2503   0.7497   0.6189     C
H        0.291   0.2094   0.4223     H
H        0.291   0.4223   0.2094     H
H        0.291   0.5777   0.7906     H
H        0.291   0.7906   0.5777     H
H       0.2919    0.075   0.2919     H
H       0.2919   0.2919    0.075     H
H       0.2919   0.7081    0.925     H
H       0.2919    0.925   0.7081     H
C       0.3172   0.3172   0.3172     C
C       0.3172   0.6828   0.6828     C
C       0.3176   0.1823   0.1823     C
C       0.3176   0.8177   0.8177     C
O       0.3417    0.441    0.441     O
O       0.3417    0.559    0.559     O
O        0.374    0.374   0.4723     O
O        0.374   0.4723    0.374     O
O        0.374   0.5277    0.626     O
O        0.374    0.626   0.5277     O
C       0.3811   0.2503   0.2503     C
C       0.3811   0.7497   0.7497     C
C       0.3815   0.3815   0.3815     C
C       0.3815   0.6185   0.6185     C
O        0.384   0.0287    0.127     O
O        0.384    0.127   0.0287     O
O        0.384    0.873   0.9713     O
O        0.384   0.9713    0.873     O
C       0.3847   0.1188   0.1188     C
C       0.3847   0.8812   0.8812     C
H       0.4223   0.2094    0.291     H
H       0.4223    0.291   0.2094     H
H       0.4223    0.709   0.7906     H
H       0.4223   0.7906    0.709     H
O       0.4398   0.0568    0.157     O
O       0.4398    0.157   0.0568     O
O       0.4398    0.843   0.9432     O
O       0.4398   0.9432    0.843     O
O        0.441   0.3417    0.441     O
O        0.441    0.441   0.3417     O
O        0.441    0.559   0.6583     O
O        0.441   0.6583    0.559     O
O       0.4723    0.374    0.374     O
O       0.4723    0.626    0.626     O
Cd         0.5      0.0      0.0    Cd
Cd         0.5      0.5      0.5    Cd
O       0.5277    0.374    0.626     O
O       0.5277    0.626    0.374     O
O        0.559   0.3417    0.559     O
O        0.559    0.441   0.6583     O
O        0.559    0.559   0.3417     O
O        0.559   0.6583    0.441     O
O       0.5602   0.0568    0.843     O
O       0.5602    0.157   0.9432     O
O       0.5602    0.843   0.0568     O
O       0.5602   0.9432    0.157     O
H       0.5777   0.2094    0.709     H
H       0.5777    0.291   0.7906     H
H       0.5777    0.709   0.2094     H
H       0.5777   0.7906    0.291     H
C       0.6153   0.1188   0.8812     C
C       0.6153   0.8812   0.1188     C
O        0.616   0.0287    0.873     O
O        0.616    0.127   0.9713     O
O        0.616    0.873   0.0287     O
O        0.616   0.9713    0.127     O
C       0.6185   0.3815   0.6185     C
C       0.6185   0.6185   0.3815     C
C       0.6189   0.2503   0.7497     C
C       0.6189   0.7497   0.2503     C
O        0.626    0.374   0.5277     O
O        0.626   0.4723    0.626     O
O        0.626   0.5277    0.374     O
O        0.626    0.626   0.4723     O
O       0.6583    0.441    0.559     O
O       0.6583    0.559    0.441     O
C       0.6824   0.1823   0.8177     C
C       0.6824   0.8177   0.1823     C
C       0.6828   0.3172   0.6828     C
C       0.6828   0.6828   0.3172     C
H       0.7081    0.075   0.7081     H
H       0.7081   0.2919    0.925     H
H       0.7081   0.7081    0.075     H
H       0.7081    0.925   0.2919     H
H        0.709   0.2094   0.5777     H
H        0.709   0.4223   0.7906     H
H        0.709   0.5777   0.2094     H
H        0.709   0.7906   0.4223     H
C       0.7497   0.2503   0.6189     C
C       0.7497   0.3811   0.7497     C
C       0.7497   0.6189   0.2503     C
C       0.7497   0.7497   0.3811     C
C       0.7501   0.1183   0.7501     C
C       0.7501   0.2499   0.8817     C
C       0.7501   0.7501   0.1183     C
C       0.7501   0.8817   0.2499     C
H       0.7906    0.291   0.5777     H
H       0.7906   0.4223    0.709     H
H       0.7906   0.5777    0.291     H
H       0.7906    0.709   0.4223     H
H       0.7921   0.0751   0.7921     H
H       0.7921   0.2079   0.9249     H
H       0.7921   0.7921   0.0751     H
H       0.7921   0.9249   0.2079     H
C       0.8177   0.1823   0.6824     C
C       0.8177   0.3176   0.8177     C
C       0.8177   0.6824   0.1823     C
C       0.8177   0.8177   0.3176     C
O        0.843   0.0568   0.5602     O
O        0.843   0.4398   0.9432     O
O        0.843   0.5602   0.0568     O
O        0.843   0.9432   0.4398     O
O        0.873   0.0287    0.616     O
O        0.873    0.384   0.9713     O
O        0.873    0.616   0.0287     O
O        0.873   0.9713    0.384     O
C       0.8812   0.1188   0.6153     C
C       0.8812   0.3847   0.8812     C
C       0.8812   0.6153   0.1188     C
C       0.8812   0.8812   0.3847     C
C       0.8817   0.2499   0.7501     C
C       0.8817   0.7501   0.2499     C
H       0.9249   0.2079   0.7921     H
H       0.9249   0.7921   0.2079     H
H        0.925   0.2919   0.7081     H
H        0.925   0.7081   0.2919     H
O       0.9432    0.157   0.5602     O
O       0.9432   0.4398    0.843     O
O       0.9432   0.5602    0.157     O
O       0.9432    0.843   0.4398     O
O       0.9713    0.127    0.616     O
O       0.9713    0.384    0.873     O
O       0.9713    0.616    0.127     O
O       0.9713    0.873    0.384     O
