data_I
_chemical_name_common  '/home/zhangsd/repos/MofS-CGCNN/ML/data/WS24/clean_cifs/PUWCUF'
_cell_length_a 15.74500
_cell_length_b 16.90700
_cell_length_c 18.16700
_cell_angle_alpha 90.00000
_cell_angle_beta  90.00000
_cell_angle_gamma 90.00000
_space_group_name_H-M_alt      'P 1'


loop_
_space_group_symop_operation_xyz
  'x, y, z' 

loop_
_atom_site_label
_atom_site_fract_x
_atom_site_fract_y
_atom_site_fract_z
_atom_site_type_symbol
H        0.005   0.5832   0.5555     H
H        0.005   0.9168   0.0555     H
H        0.007   0.5766   0.6946     H
H        0.007   0.9234   0.1946     H
O       0.0081   0.6862   0.4421     O
O       0.0081   0.8138   0.9421     O
O       0.0102   0.2283   0.2305     O
O       0.0102   0.2717   0.7305     O
Zn      0.0207   0.1421   0.5892    Zn
Zn      0.0207   0.3579   0.0892    Zn
O       0.0208   0.6976    0.996     O
O       0.0208   0.8024    0.496     O
C         0.03   0.7202   0.6316     C
C         0.03   0.7798   0.1316     C
C       0.0303   0.7299   0.4941     C
C       0.0303   0.7701   0.9941     C
H       0.0306   0.2048   0.8685     H
H       0.0306   0.2952   0.3685     H
C       0.0328   0.7101   0.7694     C
C       0.0328   0.7899   0.2694     C
H       0.0334   0.7214   0.1346     H
H       0.0334   0.7786   0.6346     H
O       0.0497   0.6696   0.8261     O
O       0.0497   0.8304   0.3261     O
C       0.0657   0.5986   0.5556     C
C       0.0657   0.9014   0.0556     C
Zn      0.0659   0.1769   0.1444    Zn
Zn      0.0659   0.3231   0.6444    Zn
O       0.0666    0.066   0.1699     O
O       0.0666    0.434   0.6699     O
C       0.0676   0.5921   0.6946     C
C       0.0676   0.9079   0.1946     C
C       0.0736   0.6908   0.5597     C
C       0.0736   0.8092   0.0597     C
C       0.0751   0.6831   0.6985     C
C       0.0751   0.8169   0.1985     C
H       0.0919   0.5791   0.5095     H
H       0.0919   0.9209   0.0095     H
H        0.095   0.5682   0.7383     H
H        0.095   0.9318   0.2383     H
C       0.1064   0.0289   0.1182     C
C       0.1064   0.4711   0.6182     C
C       0.1114    0.561   0.6232     C
C       0.1114    0.939   0.1232     C
O       0.1368   0.0643   0.0662     O
O       0.1368   0.4357   0.5662     O
O       0.1407   0.1498    0.608     O
O       0.1407   0.3502    0.108     O
C       0.1679    0.714   0.5621     C
C       0.1679    0.786   0.0621     C
C       0.1688   0.7059   0.6974     C
C       0.1688   0.7941   0.1974     C
H       0.1729   0.7277   0.0652     H
H       0.1729   0.7723   0.5652     H
H       0.1739   0.7358      0.2     H
H       0.1739   0.7642      0.7     H
O       0.1773   0.2295   0.1418     O
O       0.1773   0.2705   0.6418     O
C       0.1939   0.2007   0.6259     C
C       0.1939   0.2993   0.1259     C
H        0.196   0.6966   0.5161     H
H        0.196   0.8034   0.0161     H
H       0.1973   0.6833   0.7412     H
H       0.1973   0.8167   0.2412     H
C       0.2037   0.5871    0.624     C
C       0.2037   0.9129    0.124     C
C       0.2128   0.6764   0.6282     C
C       0.2128   0.8236   0.1282     C
H       0.2321   0.5678   0.5788     H
H       0.2321   0.9322   0.0788     H
H       0.2327   0.5629   0.6667     H
H       0.2327   0.9371   0.1667     H
H       0.2673   0.0629   0.6667     H
H       0.2673   0.4371   0.1667     H
H       0.2679   0.0678   0.5788     H
H       0.2679   0.4322   0.0788     H
C       0.2872   0.1764   0.6282     C
C       0.2872   0.3236   0.1282     C
C       0.2963   0.0871    0.624     C
C       0.2963   0.4129    0.124     C
H       0.3027   0.1833   0.7412     H
H       0.3027   0.3167   0.2412     H
H        0.304   0.1966   0.5161     H
H        0.304   0.3034   0.0161     H
C       0.3061   0.7007   0.6259     C
C       0.3061   0.7993   0.1259     C
O       0.3227   0.7295   0.1418     O
O       0.3227   0.7705   0.6418     O
H       0.3261   0.2358      0.2     H
H       0.3261   0.2642      0.7     H
H       0.3271   0.2277   0.0652     H
H       0.3271   0.2723   0.5652     H
C       0.3312   0.2059   0.6974     C
C       0.3312   0.2941   0.1974     C
C       0.3321    0.214   0.5621     C
C       0.3321    0.286   0.0621     C
O       0.3593   0.6498    0.608     O
O       0.3593   0.8502    0.108     O
O       0.3632   0.5643   0.0662     O
O       0.3632   0.9357   0.5662     O
C       0.3886    0.061   0.6232     C
C       0.3886    0.439   0.1232     C
C       0.3936   0.5289   0.1182     C
C       0.3936   0.9711   0.6182     C
H        0.405   0.0682   0.7383     H
H        0.405   0.4318   0.2383     H
H       0.4081   0.0791   0.5095     H
H       0.4081   0.4209   0.0095     H
C       0.4249   0.1831   0.6985     C
C       0.4249   0.3169   0.1985     C
C       0.4264   0.1908   0.5597     C
C       0.4264   0.3092   0.0597     C
C       0.4324   0.0921   0.6946     C
C       0.4324   0.4079   0.1946     C
O       0.4334    0.566   0.1699     O
O       0.4334    0.934   0.6699     O
Zn      0.4341   0.6769   0.1444    Zn
Zn      0.4341   0.8231   0.6444    Zn
C       0.4343   0.0986   0.5556     C
C       0.4343   0.4014   0.0556     C
O       0.4503   0.1696   0.8261     O
O       0.4503   0.3304   0.3261     O
H       0.4666   0.2214   0.1346     H
H       0.4666   0.2786   0.6346     H
C       0.4672   0.2101   0.7694     C
C       0.4672   0.2899   0.2694     C
H       0.4694   0.7048   0.8685     H
H       0.4694   0.7952   0.3685     H
C       0.4697   0.2299   0.4941     C
C       0.4697   0.2701   0.9941     C
C         0.47   0.2202   0.6316     C
C         0.47   0.2798   0.1316     C
O       0.4792   0.1976    0.996     O
O       0.4792   0.3024    0.496     O
Zn      0.4793   0.6421   0.5892    Zn
Zn      0.4793   0.8579   0.0892    Zn
O       0.4898   0.7283   0.2305     O
O       0.4898   0.7717   0.7305     O
O       0.4919   0.1862   0.4421     O
O       0.4919   0.3138   0.9421     O
H        0.493   0.0766   0.6946     H
H        0.493   0.4234   0.1946     H
H        0.495   0.0832   0.5555     H
H        0.495   0.4168   0.0555     H
H        0.505   0.5832   0.9445     H
H        0.505   0.9168   0.4445     H
H        0.507   0.5766   0.8054     H
H        0.507   0.9234   0.3054     H
O       0.5081   0.6862   0.0579     O
O       0.5081   0.8138   0.5579     O
O       0.5102   0.2283   0.2695     O
O       0.5102   0.2717   0.7695     O
Zn      0.5207   0.1421   0.9108    Zn
Zn      0.5207   0.3579   0.4108    Zn
O       0.5208   0.6976    0.504     O
O       0.5208   0.8024    0.004     O
C         0.53   0.7202   0.8684     C
C         0.53   0.7798   0.3684     C
C       0.5303   0.7299   0.0059     C
C       0.5303   0.7701   0.5059     C
H       0.5306   0.2048   0.6315     H
H       0.5306   0.2952   0.1315     H
C       0.5328   0.7101   0.7306     C
C       0.5328   0.7899   0.2306     C
H       0.5334   0.7214   0.3654     H
H       0.5334   0.7786   0.8654     H
O       0.5497   0.6696   0.6739     O
O       0.5497   0.8304   0.1739     O
C       0.5657   0.5986   0.9444     C
C       0.5657   0.9014   0.4444     C
Zn      0.5659   0.1769   0.3556    Zn
Zn      0.5659   0.3231   0.8556    Zn
O       0.5666    0.066   0.3301     O
O       0.5666    0.434   0.8301     O
C       0.5676   0.5921   0.8054     C
C       0.5676   0.9079   0.3054     C
C       0.5736   0.6908   0.9403     C
C       0.5736   0.8092   0.4403     C
C       0.5751   0.6831   0.8015     C
C       0.5751   0.8169   0.3015     C
H       0.5919   0.5791   0.9905     H
H       0.5919   0.9209   0.4905     H
H        0.595   0.5682   0.7617     H
H        0.595   0.9318   0.2617     H
C       0.6064   0.0289   0.3818     C
C       0.6064   0.4711   0.8818     C
C       0.6114    0.561   0.8768     C
C       0.6114    0.939   0.3768     C
O       0.6368   0.0643   0.4338     O
O       0.6368   0.4357   0.9338     O
O       0.6407   0.1498    0.892     O
O       0.6407   0.3502    0.392     O
C       0.6679    0.714   0.9379     C
C       0.6679    0.786   0.4379     C
C       0.6688   0.7059   0.8026     C
C       0.6688   0.7941   0.3026     C
H       0.6729   0.7277   0.4348     H
H       0.6729   0.7723   0.9348     H
H       0.6739   0.7358      0.3     H
H       0.6739   0.7642      0.8     H
O       0.6773   0.2295   0.3582     O
O       0.6773   0.2705   0.8582     O
C       0.6939   0.2007   0.8741     C
C       0.6939   0.2993   0.3741     C
H        0.696   0.6966   0.9839     H
H        0.696   0.8034   0.4839     H
H       0.6973   0.6833   0.7588     H
H       0.6973   0.8167   0.2588     H
C       0.7037   0.5871    0.876     C
C       0.7037   0.9129    0.376     C
C       0.7128   0.6764   0.8718     C
C       0.7128   0.8236   0.3718     C
H       0.7321   0.5678   0.9212     H
H       0.7321   0.9322   0.4212     H
H       0.7327   0.5629   0.8333     H
H       0.7327   0.9371   0.3333     H
H       0.7673   0.0629   0.8333     H
H       0.7673   0.4371   0.3333     H
H       0.7679   0.0678   0.9212     H
H       0.7679   0.4322   0.4212     H
C       0.7872   0.1764   0.8718     C
C       0.7872   0.3236   0.3718     C
C       0.7963   0.0871    0.876     C
C       0.7963   0.4129    0.376     C
H       0.8027   0.1833   0.7588     H
H       0.8027   0.3167   0.2588     H
H        0.804   0.1966   0.9839     H
H        0.804   0.3034   0.4839     H
C       0.8061   0.7007   0.8741     C
C       0.8061   0.7993   0.3741     C
O       0.8227   0.7295   0.3582     O
O       0.8227   0.7705   0.8582     O
H       0.8261   0.2358      0.3     H
H       0.8261   0.2642      0.8     H
H       0.8271   0.2277   0.4348     H
H       0.8271   0.2723   0.9348     H
C       0.8312   0.2059   0.8026     C
C       0.8312   0.2941   0.3026     C
C       0.8321    0.214   0.9379     C
C       0.8321    0.286   0.4379     C
O       0.8593   0.6498    0.892     O
O       0.8593   0.8502    0.392     O
O       0.8632   0.5643   0.4338     O
O       0.8632   0.9357   0.9338     O
C       0.8886    0.061   0.8768     C
C       0.8886    0.439   0.3768     C
C       0.8936   0.5289   0.3818     C
C       0.8936   0.9711   0.8818     C
H        0.905   0.0682   0.7617     H
H        0.905   0.4318   0.2617     H
H       0.9081   0.0791   0.9905     H
H       0.9081   0.4209   0.4905     H
C       0.9249   0.1831   0.8015     C
C       0.9249   0.3169   0.3015     C
C       0.9264   0.1908   0.9403     C
C       0.9264   0.3092   0.4403     C
C       0.9324   0.0921   0.8054     C
C       0.9324   0.4079   0.3054     C
O       0.9334    0.566   0.3301     O
O       0.9334    0.934   0.8301     O
Zn      0.9341   0.6769   0.3556    Zn
Zn      0.9341   0.8231   0.8556    Zn
C       0.9343   0.0986   0.9444     C
C       0.9343   0.4014   0.4444     C
O       0.9503   0.1696   0.6739     O
O       0.9503   0.3304   0.1739     O
H       0.9666   0.2214   0.3654     H
H       0.9666   0.2786   0.8654     H
C       0.9672   0.2101   0.7306     C
C       0.9672   0.2899   0.2306     C
H       0.9694   0.7048   0.6315     H
H       0.9694   0.7952   0.1315     H
C       0.9697   0.2299   0.0059     C
C       0.9697   0.2701   0.5059     C
C         0.97   0.2202   0.8684     C
C         0.97   0.2798   0.3684     C
O       0.9792   0.1976    0.504     O
O       0.9792   0.3024    0.004     O
Zn      0.9793   0.6421   0.9108    Zn
Zn      0.9793   0.8579   0.4108    Zn
O       0.9898   0.7283   0.2695     O
O       0.9898   0.7717   0.7695     O
O       0.9919   0.1862   0.0579     O
O       0.9919   0.3138   0.5579     O
H        0.993   0.0766   0.8054     H
H        0.993   0.4234   0.3054     H
H        0.995   0.0832   0.9445     H
H        0.995   0.4168   0.4445     H
