data_I
_chemical_name_common  '/home/zhangsd/repos/MofS-CGCNN/ML/data/WS24/clean_cifs/PUWCOZ'
_cell_length_a 10.06560
_cell_length_b 11.16250
_cell_length_c 19.20110
_cell_angle_alpha 90.00000
_cell_angle_beta  90.00000
_cell_angle_gamma 90.00000
_space_group_name_H-M_alt      'P 1'


loop_
_space_group_symop_operation_xyz
  'x, y, z' 

loop_
_atom_site_label
_atom_site_fract_x
_atom_site_fract_y
_atom_site_fract_z
_atom_site_type_symbol
H       0.0254   0.2917   0.8992     H
C       0.0313   0.5701   0.6274     C
C       0.0324   0.9564   0.4033     C
Ni     0.03679  0.62971  0.97894    Ni
O        0.042   0.4758   0.5912     O
H       0.0489   0.7941   0.2979     H
O       0.0498   0.0052  0.46209     O
H       0.0517   0.2234   0.7742     H
O       0.0695   0.4621  0.13247     O
H       0.0734   0.7233   0.4215     H
H       0.0864   0.2155   0.9587     H
C       0.0978   0.2417    0.912     C
C        0.102   0.1316   0.8632     C
C       0.1237   0.1736   0.7878     C
H       0.1276   0.1057    0.758     H
H       0.1284   0.9046   0.2723     H
C       0.1301   0.8367   0.3021     C
O       0.1347   0.6171  0.65279     O
C       0.1484   0.8783   0.3781     C
C       0.1537   0.7673   0.4261     C
H       0.1638   0.7927    0.473     H
O       0.1647   0.5156  0.93033     O
H       0.1714    0.715   0.0771     H
H       0.1728   0.4017   0.8162     H
H       0.1741   0.6009   0.3254     H
O       0.1872   0.7876  0.16081     O
O       0.1934   0.6688  0.04721     O
H       0.2084   0.0286   0.9314     H
C       0.2133   0.4206   0.9561     C
C       0.2198   0.0532   0.8845     C
H       0.2228   0.9848   0.8552     H
C       0.2289    0.313    0.906     C
C       0.2321   0.7124   0.2057     C
O       0.2331   0.3894  0.69137     O
O       0.2432   0.4039  0.01842     O
C       0.2453   0.7553   0.2816     C
C       0.2465   0.3537   0.8295     C
Ni     0.24838  0.51502   0.1018    Ni
H       0.2495   0.7017    0.016     H
H       0.2505   0.2983    0.516     H
Ni     0.25162  0.48498   0.6018    Ni
C       0.2535   0.6463   0.3295     C
C       0.2547   0.2447   0.7816     C
O       0.2568   0.5961  0.51842     O
O       0.2669   0.6106  0.19137     O
C       0.2679   0.2876   0.7057     C
C       0.2711    0.687    0.406     C
H       0.2772   0.0152   0.3552     H
C       0.2802   0.9468   0.3845     C
C       0.2867   0.5794   0.4561     C
H       0.2916   0.9714   0.4314     H
O       0.3066   0.3312  0.54721     O
O       0.3128   0.2124  0.66081     O
H       0.3259   0.3991   0.8254     H
H       0.3272   0.5983   0.3162     H
H       0.3286    0.285   0.5771     H
O       0.3353   0.4844  0.43033     O
H       0.3362   0.2073    0.973     H
C       0.3463   0.2327   0.9261     C
C       0.3516   0.1217   0.8781     C
O       0.3653   0.3829  0.15279     O
C       0.3699   0.1633   0.8021     C
H       0.3716   0.0954   0.7723     H
H       0.3724   0.8943    0.258     H
C       0.3763   0.8264   0.2878     C
C        0.398   0.8684   0.3632     C
C       0.4022   0.7583    0.412     C
H       0.4136   0.7845   0.4587     H
H       0.4266   0.2767   0.9215     H
O       0.4305   0.5379  0.63247     O
H       0.4483   0.7766   0.2742     H
O       0.4502   0.9948  0.96209     O
H       0.4511   0.2059   0.7979     H
O        0.458   0.5242   0.0912     O
Ni     0.46321  0.37029  0.47894    Ni
C       0.4676   0.0436   0.9033     C
C       0.4687   0.4299   0.1274     C
H       0.4746   0.7083   0.3992     H
H       0.5254   0.2083   0.1008     H
C       0.5313   0.9299   0.3726     C
C       0.5324   0.5436   0.5967     C
Ni     0.53679  0.87029  0.02106    Ni
O        0.542   0.0242   0.4088     O
H       0.5489   0.7059   0.7021     H
O       0.5498   0.4948  0.53791     O
H       0.5517   0.2766   0.2258     H
O       0.5695   0.0379  0.86753     O
H       0.5734   0.7767   0.5785     H
H       0.5864   0.2845   0.0413     H
C       0.5978   0.2583    0.088     C
C        0.602   0.3684   0.1368     C
C       0.6237   0.3264   0.2122     C
H       0.6276   0.3943    0.242     H
H       0.6284   0.5954   0.7277     H
C       0.6301   0.6633   0.6979     C
O       0.6347   0.8829  0.34721     O
C       0.6484   0.6217   0.6219     C
C       0.6537   0.7327   0.5739     C
H       0.6638   0.7073    0.527     H
O       0.6647   0.9844  0.06967     O
H       0.6714    0.785   0.9229     H
H       0.6728   0.0983   0.1838     H
H       0.6741   0.8991   0.6746     H
O       0.6872   0.7124  0.83919     O
O       0.6934   0.8312  0.95279     O
H       0.7084   0.4714   0.0686     H
C       0.7133   0.0794   0.0439     C
C       0.7198   0.4468   0.1155     C
H       0.7228   0.5152   0.1448     H
C       0.7289    0.187    0.094     C
C       0.7321   0.7876   0.7943     C
O       0.7331   0.1106  0.30863     O
O       0.7432   0.0961  0.98158     O
C       0.7453   0.7447   0.7184     C
C       0.7465   0.1463   0.1705     C
Ni     0.74838  0.98498   0.8982    Ni
H       0.7495   0.7983    0.984     H
H       0.7505   0.2017    0.484     H
Ni     0.75162  0.01502   0.3982    Ni
C       0.7535   0.8537   0.6705     C
C       0.7547   0.2553   0.2184     C
O       0.7568   0.9039  0.48158     O
O       0.7669   0.8894  0.80863     O
C       0.7679   0.2124   0.2943     C
C       0.7711    0.813    0.594     C
H       0.7772   0.4848   0.6448     H
C       0.7802   0.5532   0.6155     C
C       0.7867   0.9206   0.5439     C
H       0.7916   0.5286   0.5686     H
O       0.8066   0.1688  0.45279     O
O       0.8128   0.2876  0.33919     O
H       0.8259   0.1009   0.1746     H
H       0.8272   0.9017   0.6838     H
H       0.8286    0.215   0.4229     H
O       0.8353   0.0156  0.56967     O
H       0.8362   0.2927    0.027     H
C       0.8463   0.2673   0.0739     C
C       0.8516   0.3783   0.1219     C
O       0.8653   0.1171  0.84721     O
C       0.8699   0.3367   0.1979     C
H       0.8716   0.4046   0.2277     H
H       0.8724   0.6057    0.742     H
C       0.8763   0.6736   0.7122     C
C        0.898   0.6316   0.6368     C
C       0.9022   0.7417    0.588     C
H       0.9136   0.7155   0.5413     H
H       0.9266   0.2233   0.0785     H
O       0.9305   0.9621  0.36753     O
H       0.9483   0.7234   0.7258     H
O       0.9502   0.5052  0.03791     O
H       0.9511   0.2941   0.2021     H
O        0.958   0.9758   0.9088     O
Ni     0.96321  0.12971  0.52106    Ni
C       0.9676   0.4564   0.0967     C
C       0.9687   0.0701   0.8726     C
H       0.9746   0.7917   0.6008     H
