data_I
_chemical_name_common  '/home/zhangsd/repos/MofS-CGCNN/ML/data/WS24/clean_cifs/PUWDEQ'
_cell_length_a  9.95180
_cell_length_b 11.57610
_cell_length_c 15.55620
_cell_angle_alpha 72.37700
_cell_angle_beta  83.16500
_cell_angle_gamma 84.32600
_space_group_name_H-M_alt      'P 1'


loop_
_space_group_symop_operation_xyz
  'x, y, z' 

loop_
_atom_site_label
_atom_site_fract_x
_atom_site_fract_y
_atom_site_fract_z
_atom_site_type_symbol
C        0.064   0.6879   0.0299     C
C        0.072   0.4961   0.9979     C
C         0.08   0.3023    0.965     C
O       0.0973   0.1275   0.9131     O
H         0.11   0.7507    0.039     H
C        0.137   0.5915   0.0123     C
C       0.1447   0.3919   0.9793     C
C       0.1571   0.1976   0.9384     C
H       0.2332   0.5875   0.0096     H
H       0.2409   0.3853   0.9768     H
H       0.2503   0.2958   0.5654     H
O       0.2742   0.1737   0.7294     O
H       0.2856   0.4519   0.4327     H
O       0.2867   0.1906   0.9439     O
C       0.3245   0.3448   0.5576     C
C       0.3452   0.4375   0.4788     C
C       0.3852   0.2215   0.7143     C
C       0.4111    0.321   0.6271     C
Zn      0.4146   0.0927   0.8878    Zn
O       0.4197   0.8951   0.0499     O
O        0.421   0.9186   0.9025     O
H       0.4215   0.6241   0.3376     H
C       0.4307   0.8536   0.9842     C
H       0.4339   0.6789   0.1418     H
C       0.4505   0.6421   0.0943     C
C       0.4546   0.7171   0.0023     C
C       0.4557   0.5119   0.4658     C
H       0.4657   0.4675   0.1768     H
C       0.4701    0.517   0.1156     C
O       0.4782   0.1935   0.7675     O
C       0.4802   0.6083   0.3843     C
C       0.4805 0.66666667   0.9333     C
H       0.4836   0.7165   0.8722     H
C       0.4961   0.4667   0.0458     C
C       0.5039   0.5333   0.9542     C
H       0.5164   0.2835   0.1278     H
C       0.5195   0.3334   0.0667     C
C       0.5198   0.3917   0.6157     C
O       0.5218   0.8065   0.2325     O
C       0.5299    0.483   0.8844     C
H       0.5343   0.5325   0.8232     H
C       0.5443   0.4881   0.5342     C
C       0.5454   0.2829   0.9977     C
C       0.5495   0.3579   0.9057     C
H       0.5661   0.3211   0.8582     H
C       0.5693   0.1464   0.0158     C
H       0.5785   0.3759   0.6624     H
O        0.579   0.0814   0.0975     O
O       0.5803   0.1049   0.9501     O
Zn      0.5854   0.9073   0.1122    Zn
C       0.5889    0.679   0.3729     C
C       0.6148   0.7785   0.2857     C
C       0.6548   0.5625   0.5212     C
C       0.6755   0.6552   0.4424     C
O       0.7133   0.8094   0.0561     O
H       0.7144   0.5481   0.5673     H
O       0.7258   0.8263   0.2706     O
H       0.7497   0.7042   0.4346     H
H       0.7591   0.6147   0.0232     H
H       0.7668   0.4125   0.9904     H
C       0.8429   0.8024   0.0616     C
C       0.8553   0.6081   0.0207     C
C        0.863   0.4085   0.9877     C
H         0.89   0.2493    0.961     H
O       0.9027   0.8725   0.0869     O
C         0.92   0.6977    0.035     C
C        0.928   0.5039   0.0021     C
C        0.936   0.3121   0.9701     C
