data_I
_chemical_name_common  '/home/zhangsd/repos/MofS-CGCNN/ML/data/WS24/clean_cifs/QAQHOG'
_cell_length_a  5.09960
_cell_length_b 21.25950
_cell_length_c  8.92090
_cell_angle_alpha 90.00000
_cell_angle_beta  90.23940
_cell_angle_gamma 90.00000
_space_group_name_H-M_alt      'P 1'


loop_
_space_group_symop_operation_xyz
  'x, y, z' 

loop_
_atom_site_label
_atom_site_fract_x
_atom_site_fract_y
_atom_site_fract_z
_atom_site_type_symbol
Ti         0.0      0.0      0.5    Ti
Ti         0.0      0.5      0.5    Ti
O       0.0249   0.0914   0.8937     O
O       0.0249   0.4086   0.8937     O
O       0.0616  0.61708   0.8041     O
O       0.0616  0.88292   0.8041     O
O       0.1026     0.25   0.0786     O
O       0.1849   0.0295    0.676     O
O       0.1849   0.4705    0.676     O
P       0.1973     0.75  0.94419     P
P      0.21323  0.11422  0.26543     P
P      0.21323  0.38578  0.26543     P
O       0.2347  0.06115   0.3799     O
O       0.2347  0.43885   0.3799     O
P      0.23973  0.04614  0.83991     P
P      0.23973  0.45386  0.83991     P
O       0.2491   0.5124   0.9382     O
O       0.2491   0.9876   0.9382     O
O       0.2638   0.1773    0.349     O
O       0.2638   0.3227    0.349     O
Ti     0.27219   0.6004  0.97804    Ti
Ti     0.27219   0.8996  0.97804    Ti
O       0.2796   0.6907   0.0307     O
O       0.2796   0.8093   0.0307     O
Ga      0.3153     0.25  0.24392    Ga
O       0.3324     0.75   0.7891     O
O       0.4174  0.10757   0.1416     O
O       0.4174  0.39243   0.1416     O
O       0.4941  0.58086   0.1557     O
O       0.4941  0.91914   0.1557     O
O       0.5059  0.08086   0.8443     O
O       0.5059  0.41914   0.8443     O
O       0.5826  0.60757   0.8584     O
O       0.5826  0.89243   0.8584     O
O       0.6676     0.25   0.2109     O
Ga      0.6847     0.75  0.75608    Ga
O       0.7204   0.1907   0.9693     O
O       0.7204   0.3093   0.9693     O
Ti     0.72781   0.1004  0.02196    Ti
Ti     0.72781   0.3996  0.02196    Ti
O       0.7362   0.6773    0.651     O
O       0.7362   0.8227    0.651     O
O       0.7509   0.0124   0.0618     O
O       0.7509   0.4876   0.0618     O
P      0.76027  0.54614  0.16009     P
P      0.76027  0.95386  0.16009     P
O       0.7653  0.56115   0.6201     O
O       0.7653  0.93885   0.6201     O
P      0.78677  0.61422  0.73457     P
P      0.78677  0.88578  0.73457     P
P       0.8027     0.25  0.05581     P
O       0.8151   0.5295    0.324     O
O       0.8151   0.9705    0.324     O
O       0.8974     0.75   0.9214     O
O       0.9384  0.11708   0.1959     O
O       0.9384  0.38292   0.1959     O
O       0.9751   0.5914   0.1063     O
O       0.9751   0.9086   0.1063     O
