data_I
_chemical_name_common  '/home/zhangsd/repos/MofS-CGCNN/ML/data/WS24/clean_cifs/QARBUI'
_cell_length_a  7.76940
_cell_length_b 11.06000
_cell_length_c 12.05500
_cell_angle_alpha 114.69000
_cell_angle_beta  90.00000
_cell_angle_gamma 90.00000
_space_group_name_H-M_alt      'P 1'


loop_
_space_group_symop_operation_xyz
  'x, y, z' 

loop_
_atom_site_label
_atom_site_fract_x
_atom_site_fract_y
_atom_site_fract_z
_atom_site_type_symbol
C       0.0038   0.6775   0.5097     C
N       0.0058    0.959   0.8229     N
C       0.0132   0.9002   0.7006     C
C       0.0368    0.528   0.2702     C
N       0.0391   0.1524     0.18     N
C       0.0422   0.9978   0.6468     C
H       0.0522   0.4787   0.1867     H
C       0.0672   0.2043     0.58     C
N       0.0691   0.0893   0.0596     N
H       0.0766   0.2762   0.5594     H
N       0.1218    0.111   0.7225     N
N       0.1265   0.7095   0.4504     N
C       0.1336   0.2115   0.6885     C
C       0.1415   0.6324    0.332     C
Zn     0.15176  0.14354  0.91043    Zn
H        0.189   0.2893   0.7402     H
H       0.1911   0.6972   0.0501     H
H        0.229   0.6513    0.289     H
H       0.2371   0.8254   0.0314     H
H       0.2512   0.8263   0.1614     H
C       0.2656   0.7733   0.0755     C
N       0.3034   0.3022   0.0079     N
N       0.3104   0.4083   0.9814     N
H       0.3111    0.449   0.4993     H
H       0.3348   0.5759   0.7115     H
N       0.3807   0.0252   0.8889     N
C       0.3936   0.4288   0.5449     C
C        0.404   0.3318   0.1078     C
C       0.4089   0.5052   0.6703     C
N       0.4142   0.4964   0.0627     N
H       0.4242   0.0943   0.5171     H
N       0.4243    0.915   0.7882     N
O       0.4329   0.7319   0.0522     O
H        0.434    0.642    0.034     H
C       0.4371   0.2449   0.1697     C
H       0.4407   0.9172   0.5704     H
N        0.451   0.3067   0.2914     N
C       0.4678   0.1072   0.1109     C
C       0.4706   0.0189    0.979     C
N       0.4717   0.4525   0.1441     N
C       0.4758   0.0151   0.4648     C
C       0.4871   0.9104    0.497     C
C       0.4893   0.2398   0.3563     C
C       0.5038   0.3225   0.4903     C
N       0.5058    0.041   0.1771     N
C       0.5132   0.0998   0.2994     C
C       0.5368    0.472   0.7298     C
N       0.5391   0.8476     0.82     N
C       0.5422   0.0022   0.3532     C
H       0.5522   0.5213   0.8133     H
C       0.5672   0.7957     0.42     C
N       0.5691   0.9107   0.9404     N
H       0.5766   0.7238   0.4406     H
N       0.6218    0.889   0.2775     N
N       0.6265   0.2905   0.5496     N
C       0.6336   0.7885   0.3115     C
C       0.6415   0.3676    0.668     C
Zn     0.65176  0.85646  0.08957    Zn
H        0.689   0.7107   0.2598     H
H       0.6911   0.3028   0.9499     H
H        0.729   0.3487    0.711     H
H       0.7371   0.1746   0.9686     H
H       0.7512   0.1737   0.8386     H
C       0.7656   0.2267   0.9245     C
N       0.8034   0.6978   0.9921     N
N       0.8104   0.5917   0.0186     N
H       0.8111    0.551   0.5007     H
H       0.8348   0.4241   0.2885     H
N       0.8807   0.9748   0.1111     N
C       0.8936   0.5712   0.4551     C
C        0.904   0.6682   0.8922     C
C       0.9089   0.4948   0.3297     C
N       0.9142   0.5036   0.9373     N
H       0.9242   0.9057   0.4829     H
N       0.9243    0.085   0.2118     N
O       0.9329   0.2681   0.9478     O
H        0.934    0.358    0.966     H
C       0.9371   0.7551   0.8303     C
H       0.9407   0.0828   0.4296     H
N        0.951   0.6933   0.7086     N
C       0.9678   0.8928   0.8891     C
C       0.9706   0.9811    0.021     C
N       0.9717   0.5475   0.8559     N
C       0.9758   0.9849   0.5352     C
C       0.9871   0.0896    0.503     C
C       0.9893   0.7602   0.6437     C
