data_I
_chemical_name_common  '/home/zhangsd/repos/MofS-CGCNN/ML/data/WS24/clean_cifs/QIFLIC'
_cell_length_a 12.52230
_cell_length_b 12.52230
_cell_length_c 15.73830
_cell_angle_alpha 113.44200
_cell_angle_beta  113.44200
_cell_angle_gamma 90.00010
_space_group_name_H-M_alt      'P 1'


loop_
_space_group_symop_operation_xyz
  'x, y, z' 

loop_
_atom_site_label
_atom_site_fract_x
_atom_site_fract_y
_atom_site_fract_z
_atom_site_type_symbol
H       0.0001   0.5944   0.8454     H
C       0.0068   0.3766   0.0916     C
Zn     0.02068  0.12491  0.62508    Zn
N      0.02296  0.27066  0.59732     N
C      0.02345  0.27755   0.9071     C
N      0.02543  0.63483  0.50186     N
O       0.0337   0.8429   0.2714     O
C      0.03785  0.73565   0.4979     C
N       0.0501   0.4478    0.599     N
C       0.0554   0.2211   0.8128     C
C       0.0763   0.3849   0.6542     C
C       0.0848    0.715   0.0916     C
H       0.0851   0.8067   0.5562     H
C        0.094   0.6589      1.0     C
C      0.11635  0.37045   0.0929     C
Zn     0.12491   0.6044  0.62508    Zn
C        0.126   0.3221      0.0     C
N      0.13297  0.97457  0.49814     N
N      0.14934  0.43164  0.75528     N
N       0.1512   0.0501    0.599     N
H       0.1547    0.749   0.1546     H
O       0.1562   0.2476   0.8184     O
O       0.1571   0.7623   0.7286     O
H       0.1646   0.3865    0.788     H
H       0.1686   0.6448      1.0     H
H       0.1818   0.5073   0.7886     H
H       0.1933   0.5289   0.4438     H
H       0.2019   0.3195      1.0     H
C       0.2211   0.7574   0.8128     C
O       0.2377   0.4285   0.2714     O
C      0.23775  0.96215   0.5021     C
C       0.2426   0.4083   0.1872     C
O       0.2476   0.6622   0.8184     O
H       0.2505   0.9149   0.4438     H
H        0.251   0.0001   0.8454     H
C      0.26435  0.53995   0.5021     C
C       0.2693   0.0763   0.6542     C
N      0.27066  0.57436  0.59732     N
C      0.27755  0.88365   0.9071     C
H       0.2813   0.1818   0.7886     H
C        0.285   0.9932   0.9084     C
H       0.3195   0.7981      0.0     H
C       0.3221    0.874      0.0     C
N      0.32364  0.14934  0.75528     N
N      0.32666  0.02296  0.59732     N
O       0.3378   0.4292   0.1816     O
C       0.3411    0.094      1.0     C
H       0.3552   0.1686      1.0     H
N      0.36517  0.52357  0.49814     N
C      0.37045  0.97655   0.0929     C
C       0.3766   0.0848   0.0916     C
H       0.3766   0.5985    0.212     H
C       0.3849   0.5779   0.6542     C
H       0.3865   0.6234    0.788     H
H       0.3932   0.7187   0.2114     H
N      0.39406  0.67636  0.24472     N
Zn      0.3956  0.49983  0.37492    Zn
H       0.4015   0.1646    0.788     H
H       0.4056   0.1547   0.1546     H
C       0.4083   0.9446   0.1872     C
C       0.4221   0.7307   0.3458     C
N      0.42564  0.67334  0.40268     N
O       0.4285   0.0337   0.2714     O
O       0.4292   0.8438   0.1816     O
N      0.43164  0.60594  0.75528     N
N       0.4478   0.5489    0.599     N
N       0.4511   0.8488    0.401     N
C      0.46005  0.76225   0.4979     C
H       0.4711   0.7495   0.5562     H
N      0.47643  0.86703  0.50186     N
H       0.4927   0.3932   0.2114     H
Zn     0.49983  0.97932  0.37492    Zn
Zn     0.50017  0.02068  0.62508    Zn
H       0.5073   0.6068   0.7886     H
N      0.52357  0.13297  0.49814     N
H       0.5289   0.2505   0.4438     H
C      0.53995  0.23775   0.5021     C
N       0.5489   0.1512    0.599     N
N       0.5522   0.4511    0.401     N
N      0.56836  0.39406  0.24472     N
O       0.5708   0.1562   0.8184     O
O       0.5715   0.9663   0.7286     O
N      0.57436  0.32666  0.59732     N
C       0.5779   0.2693   0.6542     C
C       0.5917   0.0554   0.8128     C
H       0.5944   0.8453   0.8454     H
H       0.5985   0.8354    0.212     H
Zn      0.6044  0.50017  0.62508    Zn
N      0.60594  0.32364  0.75528     N
H       0.6068   0.2813   0.7886     H
H       0.6135   0.3766    0.212     H
C       0.6151   0.4221   0.3458     C
H       0.6234   0.4015    0.788     H
C       0.6234   0.9152   0.9084     C
C      0.62955  0.02345   0.9071     C
N      0.63483  0.47643  0.50186     N
H       0.6448   0.8314      0.0     H
C       0.6589    0.906      1.0     C
O       0.6622   0.5708   0.8184     O
N      0.67334  0.97704  0.40268     N
N      0.67636  0.85066  0.24472     N
C       0.6779    0.126      0.0     C
H       0.6805   0.2019      0.0     H
C        0.715   0.0068   0.0916     C
H       0.7187   0.8182   0.2114     H
C      0.72245  0.11635   0.0929     C
N      0.72934  0.42564  0.40268     N
C       0.7307   0.9237   0.3458     C
C      0.73565  0.46005   0.4979     C
H        0.749   0.9999   0.1546     H
H       0.7495   0.0851   0.5562     H
O       0.7524   0.3378   0.1816     O
C       0.7574   0.5917   0.8128     C
C      0.76225  0.03785   0.4979     C
O       0.7623   0.5715   0.7286     O
C       0.7789   0.2426   0.1872     C
H       0.7981   0.6805      0.0     H
H       0.8067   0.4711   0.5562     H
H       0.8182   0.4927   0.2114     H
H       0.8314   0.3552      0.0     H
H       0.8354   0.6135    0.212     H
O       0.8429   0.2377   0.2714     O
O       0.8438   0.7524   0.1816     O
H       0.8453    0.251   0.8454     H
N       0.8488   0.9499    0.401     N
N      0.85066  0.56836  0.24472     N
N      0.86703  0.02543  0.50186     N
C        0.874   0.6779     -0.0     C
Zn     0.87509   0.3956  0.37492    Zn
C      0.88365  0.62955   0.9071     C
C        0.906   0.3411      1.0     C
H       0.9149   0.1933   0.4438     H
C       0.9152    0.285   0.9084     C
C       0.9237   0.6151   0.3458     C
C       0.9446   0.7789   0.1872     C
N       0.9499   0.5522    0.401     N
C      0.96215  0.26435   0.5021     C
O       0.9663   0.1571   0.7286     O
N      0.97457  0.36517  0.49814     N
C      0.97655  0.72245   0.0929     C
N      0.97704  0.72934  0.40268     N
Zn     0.97932  0.87509  0.37492    Zn
C       0.9932   0.6234   0.9084     C
H       0.9999   0.4056   0.1546     H
