data_I
_chemical_name_common  '/home/zhangsd/repos/MofS-CGCNN/ML/data/WS24/clean_cifs/QIFLUO'
_cell_length_a 12.17860
_cell_length_b 13.82500
_cell_length_c 17.23300
_cell_angle_alpha 90.00000
_cell_angle_beta  92.48290
_cell_angle_gamma 90.00000
_space_group_name_H-M_alt      'P 1'


loop_
_space_group_symop_operation_xyz
  'x, y, z' 

loop_
_atom_site_label
_atom_site_fract_x
_atom_site_fract_y
_atom_site_fract_z
_atom_site_type_symbol
C          0.0   0.1678    0.658     C
C          0.0   0.2079    0.584     C
C          0.0   0.7921    0.416     C
C          0.0   0.8322    0.342     C
N       0.0059   0.1035   0.0626     N
N       0.0082   0.2627   0.0473     N
C       0.0091   0.7803   0.0227     C
N       0.0108   0.8771   0.0171     N
C       0.0172   0.1889   0.0972     C
O       0.0185   0.9076   0.1933     O
O       0.0199   0.3472    0.228     O
H       0.0211   0.6696   0.0924     H
N       0.0227   0.7318   0.0917     N
H       0.0299   0.1966   0.1504     H
H       0.0326   0.8557    0.683     H
H       0.0329   0.7635   0.1344     H
H       0.0369   0.1989   0.6992     H
Zn     0.03703  0.40287  0.07323    Zn
H       0.0393   0.2643   0.5756     H
O       0.0535   0.7887   0.5475     O
C        0.054   0.9173   0.3295     C
C       0.0575   0.8352   0.4762     C
C       0.0587     0.96    0.249     C
Zn     0.06046  0.97515   0.0984    Zn
O       0.0963   0.0413   0.2386     O
N       0.1001   0.5224   0.9281     N
H       0.1029   0.2917   0.3607     H
C       0.1062   0.8442   0.6741     C
C       0.1073   0.9608   0.3924     C
C       0.1081   0.9222   0.4642     C
C       0.1173   0.3656   0.2186     C
N        0.127   0.4552   0.9872     N
C       0.1353     0.81   0.6037     C
H       0.1429   0.9545   0.5056     H
H       0.1441   0.0188    0.385     H
H       0.1466   0.6313   0.8152     H
O        0.153   0.4012   0.1538     O
H       0.1631   0.8846   0.7796     H
C        0.176   0.3055   0.3518     C
C       0.1843   0.8615   0.7318     C
C        0.194   0.5354   0.8897     C
N       0.2027   0.5979   0.8311     N
C       0.2036   0.3448   0.2799     C
N       0.2228   0.9792   0.0808     N
C       0.2307   0.4316   0.9793     C
H       0.2316   0.8873   0.9888     H
H       0.2356   0.1047   0.1907     H
H       0.2374   0.2598   0.4564     H
C       0.2439   0.7871   0.5905     C
C       0.2561   0.2871   0.4095     C
H       0.2626   0.7598   0.5436     H
H       0.2644   0.6047   0.8093     H
H       0.2684   0.3873   0.0112     H
C       0.2693   0.9316   0.0207     C
N       0.2772   0.4792   0.9192     N
C       0.2964   0.8448   0.7201     C
N       0.2973   0.0979   0.1689     N
C        0.306   0.0354   0.1103     C
C       0.3157   0.3615   0.2682     C
C        0.324   0.8055   0.6482     C
H       0.3369   0.3846   0.2204     H
O        0.347   0.9012   0.8462     O
H       0.3534   0.1313   0.1848     H
H       0.3559   0.5188    0.615     H
H       0.3571   0.4545   0.4944     H
C       0.3647     0.31   0.3963     C
N        0.373   0.9552   0.0128     N
C       0.3827   0.8656   0.7814     C
C       0.3919   0.4222   0.5358     C
C       0.3927   0.4608   0.6076     C
C       0.3938   0.3442   0.3259     C
H       0.3971   0.7917   0.6393     H
N       0.3999   0.0224   0.0719     N
O       0.4037   0.5413   0.7614     O
Zn     0.43954  0.47515   0.9016    Zn
C       0.4413     0.46    0.751     C
C       0.4425   0.3352   0.5238     C
C        0.446   0.4173   0.6705     C
O       0.4465   0.2887   0.4525     O
H       0.4607   0.7643   0.4244     H
Zn     0.46297  0.90287  0.92677    Zn
H       0.4631   0.6989   0.3008     H
H       0.4671   0.2635   0.8656     H
H       0.4674   0.3557    0.317     H
H       0.4701   0.6966   0.8496     H
N       0.4773   0.2318   0.9083     N
H       0.4789   0.1696   0.9076     H
O       0.4801   0.8472    0.772     O
O       0.4815   0.4076   0.8067     O
C       0.4828   0.6889   0.9028     C
N       0.4892   0.3771   0.9829     N
C       0.4909   0.2803   0.9773     C
N       0.4918   0.7627   0.9527     N
N       0.4941   0.6035   0.9374     N
C          0.5   0.2921    0.584     C
C          0.5   0.3322    0.658     C
C          0.5   0.6678    0.342     C
C          0.5   0.7079    0.416     C
N       0.5059   0.3965   0.0626     N
N       0.5082   0.2373   0.0473     N
C       0.5091   0.7197   0.0227     C
N       0.5108   0.6229   0.0171     N
C       0.5172   0.3111   0.0972     C
O       0.5185   0.5924   0.1933     O
O       0.5199   0.1528    0.228     O
H       0.5211   0.8304   0.0924     H
N       0.5227   0.7682   0.0917     N
H       0.5299   0.3034   0.1504     H
H       0.5326   0.6443    0.683     H
H       0.5329   0.7365   0.1344     H
H       0.5369   0.3011   0.6992     H
Zn     0.53703  0.09713  0.07323    Zn
H       0.5393   0.2357   0.5756     H
O       0.5535   0.7113   0.5475     O
C        0.554   0.5827   0.3295     C
C       0.5575   0.6648   0.4762     C
C       0.5587     0.54    0.249     C
Zn     0.56046  0.52485   0.0984    Zn
O       0.5963   0.4587   0.2386     O
N       0.6001   0.9776   0.9281     N
H       0.6029   0.2083   0.3607     H
C       0.6062   0.6558   0.6741     C
C       0.6073   0.5392   0.3924     C
C       0.6081   0.5778   0.4642     C
C       0.6173   0.1344   0.2186     C
N        0.627   0.0448   0.9872     N
C       0.6353     0.69   0.6037     C
H       0.6429   0.5455   0.5056     H
H       0.6441   0.4812    0.385     H
H       0.6466   0.8687   0.8152     H
O        0.653   0.0988   0.1538     O
H       0.6631   0.6154   0.7796     H
C        0.676   0.1945   0.3518     C
C       0.6843   0.6385   0.7318     C
C        0.694   0.9646   0.8897     C
N       0.7027   0.9021   0.8311     N
C       0.7036   0.1552   0.2799     C
N       0.7228   0.5208   0.0808     N
C       0.7307   0.0684   0.9793     C
H       0.7316   0.6127   0.9888     H
H       0.7356   0.3953   0.1907     H
H       0.7374   0.2402   0.4564     H
C       0.7439   0.7129   0.5905     C
C       0.7561   0.2129   0.4095     C
H       0.7626   0.7402   0.5436     H
H       0.7644   0.8953   0.8093     H
H       0.7684   0.1127   0.0112     H
C       0.7693   0.5684   0.0207     C
N       0.7772   0.0208   0.9192     N
C       0.7964   0.6552   0.7201     C
N       0.7973   0.4021   0.1689     N
C        0.806   0.4646   0.1103     C
C       0.8157   0.1385   0.2682     C
C        0.824   0.6945   0.6482     C
H       0.8369   0.1154   0.2204     H
O        0.847   0.5988   0.8462     O
H       0.8534   0.3687   0.1848     H
H       0.8559   0.9812    0.615     H
H       0.8571   0.0455   0.4944     H
C       0.8647     0.19   0.3963     C
N        0.873   0.5448   0.0128     N
C       0.8827   0.6344   0.7814     C
C       0.8919   0.0778   0.5358     C
C       0.8927   0.0392   0.6076     C
C       0.8938   0.1558   0.3259     C
H       0.8971   0.7083   0.6393     H
N       0.8999   0.4776   0.0719     N
O       0.9037   0.9587   0.7614     O
Zn     0.93954  0.02485   0.9016    Zn
C       0.9413     0.04    0.751     C
C       0.9425   0.1648   0.5238     C
C        0.946   0.0827   0.6705     C
O       0.9465   0.2113   0.4525     O
H       0.9607   0.7357   0.4244     H
Zn     0.96297  0.59713  0.92677    Zn
H       0.9631   0.8011   0.3008     H
H       0.9671   0.2365   0.8656     H
H       0.9674   0.1443    0.317     H
H       0.9701   0.8034   0.8496     H
N       0.9773   0.2682   0.9083     N
H       0.9789   0.3304   0.9076     H
O       0.9801   0.6528    0.772     O
O       0.9815   0.0924   0.8067     O
C       0.9828   0.8111   0.9028     C
N       0.9892   0.1229   0.9829     N
C       0.9909   0.2197   0.9773     C
N       0.9918   0.7373   0.9527     N
N       0.9941   0.8965   0.9374     N
