data_I
_chemical_name_common  '/home/zhangsd/repos/MofS-CGCNN/ML/data/WS24/clean_cifs/QIFLOI'
_cell_length_a 13.28280
_cell_length_b 13.28280
_cell_length_c 16.30210
_cell_angle_alpha 65.95870
_cell_angle_beta  65.95870
_cell_angle_gamma 89.99990
_space_group_name_H-M_alt      'P 1'


loop_
_space_group_symop_operation_xyz
  'x, y, z' 

loop_
_atom_site_label
_atom_site_fract_x
_atom_site_fract_y
_atom_site_fract_z
_atom_site_type_symbol
H        0.005   0.6814     0.65     H
N      0.01637  0.86647  0.51046     N
N      0.02068  0.67658  0.59524     N
H       0.0228   0.3053   0.7656     H
Zn     0.02411  0.91792  0.60971    Zn
C      0.02982  0.76682  0.51376     C
H       0.0303   0.6135    0.593     H
N      0.03059  0.93669  0.41262     N
C      0.05083  0.87343  0.36554     C
N      0.05424  0.76614  0.42392     N
O      0.05938  0.13538  0.18164     O
N      0.06331  0.44321  0.58738     N
O      0.06946  0.22176  0.26908     O
N       0.0707   0.9083     0.27     N
H       0.0709   0.9772   0.2344     H
Zn     0.08208  0.63381  0.39029    Zn
H       0.0833   0.8619   0.2442     H
N       0.0917   0.3407     0.73     N
C      0.09475  0.21765   0.1861     C
H       0.1061   0.9167   0.7558     H
C      0.12657  0.41637  0.63446     C
N      0.13353  0.52683  0.48954     N
O      0.13538  0.75898  0.18164     O
H       0.1381   0.3275   0.7558     H
H       0.1614   0.2556     -0.0     H
C      0.17332  0.31722  0.09056     C
N       0.1783   0.9293     0.73     N
N      0.19006  0.94576  0.57608     N
C       0.1944   0.3173      0.0     C
H       0.1989   0.4146   0.1504     H
H       0.2065   0.9697    0.407     H
H       0.2116   0.9291   0.7656     H
C      0.21765  0.71915   0.1861     C
C       0.2188   0.4106   0.0904     C
O      0.22176  0.66146  0.26908     O
C      0.23318  0.54358  0.48624     C
N      0.23386  0.47816  0.57608     N
C      0.23897  0.94917  0.63446     C
O      0.24102  0.31702  0.81836     O
H       0.2556   0.8386     -0.0     H
C      0.26388  0.40778  0.90944     C
N      0.27182  0.97932  0.40476     N
C      0.28058  0.97018  0.48624     C
C      0.28085  0.40375   0.8139     C
C       0.2951   0.4993      0.0     C
H       0.3053   0.2116   0.7656     H
C       0.3092    0.501   0.9096     C
O      0.31702  0.94062  0.81836     O
C      0.31722  0.73612  0.09056     C
C       0.3173   0.8056      0.0     C
H       0.3186    0.655     0.35     H
N      0.32342  0.61592  0.40476     N
H       0.3275   0.1061   0.7558     H
H       0.3314    0.995     0.35     H
H       0.3357   0.5563     -0.0     H
O      0.33854  0.49084  0.73092     O
N       0.3407   0.1783     0.73     N
H        0.345   0.6686     0.65     H
H       0.3493    0.565   0.8496     H
N      0.34931  0.96941  0.58738     N
Zn     0.36618  0.47237  0.60971    Zn
H       0.3767   0.7935    0.593     H
N      0.37693  0.98363  0.48954     N
N      0.38408  0.72818  0.59524     N
H       0.3865   0.6233    0.407     H
C      0.40375  0.90525   0.8139     C
C      0.40778  0.82668  0.90944     C
C       0.4106   0.6908   0.0904     C
H       0.4146   0.6507   0.1504     H
C      0.41637  0.23897  0.63446     C
H        0.435   0.1989   0.1504     H
N      0.44321  0.34931  0.58738     N
H       0.4437   0.3357      0.0     H
C      0.45642  0.71942  0.51376     C
Zn     0.47237   0.0241  0.60971    Zn
N      0.47317  0.62307  0.51046     N
N      0.47816  0.19006  0.57608     N
O      0.49084  0.93054  0.73092     O
C        0.499   0.2188   0.0904     C
C       0.4993   0.7049      1.0     C
C       0.5007   0.2951      0.0     C
C        0.501   0.7812   0.9096     C
O      0.50916  0.06946  0.26908     O
N      0.52184  0.80994  0.42392     N
N      0.52683  0.37693  0.48954     N
Zn     0.52764   0.9759  0.39028    Zn
C      0.54358  0.28058  0.48624     C
H       0.5563   0.6643      0.0     H
N      0.55679  0.65069  0.41262     N
H        0.565   0.8011   0.8496     H
C      0.58363  0.76103  0.36554     C
H       0.5854   0.3493   0.8496     H
C       0.5894   0.3092   0.9096     C
C      0.59222  0.17332  0.09056     C
C      0.59625  0.09475   0.1861     C
H       0.6135   0.3767    0.593     H
N      0.61592  0.27182  0.40476     N
N      0.62307  0.01637  0.51046     N
H       0.6233   0.2065    0.407     H
Zn     0.63382  0.52764  0.39028    Zn
N      0.65069  0.03059  0.41262     N
H       0.6507    0.435   0.1504     H
H        0.655   0.3314     0.35     H
N       0.6593   0.8217     0.27     N
O      0.66146  0.50916  0.26908     O
H       0.6643   0.4437      0.0     H
H       0.6686    0.005     0.65     H
H       0.6725   0.8939   0.2442     H
N      0.67658  0.38408  0.59524     N
H       0.6814    0.345     0.65     H
C       0.6827   0.1944      0.0     C
C      0.68278  0.26388  0.90944     C
O      0.68298  0.05938  0.18164     O
C       0.6908    0.499   0.0904     C
H       0.6947   0.7884   0.2344     H
C       0.7049   0.5007      0.0     C
C      0.71915  0.59625   0.1861     C
C      0.71942  0.02982  0.51376     C
N      0.72818  0.02068  0.59524     N
C      0.73612  0.59222  0.09056     C
H       0.7444   0.1614     -0.0     H
O      0.75898  0.68298  0.18164     O
C      0.76103  0.05083  0.36554     C
N      0.76614  0.52184  0.42392     N
C      0.76682  0.45642  0.51376     C
O      0.77824  0.33854  0.73092     O
C       0.7812   0.5894   0.9096     C
C      0.78235  0.28085   0.8139     C
H       0.7884   0.0709   0.2344     H
H       0.7935   0.0303    0.593     H
H       0.8011   0.5854   0.8496     H
C       0.8056   0.6827      0.0     C
N      0.80994  0.05424  0.42392     N
N       0.8217   0.0707     0.27     N
C      0.82668  0.68278  0.90944     C
H       0.8386   0.7444      0.0     H
H       0.8619   0.6725   0.2442     H
O      0.86462  0.24102  0.81836     O
N      0.86647  0.47317  0.51046     N
C      0.87343  0.58363  0.36554     C
H       0.8939   0.0833   0.2442     H
C      0.90525  0.78235   0.8139     C
N       0.9083   0.6593     0.27     N
H       0.9167   0.1381   0.7558     H
Zn     0.91792  0.36619  0.60971    Zn
H       0.9291   0.0228   0.7656     H
N       0.9293   0.0917     0.73     N
O      0.93054  0.77824  0.73092     O
N      0.93669  0.55679  0.41262     N
O      0.94062  0.86462  0.81836     O
N      0.94576  0.23386  0.57608     N
C      0.94917  0.12657  0.63446     C
N      0.96941  0.06331  0.58738     N
H       0.9697   0.3865    0.407     H
C      0.97018  0.23318  0.48624     C
Zn     0.97589  0.08208  0.39029    Zn
H       0.9772   0.6947   0.2344     H
N      0.97932  0.32342  0.40476     N
N      0.98363  0.13353  0.48954     N
H        0.995   0.3186     0.35     H
