data_I
_chemical_name_common  '/home/zhangsd/repos/MofS-CGCNN/ML/data/WS24/clean_cifs/QIWGIO'
_cell_length_a 14.19000
_cell_length_b 14.19000
_cell_length_c 15.81792
_cell_angle_alpha 63.34983
_cell_angle_beta  63.34983
_cell_angle_gamma 60.00000
_space_group_name_H-M_alt      'P 1'


loop_
_space_group_symop_operation_xyz
  'x, y, z' 

loop_
_atom_site_label
_atom_site_fract_x
_atom_site_fract_y
_atom_site_fract_z
_atom_site_type_symbol
O      0.00429  0.06739  0.69463     O
C      0.00825  0.25125  0.15885     C
H       0.0131   0.3383    0.862     H
O      0.02984  0.85174  0.78868     O
C      0.02995  0.58625  0.73285     C
C      0.06629  0.46859  0.76453     C
O      0.06637  0.83647  0.60649     O
O      0.06739  0.23369  0.69463     O
Mg     0.06974  0.06974  0.79078    Mg
C      0.07794  0.83154  0.84748     C
C      0.07896  0.35056  0.22122     C
H       0.0793   0.6224   0.6802     H
O      0.08532  0.90252  0.86914     O
O      0.09748  0.91468  0.13086     O
H       0.1037   0.3831   0.2445     H
H        0.109   0.1531   0.0093     H
C      0.11447  0.25917  0.11319     C
H       0.1276   0.6443   0.8089     H
C      0.13121  0.70721  0.90067     C
O      0.14156  0.70536  0.48162     O
O      0.14302  0.08532  0.86914     O
O      0.14826  0.97016  0.21132     O
C      0.15016  0.62356  0.86512     C
N      0.15037  0.30717  0.14499     N
H       0.1531   0.7286   0.0093     H
O      0.16353  0.93363  0.39351     O
C      0.16509  0.67349  0.98323     C
C      0.16846  0.92206  0.15252     C
C      0.17819  0.16509  0.98323     C
C      0.18554  0.39794  0.71458     C
C      0.19817  0.21687  0.02709     C
O      0.20037  0.30837  0.70489     O
C      0.20195  0.51015  0.91195     C
H       0.2134   0.6617    0.138     H
O      0.21363  0.69163  0.29511     O
H       0.2143    0.454   0.8869     H
C      0.21687  0.55787  0.02709     C
Mg    0.22057778 0.77944444 0.49996667    Mg
O      0.23369  0.00429  0.69463     O
N      0.23574  0.47654  0.99148     N
C      0.24304  0.07794  0.84748     C
C      0.25125  0.58165  0.15885     C
C      0.25917  0.51317  0.11319     C
C      0.26091  0.13121  0.90067     C
O      0.26199  0.43249  0.68923     O
H       0.2687   0.1037   0.2445     H
H       0.2714   0.8469   0.9907     H
O      0.28141  0.63891  0.61177     O
C      0.29279  0.86879  0.09933     C
O      0.29464  0.85844  0.51838     O
N      0.29624  0.23574  0.99148     N
C      0.29806  0.60206  0.28542     C
C      0.29941  0.53141  0.23547     C
N      0.30717  0.39747  0.14499     N
O      0.30837  0.78637  0.70489     O
Ru    0.31064933 0.31064933 0.068052    Ru
C      0.32651  0.83491  0.01677     C
O      0.32854  0.29464  0.51838     O
O      0.32974  0.02984  0.78868     O
H       0.3383   0.7866    0.862     H
C      0.34905  0.41375  0.26715     C
C      0.34926  0.07896  0.22122     C
C      0.35056  0.34926  0.22122     C
H       0.3557   0.8724   0.1911     H
O      0.36109  0.71859  0.38823     O
C      0.36116  0.15016  0.86512     C
C      0.37595  0.20195  0.91195     C
C      0.37644  0.84984  0.13488     C
H       0.3776   0.9207   0.3198     H
H       0.3819   0.3776   0.3198     H
H       0.3831   0.2687   0.2445     H
O      0.38371  0.56751  0.31077     O
N      0.39747  0.15037  0.14499     N
C      0.39794  0.70194  0.71458     C
C      0.41375  0.97005  0.26715     C
C      0.41835  0.74875  0.84115     C
H       0.4192   0.1276   0.8089     H
O      0.43249  0.61629  0.68923     O
C      0.44213  0.78313  0.97291     C
H       0.4448   0.2143   0.8869     H
H        0.454   0.4448   0.8869     H
O      0.46791  0.28141  0.61177     O
C      0.46859  0.70059  0.76453     C
N      0.47654  0.29624  0.99148     N
C      0.48683  0.74083  0.88681     C
C      0.48985  0.79805  0.08805     C
O      0.49067  0.06637  0.60649     O
Mg    0.50001111 0.22057778 0.49996667    Mg
O      0.50933  0.16353  0.39351     O
C      0.51015  0.37595  0.91195     C
C      0.51317  0.11447  0.11319     C
N      0.52346  0.76426  0.00852     N
C      0.53141  0.93371  0.23547     C
O      0.53209  0.36109  0.38823     O
H        0.546   0.7857   0.1131     H
H       0.5552    0.546   0.1131     H
C      0.55787  0.19817  0.02709     C
O      0.56751  0.73801  0.31077     O
H       0.5808   0.3557   0.1911     H
C      0.58165  0.00825  0.15885     C
C      0.58625  0.65095  0.73285     C
C      0.60206  0.81446  0.28542     C
N      0.60253  0.69283  0.85501     N
O      0.61629  0.26199  0.68923     O
H       0.6169   0.8963   0.7555     H
H       0.6181   0.0793   0.6802     H
H       0.6224   0.6181   0.6802     H
C      0.62356  0.36116  0.86512     C
C      0.62405  0.48985  0.08805     C
C      0.63884  0.37644  0.13488     C
O      0.63891  0.46791  0.61177     O
H       0.6443   0.4192   0.8089     H
C      0.64944  0.92104  0.77878     C
C      0.65074  0.64944  0.77878     C
C      0.65095  0.02995  0.73285     C
H       0.6617   0.9869    0.138     H
O      0.67026  0.14826  0.21132     O
O      0.67146  0.14156  0.48162     O
C      0.67349  0.17819  0.98323     C
Ru    0.68935067 0.68935067 0.931948    Ru
O      0.69163  0.79963  0.29511     O
N      0.69283  0.84963  0.85501     N
C      0.70059  0.06629  0.76453     C
C      0.70194  0.18554  0.71458     C
N      0.70376  0.52346  0.00852     N
O      0.70536  0.67146  0.48162     O
C      0.70721  0.26091  0.90067     C
O      0.71859  0.53209  0.38823     O
H       0.7286    0.109   0.0093     H
H       0.7313   0.6169   0.7555     H
O      0.73801  0.38371  0.31077     O
C      0.73909  0.29279  0.09933     C
C      0.74083  0.88553  0.88681     C
C      0.74875  0.99175  0.84115     C
C      0.75696  0.16846  0.15252     C
N      0.76426  0.70376  0.00852     N
O      0.76631  0.93261  0.30537     O
Mg    0.77944444 0.50001111 0.49996667    Mg
C      0.78313  0.80183  0.97291     C
H       0.7857   0.5552   0.1131     H
O      0.78637  0.20037  0.70489     O
H       0.7866   0.0131    0.862     H
C      0.79805  0.62405  0.08805     C
O      0.79963  0.21363  0.29511     O
C      0.80183  0.44213  0.97291     C
C      0.81446  0.29806  0.28542     C
C      0.82181  0.32651  0.01677     C
C      0.83154  0.24304  0.84748     C
C      0.83491  0.82181  0.01677     C
O      0.83647  0.49067  0.60649     O
H       0.8469    0.891   0.9907     H
N      0.84963  0.60253  0.85501     N
C      0.84984  0.63884  0.13488     C
O      0.85174  0.32974  0.78868     O
O      0.85698  0.09748  0.13086     O
O      0.85844  0.32854  0.51838     O
C      0.86879  0.73909  0.09933     C
H       0.8724   0.5808   0.1911     H
C      0.88553  0.48683  0.88681     C
H        0.891   0.2714   0.9907     H
H       0.8963   0.7313   0.7555     H
O      0.90252  0.14302  0.86914     O
O      0.91468  0.85698  0.13086     O
H       0.9207   0.3819   0.3198     H
C      0.92104  0.65074  0.77878     C
C      0.92206  0.75696  0.15252     C
Mg     0.93026  0.93026  0.20922    Mg
O      0.93261  0.99571  0.30537     O
O      0.93363  0.50933  0.39351     O
C      0.93371  0.29941  0.23547     C
C      0.97005  0.34905  0.26715     C
O      0.97016  0.67026  0.21132     O
H       0.9869   0.2134    0.138     H
C      0.99175  0.41835  0.84115     C
O      0.99571  0.76631  0.30537     O
