data_I
_chemical_name_common  '/home/zhangsd/repos/MofS-CGCNN/ML/data/WS24/clean_cifs/QOCBEQ'
_cell_length_a 12.28400
_cell_length_b 16.76400
_cell_length_c 16.76400
_cell_angle_alpha 90.00000
_cell_angle_beta  90.00000
_cell_angle_gamma 90.00000
_space_group_name_H-M_alt      'P 1'


loop_
_space_group_symop_operation_xyz
  'x, y, z' 

loop_
_atom_site_label
_atom_site_fract_x
_atom_site_fract_y
_atom_site_fract_z
_atom_site_type_symbol
Ni         0.0      0.0      0.0    Ni
Ni         0.0      0.0      0.5    Ni
Ni         0.0      0.5      0.0    Ni
Ni         0.0      0.5      0.5    Ni
H       0.0006   0.1811   0.5645     H
H       0.0006   0.3189   0.9355     H
H       0.0006   0.5645   0.3189     H
H       0.0006   0.9355   0.1811     H
H       0.0108   0.0625    0.326     H
H       0.0108    0.174   0.0625     H
H       0.0108    0.326   0.4375     H
H       0.0108   0.4375    0.174     H
H       0.0155    0.116   0.1886     H
H       0.0155   0.1886    0.384     H
H       0.0155   0.3114    0.116     H
H       0.0155    0.384   0.3114     H
C       0.0422   0.0853   0.1436     C
C       0.0422   0.1436   0.4147     C
C       0.0422   0.3564   0.0853     C
C       0.0422   0.4147   0.3564     C
N       0.0423  0.53002   0.6162     N
N       0.0423   0.6162  0.96998     N
N       0.0423   0.8838  0.53002     N
N       0.0423  0.96998   0.8838     N
H       0.0483   0.1666   0.9208     H
H       0.0483   0.3334   0.5792     H
H       0.0483   0.5792   0.1666     H
H       0.0483   0.9208   0.3334     H
C       0.0659   0.0351   0.8293     C
C       0.0659   0.4649   0.6707     C
C       0.0659   0.6707   0.0351     C
C       0.0659   0.8293   0.4649     C
C       0.0727   0.0762   0.3592     C
C       0.0727   0.1408   0.0762     C
C       0.0727   0.3592   0.4238     C
C       0.0727   0.4238   0.1408     C
H       0.0913   0.0133   0.7791     H
H       0.0913   0.4867   0.7209     H
H       0.0913   0.7209   0.0133     H
H       0.0913   0.7791   0.4867     H
H       0.1046   0.5592   0.6126     H
H       0.1046   0.6126   0.9408     H
H       0.1046   0.8874   0.5592     H
H       0.1046   0.9408   0.8874     H
H       0.1058   0.0556   0.1608     H
H       0.1058   0.1608   0.4444     H
H       0.1058   0.3392   0.0556     H
H       0.1058   0.4444   0.3392     H
N       0.1067  0.00589  0.40579     N
N       0.1067  0.09421  0.00589     N
N       0.1067  0.40579  0.49411     N
N       0.1067  0.49411  0.09421     N
C       0.1174   0.1411   0.9324     C
C       0.1174   0.3589   0.5676     C
C       0.1174   0.5676   0.1411     C
C       0.1174   0.9324   0.3589     C
O      0.12254  0.04796  0.57258     O
O      0.12254  0.45204  0.92742     O
O      0.12254  0.57258  0.45204     O
O      0.12254  0.92742  0.04796     O
H       0.1318    0.093   0.3246     H
H       0.1318   0.1754    0.093     H
H       0.1318   0.3246    0.407     H
H       0.1318    0.407   0.1754     H
C       0.1511   0.0918    0.862     C
C       0.1511   0.4082    0.638     C
C       0.1511    0.638   0.0918     C
C       0.1511    0.862   0.4082     C
H       0.1709   0.1829   0.9409     H
H       0.1709   0.3171   0.5591     H
H       0.1709   0.5591   0.1829     H
H       0.1709   0.9409   0.3171     H
H       0.1729   0.1277   0.8194     H
H       0.1729   0.3723   0.6806     H
H       0.1729   0.6806   0.1277     H
H       0.1729   0.8194   0.3723     H
H       0.1735    0.017   0.4264     H
H       0.1735   0.0736    0.017     H
H       0.1735   0.4264    0.483     H
H       0.1735    0.483   0.0736     H
C       0.1998   0.0191   0.6078     C
C       0.1998   0.4809   0.8922     C
C       0.1998   0.6078   0.4809     C
C       0.1998   0.8922   0.0191     C
H       0.2147   0.0609   0.8769     H
H       0.2147   0.4391   0.6231     H
H       0.2147   0.6231   0.0609     H
H       0.2147   0.8769   0.4391     H
H       0.2161   0.1763   0.5958     H
H       0.2161   0.3237   0.9042     H
H       0.2161   0.5958   0.3237     H
H       0.2161   0.9042   0.1763     H
O       0.2205  0.55225   0.8842     O
O       0.2205   0.6158  0.55225     O
O       0.2205   0.8842  0.94775     O
O       0.2205  0.94775   0.6158     O
C       0.2708  0.15824  0.62967     C
C       0.2708  0.34176  0.87033     C
C       0.2708  0.62967  0.34176     C
C       0.2708  0.87033  0.15824     C
C       0.2792  0.07774  0.64521     C
C       0.2792  0.42226  0.85479     C
C       0.2792  0.64521  0.42226     C
C       0.2792  0.85479  0.07774     C
H       0.3327   0.2341   0.8482     H
H       0.3327   0.2659   0.6518     H
H       0.3327   0.6518   0.2341     H
H       0.3327   0.8482   0.2659     H
C       0.3406  0.21179   0.6627     C
C       0.3406  0.28821   0.8373     C
C       0.3406   0.6627  0.28821     C
C       0.3406   0.8373  0.21179     C
C       0.3598   0.0524    0.696     C
C       0.3598   0.4476    0.804     C
C       0.3598    0.696   0.4476     C
C       0.3598    0.804   0.0524     C
H       0.3662   0.5017   0.7924     H
H       0.3662   0.7076   0.5017     H
H       0.3662   0.7924   0.9983     H
H       0.3662   0.9983   0.7076     H
C       0.4242  0.18581  0.71293     C
C       0.4242  0.31419  0.78707     C
C       0.4242  0.71293  0.31419     C
C       0.4242  0.78707  0.18581     C
C       0.4317   0.1059   0.7299     C
C       0.4317   0.3941   0.7701     C
C       0.4317   0.7299   0.3941     C
C       0.4317   0.7701   0.1059     C
H       0.4854   0.0877   0.7645     H
H       0.4854   0.4123   0.7355     H
H       0.4854   0.7355   0.0877     H
H       0.4854   0.7645   0.4123     H
C          0.5     0.25     0.75     C
C          0.5     0.75     0.25     C
H       0.5146   0.2355   0.5877     H
H       0.5146   0.2645   0.9123     H
H       0.5146   0.5877   0.2645     H
H       0.5146   0.9123   0.2355     H
C       0.5683   0.2299   0.8941     C
C       0.5683   0.2701   0.6059     C
C       0.5683   0.6059   0.2299     C
C       0.5683   0.8941   0.2701     C
C       0.5758  0.21293  0.81419     C
C       0.5758  0.28707  0.68581     C
C       0.5758  0.68581  0.21293     C
C       0.5758  0.81419  0.28707     C
H       0.6338   0.0017   0.2924     H
H       0.6338   0.2076   0.0017     H
H       0.6338   0.2924   0.4983     H
H       0.6338   0.4983   0.2076     H
C       0.6402    0.196   0.9476     C
C       0.6402    0.304   0.5524     C
C       0.6402   0.5524    0.196     C
C       0.6402   0.9476    0.304     C
C       0.6594   0.1627  0.78821     C
C       0.6594   0.3373  0.71179     C
C       0.6594  0.71179   0.1627     C
C       0.6594  0.78821   0.3373     C
H       0.6673   0.1518   0.7341     H
H       0.6673   0.3482   0.7659     H
H       0.6673   0.7341   0.3482     H
H       0.6673   0.7659   0.1518     H
C       0.7208  0.14521  0.92226     C
C       0.7208  0.35479  0.57774     C
C       0.7208  0.57774  0.14521     C
C       0.7208  0.92226  0.35479     C
C       0.7292  0.12967  0.84176     C
C       0.7292  0.37033  0.65824     C
C       0.7292  0.65824  0.12967     C
C       0.7292  0.84176  0.37033     C
O       0.7795  0.05225   0.3842     O
O       0.7795   0.1158  0.05225     O
O       0.7795   0.3842  0.44775     O
O       0.7795  0.44775   0.1158     O
H       0.7839   0.0958   0.8237     H
H       0.7839   0.4042   0.6763     H
H       0.7839   0.6763   0.0958     H
H       0.7839   0.8237   0.4042     H
H       0.7853   0.1231   0.5609     H
H       0.7853   0.3769   0.9391     H
H       0.7853   0.5609   0.3769     H
H       0.7853   0.9391   0.1231     H
C       0.8002   0.1078   0.9809     C
C       0.8002   0.3922   0.5191     C
C       0.8002   0.5191   0.1078     C
C       0.8002   0.9809   0.3922     C
H       0.8265    0.517   0.9264     H
H       0.8265   0.5736    0.517     H
H       0.8265   0.9264    0.983     H
H       0.8265    0.983   0.5736     H
H       0.8271   0.1806   0.6277     H
H       0.8271   0.3194   0.8723     H
H       0.8271   0.6277   0.3194     H
H       0.8271   0.8723   0.1806     H
H       0.8291   0.0591   0.6829     H
H       0.8291   0.4409   0.8171     H
H       0.8291   0.6829   0.4409     H
H       0.8291   0.8171   0.0591     H
C       0.8489    0.138   0.5918     C
C       0.8489    0.362   0.9082     C
C       0.8489   0.5918    0.362     C
C       0.8489   0.9082    0.138     C
H       0.8682    0.593   0.8246     H
H       0.8682   0.6754    0.593     H
H       0.8682   0.8246    0.907     H
H       0.8682    0.907   0.6754     H
O      0.87746  0.07258  0.95204     O
O      0.87746  0.42742  0.54796     O
O      0.87746  0.54796  0.07258     O
O      0.87746  0.95204  0.42742     O
C       0.8826   0.0676   0.6411     C
C       0.8826   0.4324   0.8589     C
C       0.8826   0.6411   0.4324     C
C       0.8826   0.8589   0.0676     C
N       0.8933  0.50589  0.90579     N
N       0.8933  0.59421  0.50589     N
N       0.8933  0.90579  0.99411     N
N       0.8933  0.99411  0.59421     N
H       0.8942   0.5556   0.6608     H
H       0.8942   0.6608   0.9444     H
H       0.8942   0.8392   0.5556     H
H       0.8942   0.9444   0.8392     H
H       0.8954   0.0592   0.1126     H
H       0.8954   0.1126   0.4408     H
H       0.8954   0.3874   0.0592     H
H       0.8954   0.4408   0.3874     H
H       0.9087   0.2209   0.5133     H
H       0.9087   0.2791   0.9867     H
H       0.9087   0.5133   0.2791     H
H       0.9087   0.9867   0.2209     H
C       0.9273   0.5762   0.8592     C
C       0.9273   0.6408   0.5762     C
C       0.9273   0.8592   0.9238     C
C       0.9273   0.9238   0.6408     C
C       0.9341   0.1707   0.5351     C
C       0.9341   0.3293   0.9649     C
C       0.9341   0.5351   0.3293     C
C       0.9341   0.9649   0.1707     C
H       0.9517   0.0792   0.6666     H
H       0.9517   0.4208   0.8334     H
H       0.9517   0.6666   0.4208     H
H       0.9517   0.8334   0.0792     H
N       0.9577  0.03002   0.1162     N
N       0.9577   0.1162  0.46998     N
N       0.9577   0.3838  0.03002     N
N       0.9577  0.46998   0.3838     N
C       0.9578   0.5853   0.6436     C
C       0.9578   0.6436   0.9147     C
C       0.9578   0.8564   0.5853     C
C       0.9578   0.9147   0.8564     C
H       0.9845    0.616   0.6886     H
H       0.9845   0.6886    0.884     H
H       0.9845   0.8114    0.616     H
H       0.9845    0.884   0.8114     H
H       0.9892   0.5625    0.826     H
H       0.9892    0.674   0.5625     H
H       0.9892    0.826   0.9375     H
H       0.9892   0.9375    0.674     H
H       0.9994   0.0645   0.8189     H
H       0.9994   0.4355   0.6811     H
H       0.9994   0.6811   0.0645     H
H       0.9994   0.8189   0.4355     H
