data_I
_chemical_name_common  '/home/zhangsd/repos/MofS-CGCNN/ML/data/WS24/clean_cifs/QOKWIY'
_cell_length_a 14.28220
_cell_length_b 16.10030
_cell_length_c 17.39730
_cell_angle_alpha 76.49100
_cell_angle_beta  67.17200
_cell_angle_gamma 87.53300
_space_group_name_H-M_alt      'P 1'


loop_
_space_group_symop_operation_xyz
  'x, y, z' 

loop_
_atom_site_label
_atom_site_fract_x
_atom_site_fract_y
_atom_site_fract_z
_atom_site_type_symbol
H       0.0024   0.1175   0.1741     H
C       0.0025   0.5033   0.3943     C
H       0.0097   0.2087   0.8728     H
O      0.01073   0.6265   0.4986     O
H       0.0111   0.8663   0.5062     H
C       0.0145    0.791   0.1717     C
H       0.0193   0.4804   0.3446     H
C       0.0235  0.02414   0.3917     C
H        0.026    0.442   0.6151     H
H       0.0311   0.1054   0.0809     H
H       0.0323   0.0591   0.3363     H
H        0.033   0.0591   0.4261     H
H       0.0422   0.8145   0.4326     H
H       0.0439   0.0026   0.5808     H
C       0.0449  0.43196  0.17123     C
H        0.046   0.2093   0.7036     H
H       0.0482   0.7391   0.1815     H
C       0.0508   0.8256   0.1959     C
C       0.0525   0.0971    0.128     C
H        0.055   0.5558   0.1814     H
H       0.0557   0.3181   0.7823     H
H       0.0571   0.2416   0.8565     H
H       0.0598   0.9218   0.2819     H
H       0.0602   0.0373   0.1475     H
S      0.06032  0.58005  0.59054     S
H       0.0605   0.8587   0.1395     H
H       0.0614   0.8392   0.1544     H
H       0.0616   0.8484   0.5029     H
H       0.0627    0.407   0.2205     H
H       0.0629   0.5099   0.4045     H
H       0.0673    0.551    0.089     H
C       0.0704   0.5685    0.798     C
H       0.0717   0.4479   0.5706     H
C       0.0719  0.20401  0.74898     C
H       0.0728   0.8595   0.2251     H
C       0.0803   0.8885  0.48286     C
S      0.08416  0.56497  0.51849     S
C       0.0849   0.5255   0.1369     C
O      0.08701  0.25647  0.21468     O
C       0.0873   0.2659   0.7958     C
C      0.08772  0.37841  0.10545     C
H       0.0882   0.9243   0.5173     H
H        0.089   0.5496   0.8465     H
C       0.0894  0.84584   0.4437     C
H         0.09   0.7757   0.1912     H
H       0.0904   0.4698   0.0025     H
H       0.0961   0.5308     0.76     H
O       0.0974  0.27868  0.34602     O
H       0.0989   0.6255   0.7682     H
C       0.1029  0.41277  0.01984     C
C      0.10755  0.29307  0.12848     C
S      0.11079  0.94725  0.38006     S
Zn     0.11798 0.326477  0.42989    Zn
O      0.11821  0.10579  0.62326     O
H       0.1184   0.7118   0.9643     H
H       0.1185   0.3326   0.7158     H
C       0.1212  0.49263   0.5588     C
C        0.123   0.9429  0.27945     C
H       0.1235   0.8559   0.6861     H
H       0.1246   0.8419   0.4828     H
C      0.12628  0.12167  0.75402     C
H       0.1275   0.7053   0.8732     H
O      0.13134  0.24732  0.52541     O
H       0.1332   0.7951    0.892     H
H       0.1361   0.1155   0.8675     H
C       0.1363   0.3632  0.96085     C
C      0.14001  0.24069  0.07039     C
H       0.1404   0.9991   0.2422     H
H       0.1431   0.6977    0.582     H
H       0.1471   0.3871   0.9038     H
C       0.1505   0.7365   0.9038     C
C      0.15106  0.07616  0.68972     C
C       0.1511   0.2795   0.7215     C
C       0.1523  0.14554  0.09913     C
H       0.1523   0.8176   0.4313     H
C       0.1528  0.08733  0.82333     C
C       0.1538  0.27818  0.98585     C
H       0.1575   0.5283   0.1189     H
H       0.1588   0.2776   0.7787     H
H       0.1619    0.508   0.4984     H
H       0.1632   0.7253   0.3066     H
H        0.164   0.4729   0.5897     H
P      0.16418  0.25724  0.26204     P
C      0.16466    0.645   0.5654     C
H       0.1674   0.6273   0.5763     H
H       0.1718    0.137   0.1485     H
O      0.17267  0.11503  0.46933     O
H       0.1752   0.2452   0.9454     H
H       0.1756   0.9053   0.2577     H
H       0.1792   0.2749   0.7642     H
C      0.18454   0.5848   0.5431     C
P      0.18466  0.16386  0.52935     P
H       0.1933   0.6295   0.2115     H
C       0.1957   0.8614   0.6541     C
H       0.1959   0.9791   0.5842     H
H       0.1996   0.5331   0.5757     H
C       0.2008  0.00028  0.69348     C
O      0.20137  0.16746  0.27468     O
C       0.2031  0.01257  0.82829     C
H       0.2037   0.6568   0.5046     H
H       0.2046   0.2775   0.6675     H
H       0.2057    0.617   0.5952     H
H       0.2117   0.1101   0.9844     H
H       0.2124   0.8358   0.6061     H
H        0.215   0.7459   0.0355     H
O      0.21578  0.42143  0.38273     O
O      0.21754  0.97948   0.3619     O
H       0.2211   0.9914   0.8749     H
C       0.2264   0.9697  0.76496     C
C       0.2293   0.9525   0.6229     C
H       0.2294    0.833   0.6905     H
C       0.2332   0.1087   0.0306     C
C       0.2343   0.7277   0.2961     C
H       0.2425   0.5983   0.3289     H
H       0.2426   0.7372   0.3456     H
H       0.2429   0.0507    0.055     H
H       0.2429   0.6053   0.4911     H
O      0.24779  0.32463  0.20346     O
Zn      0.2511 0.100222 0.355575    Zn
H       0.2599   0.9191   0.7691     H
C       0.2633   0.6228   0.2038     C
C       0.2664  0.78725  0.99942     C
C      0.26645  0.73249  0.87513     C
H       0.2675   0.6219   0.9621     H
H       0.2687   0.7737   0.2474     H
H       0.2688   0.6045   0.8768     H
H        0.272   0.8383   0.0928     H
C       0.2796   0.6433    0.278     C
H       0.2801   0.5648   0.2014     H
O      0.29197  0.17235   0.5241     O
C       0.2954  0.64107   0.9007     C
H        0.296   0.1421   0.0092     H
H       0.2971   0.7511   0.8124     H
C       0.3004   0.8424  0.03392     C
H        0.306   0.6609   0.1513     H
C      0.30753  0.79223  0.91129     C
H       0.3105   0.4023   0.0212     H
H        0.313   0.4412   0.6428     H
H       0.3211   0.5326   0.7442     H
P      0.32928  0.42251  0.36054     P
H       0.3384   0.3612   0.7656     H
H       0.3402   0.8031   0.4477     H
H       0.3464   0.9985   0.1825     H
C       0.3491   0.9659   0.5692     C
H        0.352   0.1204   0.6786     H
H       0.3524   0.6053   0.6598     H
O      0.35496  0.51283  0.37522     O
O       0.3587  0.35695  0.42325     O
H       0.3645   0.9603   0.5119     H
H       0.3648    0.116   0.6404     H
H       0.3651   0.2202   0.6594     H
H       0.3659   0.5132   0.5594     H
H       0.3682   0.6392   0.8794     H
H       0.3717   0.0219   0.5673     H
C       0.3721   0.4239   0.9726     C
H       0.3731   0.4046   0.9241     H
H       0.3737   0.0957   0.1684     H
H       0.3752   0.4853   0.9595     H
H        0.376   0.2641   0.0697     H
C       0.3768  0.90366  0.98093     C
C       0.3773   0.4665      0.6     C
C       0.3774   0.5626   0.6948     C
Zn     0.38089 0.350852 0.199013    Zn
H       0.3832   0.9235   0.5962     H
C       0.3861  0.85412  0.86007     C
C       0.3891  0.64053  0.26547     C
O      0.39073  0.42398  0.26764     O
O      0.39316  0.10711  0.32585     O
H       0.3935   0.2547   0.8475     H
H       0.3946   0.7567   0.3631     H
C       0.3971   0.0442   0.1497     C
C       0.3987   0.1676  0.66556     C
H       0.3991   0.9408   0.0047     H
H          0.4   0.8583   0.3547     H
C      0.40357   0.8111   0.3988     C
C       0.4067   0.3617  0.75782     C
H       0.4077   0.1149   0.7109     H
Zn     0.40912  0.24685 0.444249    Zn
H       0.4094   0.0532     0.09     H
H        0.412   0.0803    0.847     H
H       0.4145   0.4243   0.5709     H
H       0.4166   0.7602   0.3774     H
C      0.42103  0.91113  0.89295     C
H       0.4211   0.5897    0.713     H
H        0.422   0.1623   0.7113     H
O      0.42448  0.86197  0.77158     O
C        0.425  0.12372   0.6504     C
C       0.4259  0.57483  0.31242     C
C       0.4375    0.499   0.6425     C
H       0.4393   0.7489   0.1718     H
C       0.4396   0.2975  0.80631     C
C       0.4444  0.27442  0.02745     C
O      0.44872  0.24618  0.21527     O
H        0.449   0.2548   0.9781     H
C       0.4604   0.7043    0.205     C
O      0.46236   0.4121  0.07917     O
H        0.466    0.067   0.9117     H
P      0.47256   0.1799  0.28073     P
H       0.4729   0.8909   0.1857     H
H       0.4733   0.0832   0.6284     H
C       0.4733  0.42816  0.69656     C
C       0.4747  0.06698   0.8542     C
S      0.47682  0.22525  0.59968     S
S       0.4779  0.38595  0.99663     S
H       0.4825   0.0183   0.2226     H
H         0.49   0.2441   0.0512     H
O       0.4913   0.2508  0.51581     O
C       0.4952  0.02105  0.16251     C
H       0.4984   0.5306   0.5966     H
S      0.49966  0.83226  0.42803     S
O      0.49988  0.78515  0.65689     O
O      0.50012  0.21485  0.34311     O
S      0.50034  0.16774  0.57197     S
H       0.5016   0.4694   0.4034     H
C       0.5048  0.97895  0.83749     C
O       0.5058   0.7588  0.49306     O
H         0.51   0.7559   0.9488     H
H       0.5175   0.9817   0.7774     H
S       0.5221  0.61405  0.00337     S
S      0.52318  0.77475  0.40032     S
C       0.5253  0.93302   0.1458     C
C       0.5267  0.57184  0.30344     C
H       0.5267   0.9168   0.3716     H
H       0.5271   0.1091   0.8143     H
P      0.52744   0.8201  0.71927     P
H        0.534    0.933   0.0883     H
O      0.53764   0.5879  0.92083     O
C       0.5396   0.2957    0.795     C
H        0.551   0.7452   0.0219     H
O      0.55128  0.75382  0.78473     O
C       0.5556  0.72558  0.97255     C
C       0.5604   0.7025  0.19369     C
H       0.5607   0.2511   0.8282     H
C       0.5625    0.501   0.3575     C
C       0.5741  0.42517  0.68758     C
C        0.575  0.87628   0.3496     C
O      0.57552  0.13803  0.22842     O
H        0.578   0.8377   0.2887     H
H       0.5789   0.4103    0.287     H
C      0.57897  0.08887  0.10705     C
H       0.5834   0.2398   0.6226     H
H       0.5835    0.146   0.6469     H
H       0.5855   0.5757   0.4291     H
H        0.588   0.9197    0.153     H
C      0.58939   0.2024   0.6111     C
H       0.5906   0.9468     0.91     H
Zn     0.59088  0.75315 0.555751    Zn
H       0.5923   0.8851   0.2891     H
C       0.5933   0.6383  0.24218     C
H       0.6009   0.0592   0.9953     H
C       0.6013   0.8324  0.33444     C
C       0.6029   0.9558   0.8503     C
H       0.6054   0.2433   0.6369     H
H       0.6065   0.7453   0.1525     H
O      0.60684  0.89289  0.67415     O
O      0.60927  0.57602  0.73236     O
C       0.6109  0.35947  0.73453     C
C       0.6139  0.14588  0.13993     C
H       0.6168   0.0765   0.4038     H
Zn     0.61911 0.649148 0.800987    Zn
C       0.6226   0.4374   0.3052     C
C       0.6227   0.5335      0.4     C
C       0.6232  0.09634  0.01907     C
H        0.624   0.7359   0.9303     H
H       0.6248   0.5147   0.0405     H
H       0.6263   0.9043   0.8316     H
H       0.6269   0.5954   0.0759     H
C       0.6279   0.5761   0.0274     C
H       0.6283   0.9781   0.4327     H
H       0.6318   0.3608   0.1206     H
H       0.6341   0.4868   0.4406     H
H       0.6349   0.7798   0.3406     H
H       0.6352    0.884   0.3596     H
H       0.6355   0.0397   0.4881     H
O       0.6413  0.64305  0.57675     O
H       0.6425    0.205   0.5557     H
O      0.64504  0.48717  0.62478     O
H       0.6476   0.3947   0.3402     H
H        0.648   0.8796   0.3214     H
C       0.6509   0.0341   0.4308     C
H       0.6536   0.0015   0.8175     H
H       0.6616   0.6388   0.2344     H
P      0.67072  0.57749  0.63946     P
H       0.6789   0.4674   0.2558     H
H        0.687   0.5588   0.3572     H
H       0.6895   0.5977   0.9788     H
C      0.69247  0.20777  0.08871     C
H        0.694   0.3391   0.8487     H
C       0.6996   0.1576  0.96608     C
H       0.7029   0.2489   0.1876     H
H        0.704   0.8579   0.9908     H
C       0.7046  0.35893   0.0993     C
O      0.70803  0.82765   0.4759     O
H       0.7199   0.4352   0.7986     H
C       0.7204   0.3567    0.722     C
H        0.728   0.1617   0.9072     H
H       0.7312   0.3955   0.1232     H
H       0.7313   0.2263   0.7526     H
H       0.7325   0.3781   0.0379     H
C      0.73355  0.26751  0.12487     C
C       0.7336  0.21275  0.00058     C
C       0.7367   0.3772   0.7962     C
H       0.7401   0.0809   0.2309     H
Zn      0.7489 0.899778 0.644425    Zn
O      0.75221  0.67537  0.79654     O
H       0.7571   0.3947   0.5089     H
H       0.7571   0.9493    0.945     H
H       0.7574   0.2628   0.6544     H
H       0.7575   0.4017   0.6711     H
C       0.7657   0.2723   0.7039     C
C       0.7668   0.8913   0.9694     C
H       0.7706    0.167   0.3095     H
C       0.7707   0.0475   0.3771     C
C       0.7736   0.0303  0.23504     C
H       0.7789   0.0086   0.1251     H
O      0.78246  0.02052   0.6381     O
O      0.78422  0.57857  0.61727     O
H        0.785   0.2541   0.9645     H
H       0.7876   0.1642   0.3939     H
H       0.7883   0.8899   0.0156     H
H       0.7943    0.383   0.4048     H
H       0.7954   0.7225   0.3325     H
H       0.7963   0.3432   0.4954     H
C       0.7969  0.98743  0.17171     C
O      0.79863  0.83254  0.72532     O
C       0.7992  0.99972  0.30652     C
H       0.8004   0.4669   0.4243     H
H       0.8041   0.0209   0.4158     H
C       0.8043   0.1386   0.3459     C
H       0.8067   0.3705   0.7885     H
P      0.81534  0.83614  0.47065     P
C      0.81546   0.4152   0.4569     C
H       0.8208   0.7251   0.2358     H
H       0.8244   0.0947   0.7423     H
H       0.8248   0.7548   0.0546     H
O      0.82733  0.88497  0.53067     O
H       0.8282    0.863   0.8515     H
H       0.8326   0.3727   0.4237     H
C      0.83534    0.355   0.4346     C
P      0.83582  0.74276  0.73796     P
H        0.836   0.5271   0.4103     H
H       0.8368   0.2747   0.6934     H
H       0.8381    0.492   0.5016     H
H       0.8412   0.7224   0.2213     H
H       0.8425   0.4717   0.8811     H
C       0.8462  0.72182  0.01415     C
C       0.8472  0.91267  0.17667     C
H       0.8477   0.1824   0.5687     H
C       0.8477  0.85446  0.90087     C
C       0.8489   0.7205   0.2785     C
C      0.84894  0.92384  0.31028     C
C       0.8495   0.2635   0.0962     C
H       0.8529   0.6129   0.0962     H
H       0.8569   0.3023    0.418     H
H       0.8596   0.0009   0.7578     H
C      0.85999  0.75931  0.92961     C
C       0.8637   0.6368  0.03915     C
H       0.8639   0.8845   0.1325     H
H       0.8668   0.2049    0.108     H
O      0.86866  0.75268  0.47459     O
H       0.8725   0.2947   0.1268     H
C      0.87372  0.87833  0.24598     C
H       0.8754   0.1581   0.5172     H
H       0.8765   0.1441   0.3139     H
C        0.877   0.0571  0.72055     C
C       0.8788  0.50737   0.4412     C
H       0.8815   0.6674   0.2842     H
H       0.8816   0.2882   0.0357     H
O      0.88179  0.89421  0.37674     O
Zn     0.88202 0.673523  0.57011    Zn
S      0.88921  0.05275  0.61994     S
C      0.89245  0.70693  0.87152     C
C       0.8971  0.58723  0.98016     C
H       0.9011   0.3745   0.2318     H
O       0.9026  0.72132  0.65398     O
H       0.9039   0.4692     0.24     H
H       0.9096   0.5302   0.9975     H
H         0.91   0.2243   0.8088     H
C       0.9106  0.15416   0.5563     C
H        0.911   0.4504   0.1535     H
H       0.9118   0.0757   0.4827     H
C      0.91228  0.62159  0.89455     C
C       0.9127   0.7341   0.2042     C
O      0.91299  0.74353  0.78532     O
C       0.9151   0.4745   0.8631     C
S      0.91584  0.43503  0.48151     S
C       0.9197   0.1115  0.51714     C
H       0.9272   0.1405   0.7749     H
C       0.9281  0.79599  0.25102     C
H       0.9283   0.5521   0.4294     H
C       0.9296   0.4315    0.202     C
H       0.9327    0.449    0.911     H
H       0.9371   0.4901   0.5955     H
H       0.9373    0.593   0.7795     H
H       0.9384   0.1516   0.4971     H
H       0.9386   0.1608   0.8456     H
H       0.9395   0.1413   0.8605     H
S      0.93968  0.41995  0.40946     S
H       0.9398   0.9627   0.8525     H
H       0.9402   0.0782   0.7181     H
H       0.9429   0.7584   0.1435     H
H       0.9443   0.6819   0.2177     H
H        0.945   0.4442   0.8186     H
C       0.9475   0.9029    0.872     C
C       0.9492   0.1744   0.8041     C
H       0.9518   0.2609   0.8185     H
H        0.954   0.7907   0.2964     H
C       0.9551  0.56804  0.82877     C
H       0.9561   0.9974   0.4192     H
H       0.9578   0.1855   0.5674     H
H        0.967   0.9409   0.5739     H
H       0.9677   0.9409   0.6637     H
H       0.9689   0.8946   0.9191     H
H        0.974    0.558   0.3849     H
C       0.9765  0.97586   0.6083     C
H       0.9807   0.5196   0.6554     H
O       0.9816  0.37723  0.47433     O
C       0.9855    0.209   0.8283     C
H       0.9889   0.1337   0.4938     H
H       0.9903   0.7913   0.1272     H
C       0.9975   0.4967   0.6057     C
H       0.9976   0.8825   0.8259     H
