data_I
_chemical_name_common  '/home/zhangsd/repos/MofS-CGCNN/ML/data/WS24/clean_cifs/QOKWEU'
_cell_length_a 10.35800
_cell_length_b 22.98263
_cell_length_c 35.37862
_cell_angle_alpha 88.10960
_cell_angle_beta  81.58235
_cell_angle_gamma 76.97689
_space_group_name_H-M_alt      'P 1'


loop_
_space_group_symop_operation_xyz
  'x, y, z' 

loop_
_atom_site_label
_atom_site_fract_x
_atom_site_fract_y
_atom_site_fract_z
_atom_site_type_symbol
H       0.0009    0.451    0.291     H
C       0.0047   0.5846    0.452     C
Zn     0.00735  0.31992  0.20752    Zn
H       0.0076   0.0434   0.7102     H
H       0.0087   0.9616   0.3338     H
C       0.0116    0.318   0.3948     C
O      0.01248  0.35006  0.25578     O
H       0.0133   0.0176   0.3058     H
C       0.0133   0.2646   0.4288     C
H       0.0142   0.4974   0.4952     H
H       0.0151   0.4386    0.702     H
P      0.02051  0.67666   0.7046     P
C       0.0257   0.5074   0.3032     C
H       0.0265   0.7814   0.5962     H
O       0.0275  0.83262  0.80818     O
H       0.0275   0.8924   0.6378     H
C       0.0276   0.0168    0.688     C
H       0.0282   0.2254   0.4166     H
H       0.0282   0.2368    0.124     H
H       0.0287   0.7018   0.6238     H
H       0.0291    0.513   0.2754     H
H       0.0297   0.9616   0.1662     H
H       0.0309   0.9824   0.8058     H
H       0.0332   0.5328   0.3368     H
C        0.034  0.39224  0.13796     C
Zn     0.03479  0.18008  0.29248    Zn
H       0.0348   0.0148   0.1816     H
C      0.03602   0.6118  0.64336     C
H       0.0378   0.5436   0.3146     H
C       0.0397     0.46   0.6786     C
O      0.04008   0.3598  0.32424     O
H       0.0401   0.6098   0.4334     H
C       0.0444   0.9832    0.188     C
C       0.0488  0.63904  0.60776     C
H       0.0492     0.02   0.2256     H
H       0.0496   0.9852   0.6816     H
H       0.0503   0.3238    0.451     H
H        0.051   0.9566   0.2102     H
C       0.0536   0.4364   0.5572     C
H       0.0537   0.4206   0.5824     H
O      0.05454  0.26102   0.2979     O
C       0.0553   0.4884    0.484     C
C      0.05602   0.5204  0.45096     C
H       0.0562   0.4378   0.0884     H
H       0.0577   0.6076   0.8622     H
H       0.0615   0.2242    0.079     H
C       0.0642  0.10776  0.36204     C
C       0.0678   0.7396   0.6008     C
C       0.0684   0.5238     0.69     C
H       0.0692     0.98   0.7256     H
H       0.0734   0.7276   0.5546     H
H       0.0746    0.041    0.703     H
H       0.0801   0.8924   0.8622     H
H       0.0824   0.0622   0.4116     H
H       0.0846    0.265    0.444     H
H       0.0915   0.2806   0.3706     H
C       0.0918   0.2396   0.1008     C
C       0.0942   0.0026    0.201     C
H       0.0959   0.2814   0.0962     H
H       0.0966   0.4734   0.3084     H
N      0.09664  0.36578  0.16714     N
C       0.0968   0.9974    0.701     C
C      0.09801   0.5522  0.64758     C
P      0.09823  0.17666   0.2046     P
C       0.1002   0.3914   0.5182     C
C      0.10193    0.419  0.10854     C
C       0.1078    0.296   0.4318     C
H        0.111   0.7368    0.624     H
O      0.11346  0.23898   0.2021     O
H       0.1156    0.959    0.203     H
O      0.11832  0.14994  0.24422     O
H        0.121   0.4362   0.6638     H
C      0.12371   0.6066  0.57638     C
C      0.12947    0.081  0.39146     C
N      0.12956  0.13422  0.33286     N
H       0.1302   0.2562   0.4432     H
H       0.1325   0.6252    0.552     H
C        0.133   0.5066   0.6774     C
H       0.1353   0.7242    0.579     H
H        0.139   0.3498   0.5162     H
O      0.13988  0.83262  0.69182     O
H       0.1405   0.7242    0.921     H
H        0.142   0.4184   0.5132     H
H       0.1444   0.2276   0.0546     H
H       0.1446   0.9378   0.9116     H
H       0.1457   0.2018   0.1238     H
C      0.14591   0.4382  0.48898     C
H       0.1476   0.4736   0.6584     H
H       0.1522   0.7368    0.876     H
O      0.15789   0.5162  0.38642     O
H       0.1596   0.2402   0.3774     H
C       0.1605   0.2814   0.3836     C
C      0.16197   0.4962  0.41866     C
H       0.1633   0.5176   0.8058     H
O      0.16432  0.66738  0.80818     O
H       0.1658    0.021    0.619     H
O       0.1683  0.66738  0.69182     O
C       0.1686   0.4146   0.5284     C
O      0.17001   0.1188  0.46358     O
H       0.1702   0.2746   0.0834     H
C      0.17196  0.89224  0.86204     C
C      0.17283  0.51974   0.6162     C
H       0.1792   0.0248   0.0592     H
C        0.183   0.0066   0.1774     C
C      0.18571    0.547  0.58058     C
C      0.18671    0.047  0.08058     C
H       0.1868    0.979    0.119     H
C       0.1896   0.9934   0.6774     C
H       0.1902   0.3098   0.4232     H
H       0.1903   0.1252    0.052     H
C      0.19123  0.01974   0.1162     C
H       0.1921   0.7814   0.9038     H
C       0.1926   0.7396   0.8992     C
C      0.19331   0.1066  0.07638     C
H        0.194   0.0264   0.6584     H
H       0.1959   0.4616   0.8338     H
H        0.199   0.7276   0.9454     H
C       0.2022   0.5026    0.701     C
C      0.20221   0.0522  0.14758     C
H       0.2035   0.2998   0.3614     H
H        0.204   0.9752   0.5592     H
C       0.2044  0.13904  0.10776     C
H       0.2052     0.52   0.7256     H
C       0.2067   0.2354   0.0712     C
C      0.20882   0.1118  0.14336     C
O       0.2092    0.536   0.3934     O
H         0.21   0.2812   0.4052     H
C      0.21047    0.919  0.89146     C
C      0.21097  0.98026   0.6162     C
H       0.2138      0.4   0.3622     H
C       0.2141    0.207   0.1056     C
Zn     0.21487  0.81992  0.79248    Zn
H       0.2152   0.0638   0.6638     H
H       0.2152    0.479    0.619     H
H       0.2164   0.5148   0.8184     H
H       0.2174   0.1116   0.5336     H
C       0.2178   0.0238     0.19     C
H       0.2204   0.9736   0.1584     H
H       0.2224    0.459    0.703     H
O      0.22412   0.1402  0.17576     O
C      0.22479   0.3716  0.16662     C
C      0.23124  0.41908  0.10784     C
C       0.2324   0.4832    0.812     C
O      0.23349   0.1452  0.45822     O
C      0.23371    0.953  0.58058     C
H       0.2368   0.5248   0.5592     H
H       0.2384   0.5248   0.9408     H
C       0.2416   0.9762     0.69     C
H       0.2423   0.6252    0.948     H
H       0.2427   0.2194   0.1294     H
H       0.2429    0.049    0.209     H
N      0.24856  0.44406  0.42382     N
H        0.249   0.3884   0.5336     H
O      0.25239   0.3812  0.03642     O
H       0.2536   0.7746   0.9166     H
C      0.25441   0.9478  0.64758     C
O       0.2548    0.536   0.1066     O
C      0.25579   0.4124  0.45742     C
C      0.25816  0.08092  0.39216     C
H       0.2612   0.4566   0.7898     H
C     0.26302167   0.1284 0.33335667     C
N      0.26378  0.86578  0.83286     N
H        0.265   0.7632    0.624     H
C      0.26729    0.547  0.91942     C
O      0.26826  0.85006  0.74422     O
H       0.2683   0.3568    0.188     H
H       0.2688   0.5148   0.6816     H
H       0.2695   0.7018   0.8762     H
C      0.26969   0.6066  0.92362     C
H       0.2748     0.52   0.7744     H
P      0.27489  0.82334   0.7046     P
H       0.2772   0.2598   0.1226     H
C       0.2779   0.7354   0.9288     C
H        0.279   0.9362   0.1638     H
C       0.2817     0.04   0.6786     C
H       0.2822   0.4566   0.7102     H
H       0.2829   0.0614    0.702     H
C       0.2844   0.4832    0.688     C
H       0.2857   0.7758    0.579     H
C      0.28679   0.0876  0.45742     C
O      0.28881   0.8812  0.96358     O
H       0.2919    0.951    0.709     H
H       0.2936    0.235    0.056     H
C       0.2952   0.5026    0.799     C
C      0.29617   0.3976  0.13726     C
C      0.29991   0.8934  0.57638     C
P      0.30283  0.67666   0.7954     P
C        0.303   0.0854   0.5284     C
H       0.3045    0.013   0.7246     H
H       0.3058    0.479    0.881     H
C      0.30623   0.3976  0.36274     C
N      0.30738  0.44406  0.07618     N
C      0.30743  0.51974   0.8838     C
O      0.30829   0.3548  0.45822     O
C      0.31216  0.63904  0.89224     C
H       0.3131   0.1432    0.312     H
H       0.3155   0.8748    0.552     H
O      0.31556  0.73898   0.7979     O
H       0.3175    0.987   0.2246     H
H       0.3186    0.459    0.797     H
H       0.3191   0.5176   0.6942     H
C       0.3197    0.707   0.8944     C
C      0.32062   0.8882  0.64336     C
C       0.3217     0.96   0.1786     C
H       0.3251   0.1762    0.049     H
C       0.3255   0.2186   0.1164     C
O      0.32591   0.5162  0.11358     O
Zn     0.32727  0.68008  0.70752    Zn
N      0.32762  0.05594  0.42382     N
C       0.3289   0.0074   0.6968     C
H        0.329   0.8884   0.0336     H
H       0.3296   0.2438   0.0568     H
C      0.33103   0.1024  0.36274     C
C       0.3314   0.7604   0.6008     C
C      0.33181   0.4124  0.04258     C
H       0.3347   0.6076   0.6378     H
C       0.3356    0.204   0.0682     C
C       0.3363   0.9926   0.1968     C
O      0.33691   0.3548  0.04178     O
C      0.33908  0.91908  0.89216     C
C      0.34183   0.4962  0.08134     C
H       0.3425   0.4616   0.6662     H
C      0.34344  0.86096  0.60776     C
H       0.3443   0.9386    0.202     H
H       0.3448   0.0816   0.5132     H
H       0.3448   0.1502   0.5162     H
H       0.3475   0.7982   0.6238     H
H       0.3496    0.735    0.944     H
C      0.34968  0.41908  0.39216     C
C      0.34979   0.5522  0.85242     C
H       0.3501   0.6098   0.0666     H
C      0.35218   0.6118  0.85664     C
H       0.3524   0.0436   0.6854     H
O      0.35244  0.76102   0.7021     O
C       0.3604   0.5066   0.8226     C
O       0.3614    0.036   0.8934     O
O      0.36254  0.64994  0.75578     O
H       0.3626   0.3884   0.9664     H
H       0.3639   0.0794   0.5824     H
O      0.36432   0.8598  0.67576     O
H       0.3647   0.2002   0.1386     H
C      0.36511   0.0618  0.48898     C
O      0.36641   0.3812  0.46358     O
H         0.37   0.0328   0.6632     H
H        0.372   0.7724   0.5546     H
H       0.3721   0.7194   0.8706     H
H       0.3741   0.6762    0.951     H
C      0.37439   0.9124  0.95742     C
H       0.3749   0.3568    0.312     H
H       0.3773   0.7186   0.5962     H
H       0.3784   0.0266   0.1916     H
O      0.37869   0.8548  0.95822     O
H       0.3788   0.4736   0.8416     H
C       0.3816   0.1086   0.5182     C
N      0.38356  0.94406  0.92382     N
H       0.3848   0.2188   0.4052     H
H       0.3862      0.4   0.1378     H
H       0.3864   0.7438   0.9432     H
H       0.3866   0.1902   0.4232     H
C       0.3884   0.9146   0.0284     C
C       0.3892   0.0636   0.5572     C
C      0.39141   0.8716  0.83338     C
H        0.396   0.9564   0.1854     H
H       0.3964   0.2188   0.0948     H
O       0.3974    0.964   0.3934     O
H       0.3998   0.7598   0.8774     H
O      0.39988   0.6402  0.82424     O
H       0.4028   0.9672   0.1632     H
C     0.40362167   0.3716 0.33335667     C
C       0.4038    0.704   0.9318     C
H        0.405   0.9734   0.6916     H
C       0.4064    0.818   0.6052     C
C       0.4078   0.5238     0.81     C
C       0.4107   0.5846    0.048     C
C      0.41589   0.4382  0.01102     C
H       0.4167   0.1098   0.9334     H
C       0.4168   0.4146   0.9716     C
H       0.4186   0.5436   0.1854     H
C      0.41937   0.0038  0.41866     C
C      0.42317   0.9962  0.91866     C
H       0.4232   0.1902   0.0768     H
C      0.42358   0.5204  0.04904     C
H        0.424      0.1   0.3622     H
C      0.42624  0.60776  0.63796     C
H       0.4264   0.9184   0.0132     H
H       0.4266   0.2438   0.4432     H
C      0.42691   0.9382  0.98898     C
H         0.43   0.4734   0.1916     H
C      0.43343   0.8976  0.86274     C
H        0.434   0.5328   0.1632     H
H       0.4351   0.2002   0.3614     H
O      0.43949   0.0162  0.88642     O
H       0.4396   0.4184   0.9868     H
C       0.4419   0.7186   0.8836     C
C       0.4421   0.7646   0.5712     C
H       0.4428   0.4362   0.8362     H
H       0.4433   0.9206   0.0824     H
H       0.4448   0.7254   0.5834     H
H       0.4519    0.549    0.791     H
C       0.4528   0.9364   0.0572     C
H       0.4537   0.5614    0.202     H
O      0.45569   0.9838  0.38642     O
C       0.4559   0.2186   0.3836     C
C       0.4563   0.4884    0.016     C
H       0.4563   0.8568    0.812     H
C       0.4567   0.0846    0.548     C
H       0.4579    0.513   0.2246     H
C       0.4587   0.0846    0.952     C
C       0.4604    0.204   0.4318     C
C       0.4607   0.0116    0.484     C
H       0.4621   0.7806   0.6294     H
N      0.46242  0.63422  0.66714     N
H        0.463   0.2598   0.3774     H
C       0.4669   0.5074   0.1968     C
H       0.4714    0.235    0.444     H
C       0.4723   0.9884    0.984     C
C      0.47262   0.0204  0.95096     C
H       0.4735   0.1098   0.5666     H
H       0.4743   0.5794   0.0824     H
H        0.476      0.1   0.1378     H
C      0.47907    0.419  0.39146     C
H       0.4884   0.4974   0.0048     H
H       0.4888   0.6502   0.0162     H
C         0.49   0.5636   0.0572     C
C       0.4902   0.8914   0.0182     C
H       0.4906   0.0026   0.4952     H
H       0.4912   0.7188   0.9052     H
C       0.4916   0.6086   0.0182     C
C      0.49302   0.9796  0.45096     C
H       0.4932   0.9974   0.9952     H
H        0.494   0.5622   0.5884     H
H        0.495   0.8498   0.0162     H
H       0.4967   0.2998   0.1386     H
H       0.4987   0.1762    0.451     H
C       0.4997     0.54   0.1786     C
H          0.5   0.3098   0.0768     H
H          0.5   0.6902   0.9232     H
C       0.5003     0.46   0.8214     C
H       0.5013   0.8238    0.549     H
H       0.5033   0.7002   0.8614     H
H        0.505   0.1502   0.9838     H
H        0.506   0.4378   0.4116     H
H       0.5068   0.0026   0.0048     H
C      0.50698   0.0204  0.54904     C
C       0.5084   0.3914   0.9818     C
H       0.5088   0.2812   0.0948     H
H       0.5094   0.9974   0.5048     H
C       0.5098   0.1086   0.9818     C
C         0.51   0.4364   0.9428     C
H       0.5112   0.3498   0.9838     H
H       0.5116   0.5026   0.9952     H
C      0.52093    0.581  0.60854     C
H        0.524      0.9   0.8622     H
H       0.5257   0.4206   0.9176     H
H       0.5265   0.8902   0.4334     H
C      0.52738   0.9796  0.04904     C
C       0.5277   0.0116    0.016     C
H       0.5286    0.765    0.556     H
C       0.5331   0.4926   0.8032     C
H        0.537   0.7402   0.6226     H
N      0.53758  0.36578  0.33286     N
H       0.5379   0.2194   0.3706     H
C       0.5393   0.9884    0.516     C
C       0.5396    0.796   0.5682     C
C       0.5413   0.9154    0.048     C
H       0.5421    0.487   0.7754     H
C       0.5433   0.9154    0.452     C
H       0.5437   0.1432    0.188     H
C       0.5437   0.5116    0.984     C
C       0.5441   0.7814   0.6164     C
O      0.54431   0.0162  0.61358     O
H       0.5463   0.4386    0.798     H
C       0.5472   0.0636   0.9428     C
H       0.5481    0.451    0.209     H
H       0.5552   0.2746   0.4166     H
H       0.5567   0.0794   0.9176     H
H       0.5572   0.5638   0.1638     H
C       0.5579   0.2354   0.4288     C
C       0.5581   0.2814   0.1164     C
H       0.5604   0.5816   0.0132     H
O      0.56051   0.9838  0.11358     O
H       0.5649   0.7998   0.6386     H
H        0.566   0.4672   0.8368     H
C      0.56657   0.1024  0.13726     C
H         0.57   0.5266   0.8084     H
C      0.57309   0.0618  0.01102     C
H       0.5734   0.7562   0.5568     H
H       0.5736   0.0816   0.9868     H
C      0.57376  0.39224  0.36204     C
H        0.576      0.9   0.6378     H
C      0.57642   0.4796  0.95096     C
H       0.5768   0.8098   0.9232     H
C      0.57683   0.0038  0.08134     C
C       0.5789    0.207   0.3944     C
C      0.58063   0.9962  0.58134     C
H       0.5814   0.4564   0.8146     H
C       0.5832   0.5854   0.0284     C
H       0.5833   0.8902   0.0666     H
C      0.58411   0.5618  0.98898     C
C       0.5893   0.4154    0.952     C
C       0.5922   0.4762     0.19     C
H        0.595   0.0266   0.3084     H
C       0.5962    0.296   0.0682     C
C     0.59637833   0.6284 0.66664333     C
H       0.5972   0.0328   0.8368     H
O      0.60012   0.3598  0.17576     O
H       0.6002   0.2402   0.1226     H
O       0.6026    0.036   0.6066     O
H       0.6036   0.7812   0.9052     H
H        0.604   0.0436   0.8146     H
C      0.60859   0.1284  0.16662     C
C       0.6108   0.9364   0.4428     C
C       0.6116   0.0854   0.9716     C
H       0.6134   0.8098   0.5768     H
H       0.6136   0.2562   0.0568     H
H       0.6138      0.6   0.8622     H
H       0.6152   0.7812   0.5948     H
N      0.61644  0.05594  0.07618     N
C       0.6184   0.8914   0.4818     C
H       0.6212   0.5264   0.1584     H
O      0.62131   0.1452  0.04178     O
H       0.6216   0.9734   0.8084     H
H       0.6227   0.2814   0.4038     H
H       0.6251   0.6432    0.688     H
C      0.62561   0.0876  0.04258     C
H       0.6259   0.3238    0.049     H
H       0.6279   0.2806   0.1294     H
H        0.628   0.2276   0.4454     H
H         0.63   0.9672   0.3368     H
O      0.63359   0.6188  0.53642     O
C      0.63489   0.9382  0.51102     C
H       0.6353   0.7998   0.8614     H
O      0.63568   0.1402  0.32424     O
H       0.6361   0.9206   0.4176     H
H       0.6374   0.6116   0.0336     H
O      0.63746  0.35006  0.24422     O
O       0.6386    0.964   0.1066     O
C       0.6396   0.4934   0.1774     C
O      0.64756  0.23898   0.2979     O
H       0.6476   0.9564   0.3146     H
C      0.64782   0.3882  0.14336     C
H       0.6499   0.3902   0.9334     H
C      0.65021   0.4478  0.14758     C
C      0.65032  0.58092  0.60784     C
H       0.6504    0.265    0.056     H
H       0.6525   0.2018   0.3762     H
H       0.6552   0.8498   0.4838     H
H       0.6552   0.9184   0.4868     H
H       0.6557   0.0614    0.798     H
C      0.65656  0.13904  0.39224     C
H       0.6575   0.5384   0.3338     H
C      0.65817   0.5038  0.91866     C
C      0.66092  0.08092  0.10784     C
O      0.66309   0.6452  0.95822     O
C       0.6637   0.0074   0.8032     C
C       0.6644    0.796   0.9318     C
H       0.6653   0.3924   0.3622     H
C      0.66819   0.5876  0.95742     C
C       0.6686   0.2396   0.3992     C
C      0.66897   0.8976  0.63726     C
C       0.6704    0.318   0.1052     C
H       0.6704   0.7562   0.9432     H
H        0.671   0.1116   0.9664     H
C       0.6711   0.9926   0.3032     C
N      0.67238  0.94406  0.57618     N
Zn     0.67273  0.31992  0.29248    Zn
O      0.67409   0.4838  0.88642     O
C       0.6745   0.7814   0.8836     C
H       0.6749   0.8238    0.951     H
C       0.6783     0.04   0.8214     C
C      0.67938   0.1118  0.35664     C
H       0.6809   0.4824   0.3058     H
H       0.6814    0.541    0.203     H
H       0.6825    0.013   0.7754     H
O      0.68444  0.26102   0.2021     O
H       0.6845   0.1252    0.448     H
H       0.6869   0.8568    0.688     H
C      0.68784  0.36096  0.10776     C
O      0.69171   0.6452  0.54178     O
C      0.69257  0.48026   0.1162     C
N      0.69262  0.55594  0.92382     N
C      0.69377   0.6024  0.63726     C
H       0.6942    0.521    0.119     H
H       0.6955    0.987   0.2754     H
C        0.697   0.9146   0.4716     C
P      0.69717  0.32334   0.2046     P
C      0.70009   0.1066  0.42362     C
C      0.70383   0.6024  0.86274     C
C       0.7048   0.4974    0.201     C
H       0.7064    0.765    0.944     H
H       0.7081    0.049    0.291     H
O      0.71119   0.1188  0.03642     O
C      0.71321   0.9124  0.54258     C
H       0.7143   0.2242    0.421     H
C       0.7156   0.5168    0.312     C
H       0.7171   0.9386    0.298     H
H       0.7178   0.5434   0.2898     H
C       0.7183     0.96   0.3214     C
H        0.721   0.0638   0.8362     H
C       0.7221   0.2646   0.0712     C
H       0.7228   0.7402   0.8774     H
P      0.72511  0.17666   0.2954     P
H       0.7252     0.48   0.2256     H
C      0.73031   0.3934  0.07638     C
H       0.7305   0.2982   0.1238     H
H       0.7312   0.4852   0.3184     H
H       0.7317   0.6432    0.812     H
O      0.73174  0.14994  0.25578     O
C      0.73271    0.453  0.08058     C
H        0.735   0.2368    0.376     H
N      0.73622  0.13422  0.16714     N
C     0.73697833   0.8716 0.66664333     C
H       0.7388   0.5434   0.2102     H
C      0.74184  0.91908  0.60784     C
C      0.74421   0.5876  0.54258     C
O       0.7452    0.464   0.8934     O
C      0.74559   0.0522  0.35242     C
H       0.7464   0.2254   0.0834     H
O      0.74761   0.6188  0.96358     O
H        0.751   0.6116   0.4664     H
N      0.75144  0.55594  0.57618     N
H       0.7571    0.951    0.791     H
H       0.7573   0.7806   0.8706     H
H       0.7577   0.3748    0.052     H
C       0.7584   0.0238     0.31     C
H       0.7616   0.4752   0.0592     H
H       0.7632   0.4752   0.4408     H
C      0.76629    0.047  0.41942     C
O      0.76651   0.8548  0.54178     O
C       0.7676   0.5168    0.188     C
C      0.76876  0.58092  0.89216     C
C      0.77521   0.6284  0.83338     C
C       0.7756    0.818   0.8948     C
O      0.77588   0.8598  0.82424     O
H       0.7776    0.541    0.297     H
H       0.7796   0.0264   0.8416     H
C       0.7822   0.9762     0.81     C
H       0.7826   0.8884   0.4664     H
H       0.7836   0.4852   0.1816     H
H       0.7848    0.521    0.381     H
H       0.7848   0.9362   0.3362     H
Zn     0.78513  0.18008  0.20752    Zn
H       0.7862      0.6   0.6378     H
C      0.78903  0.01974   0.3838     C
C      0.78953    0.081  0.10854     C
H         0.79   0.7188   0.5948     H
O       0.7908    0.464   0.6066     O
C      0.79118   0.8882  0.85664     C
C       0.7933   0.7646   0.9288     C
H       0.7948     0.48   0.2744     H
C       0.7956  0.86096  0.89224     C
H        0.796   0.0248   0.4408     H
H       0.7965   0.7002   0.6386     H
C      0.79779   0.9478  0.85242     C
C       0.7978   0.4974    0.299     C
H        0.801   0.2724   0.0546     H
H       0.8041   0.5384   0.1662     H
H        0.806   0.9736   0.3416     H
C      0.80669   0.8934  0.92362     C
C       0.8074   0.2604   0.1008     C
H       0.8079   0.2186   0.0962     H
C      0.80877  0.98026   0.8838     C
H       0.8097   0.8748    0.948     H
H       0.8098   0.6902   0.5768     H
C       0.8104   0.0066   0.3226     C
H       0.8132    0.021    0.881     H
C      0.81329    0.953  0.91942     C
C      0.81429    0.453  0.41942     C
C        0.817   0.9934   0.8226     C
H       0.8208   0.9752   0.9408     H
C      0.82717  0.48026   0.3838     C
C      0.82804  0.10776  0.13796     C
H       0.8298   0.7254   0.9166     H
O      0.82999   0.8812  0.53642     O
C       0.8314   0.5854   0.4716     C
O       0.8317  0.33262  0.30818     O
H       0.8342    0.979    0.381     H
O      0.83568  0.33262  0.19182     O
H       0.8367   0.4824   0.1942     H
C      0.83803   0.5038  0.58134     C
C       0.8395   0.7186   0.6164     C
H       0.8404   0.7598   0.6226     H
O      0.84211   0.4838  0.61358     O
H       0.8478   0.2632    0.124     H
H       0.8524   0.5264   0.3416     H
C      0.85409   0.5618  0.51102     C
H       0.8543   0.7982   0.8762     H
H       0.8554   0.0622   0.0884     H
H       0.8556   0.7724   0.9454     H
H        0.858   0.5816   0.4868     H
H       0.8595   0.2758    0.079     H
O      0.86012  0.16738  0.30818     O
H        0.861   0.6502   0.4838     H
H       0.8647   0.2758    0.421     H
C        0.867   0.4934   0.3226     C
H       0.8675   0.3748    0.448     H
H       0.8698   0.7438   0.5568     H
N      0.87044  0.86578  0.66714     N
C      0.87053    0.919  0.60854     C
C      0.87629   0.3934  0.42362     C
H        0.879   0.5638   0.3362     H
O      0.88168  0.85006  0.75578     O
H       0.8844    0.041    0.797     H
O      0.88654  0.76102   0.7979     O
H        0.889   0.2632    0.376     H
C       0.8922    0.704   0.5682     C
C      0.89807    0.581  0.89146     C
C       0.8998   0.6086   0.4818     C
P      0.90177  0.82334   0.7954     P
C      0.90199   0.4478  0.35242     C
C       0.9032   0.0026    0.299     C
N      0.90336  0.63422  0.83286     N
H       0.9034   0.5266   0.6916     H
H       0.9041   0.7186   0.9038     H
C       0.9058   0.9974    0.799     C
C       0.9082   0.7604   0.8992     C
H       0.9085   0.7194   0.6294     H
H       0.9154    0.735    0.556     H
H       0.9176   0.9378   0.5884     H
H       0.9199   0.1076   0.1378     H
H       0.9254    0.959    0.297     H
H       0.9266   0.2724   0.4454     H
H       0.9308     0.02   0.2744     H
C       0.9316   0.4762     0.31     C
C       0.9322   0.2604   0.3992     C
C       0.9358  0.89224  0.63796     C
H       0.9385   0.7758    0.921     H
H       0.9423   0.3924   0.1378     H
H       0.9438   0.5622   0.9116     H
C      0.94398   0.4796  0.54904     C
C       0.9447   0.5116    0.516     C
O      0.94546  0.73898   0.7021     O
H       0.9463   0.5794   0.4176     H
C       0.9464   0.5636   0.4428     C
H        0.949   0.0434   0.7898     H
H       0.9497   0.6762    0.549     H
H       0.9504   0.0148   0.3184     H
H       0.9508     0.98   0.7744     H
C       0.9512  0.36096  0.39224     C
C       0.9556   0.0168    0.812     C
H       0.9599   0.3902   0.5666     H
O      0.95992   0.6402  0.67576     O
C       0.9603     0.54   0.3214     C
H       0.9622   0.4564   0.6854     H
C      0.96398   0.3882  0.35664     C
H       0.9652   0.9852   0.8184     H
Zn     0.96521  0.81992  0.70752    Zn
C        0.966  0.60776  0.86204     C
H       0.9668   0.4672   0.6632     H
H       0.9691   0.0176   0.1942     H
H       0.9703   0.0384   0.8338     H
H       0.9709    0.487   0.7246     H
H       0.9713   0.2982   0.3762     H
H       0.9718   0.7632    0.876     H
H       0.9718   0.7746   0.5834     H
C       0.9724   0.9832    0.312     C
H       0.9725   0.1076   0.3622     H
O       0.9725  0.16738  0.19182     O
C       0.9733    0.707   0.6056     C
H       0.9735   0.2186   0.4038     H
C       0.9743   0.4926   0.6968     C
P      0.97949  0.32334   0.2954     P
H       0.9849   0.5614    0.298     H
H       0.9858   0.5026   0.5048     H
C       0.9867   0.7354   0.5712     C
H       0.9867   0.9824   0.6942     H
O      0.98752  0.64994  0.74422     O
H       0.9913   0.0384   0.6662     H
H       0.9924   0.9566   0.2898     H
Zn     0.99265  0.68008  0.79248    Zn
C       0.9953   0.4154    0.548     C
H       0.9991    0.549    0.709     H
